@<TRIPOS>MOLECULE
FPK
   18    17     1     0     0
SMALL
bcc


@<TRIPOS>ATOM
      1 C          -1.6760   -0.9870   -0.2430 c1        1 FPK      0.332000
      2 N           0.3610    0.4130   -0.7680 n         1 FPK     -0.303000
      3 OXT        -2.3060   -2.0470    0.0090 os        1 FPK     -0.570000
      4 CA         -0.1740   -0.9870   -0.2430 c3        1 FPK     -0.062000
      5 CB          0.2540   -0.9870    0.9530 c3        1 FPK     -0.150000
      6 CC          0.3790    0.5310    1.4050 c3        1 FPK     -0.159000
      7 CD          0.8120    1.1650    0.4220 c3        1 FPK     -0.023000
      8 CE          0.3980    0.8550   -2.1160 c2        1 FPK      0.280000
      9 OE         -0.0070    0.1310   -3.0050 o         1 FPK     -0.392000
     10 O          -2.3060    0.0740   -0.4960 o         1 FPK     -0.564000
     11 HA          0.0140   -1.7740   -0.7890 h1        1 FPK      0.104000
     12 HB         -0.3770   -1.4550    1.5320 hc        1 FPK      0.083000
     13 HBA         1.1280   -1.4190    0.9940 hc        1 FPK      0.083000
     14 HC          1.0020    0.6070    2.1520 hc        1 FPK      0.069500
     15 HCA        -0.4970    0.8760    1.6640 hc        1 FPK      0.069500
     16 HD          1.7870    1.2030    0.4480 h1        1 FPK      0.063500
     17 HDA         0.4390    2.0680    0.4120 h1        1 FPK      0.063500
     18 HE          0.7690    1.7320   -2.3310 h5        1 FPK      0.074000
@<TRIPOS>BOND
     1    1    4 1   
     2    1   10 1   
     3    2    4 1   
     4    2    7 1   
     5    2    8 1   
     6    4    5 1   
     7    4   11 1   
     8    5    6 1   
     9    5   12 1   
    10    5   13 1   
    11    6    7 1   
    12    6   14 1   
    13    6   15 1   
    14    7   16 1   
    15    7   17 1   
    16    8    9 1   
    17    8   18 1   
@<TRIPOS>SUBSTRUCTURE
     1 FPK         1 TEMP              0 ****  ****    0 ROOT
