@<TRIPOS>MOLECULE
FPL
   24    21     1     0     0
SMALL
bcc


@<TRIPOS>ATOM
      1 C           1.5390   -0.2470   -1.7170 c1        1 FPL      0.111000
      2 F           4.9300   -0.4830   -0.6430 f         1 FPL     -0.100000
      3 O           0.7680   -0.2710   -2.9350 o         1 FPL     -0.240000
      4 C1          2.8960   -0.3690   -1.7680 c2        1 FPL     -0.193000
      5 O1         -0.4030    0.0560   -1.0630 os        1 FPL     -0.169000
      6 C2          3.6430   -0.2720   -0.6070 c2        1 FPL      0.121000
      7 C3          3.0290   -0.0560    0.5800 c2        1 FPL     -0.192000
      8 C4          1.6400    0.0700    0.6370 c1        1 FPL     -0.083000
      9 C5          0.9050   -0.0260   -0.5020 c1        1 FPL     -0.058000
     10 C6         -1.3450    0.1450   -0.0390 c2        1 FPL      0.058000
     11 C7         -1.7290    1.3960    0.4330 c2        1 FPL     -0.147000
     12 C8         -2.7680    1.5130    1.3510 c1        1 FPL     -0.105000
     13 C9         -3.4120    0.4020    1.7910 c1        1 FPL     -0.126000
     14 C10        -3.0190   -0.8810    1.3090 c1        1 FPL     -0.126000
     15 C11        -1.9850   -0.9840    0.3970 c1        1 FPL     -0.181000
     16 HO          0.7880   -1.1820   -3.3170 ho        1 FPL      0.240000
     17 H1          3.3370   -0.5880   -2.6230 ha        1 FPL      0.171000
     18 H3          3.5550    0.0120    1.3920 ha        1 FPL      0.155000
     19 H4          1.2260    0.2160    1.4420 ha        1 FPL      0.155000
     20 H7         -1.2310    2.2550    0.0910 ha        1 FPL      0.151000
     21 H8         -3.0290    2.3840    1.6740 ha        1 FPL      0.137000
     22 H9         -4.1570    0.4850    2.4480 ha        1 FPL      0.136000
     23 H10        -3.4790   -1.6870    1.6220 ha        1 FPL      0.136000
     24 H11        -1.7000   -1.8900    0.0490 ha        1 FPL      0.148000
@<TRIPOS>BOND
     1    1    4 1   
     2    1    9 1   
     3    2    6 1   
     4    3   16 1   
     5    4    6 1   
     6    4   17 1   
     7    5    9 1   
     8    5   10 1   
     9    6    7 1   
    10    7    8 1   
    11    7   18 1   
    12    8   19 1   
    13   10   11 1   
    14   10   15 1   
    15   11   12 1   
    16   11   20 1   
    17   12   21 1   
    18   13   14 1   
    19   13   22 1   
    20   14   23 1   
    21   15   24 1   
@<TRIPOS>SUBSTRUCTURE
     1 FPL         1 TEMP              0 ****  ****    0 ROOT
