@<TRIPOS>MOLECULE
FPL
   24    25     1     0     0
SMALL
bcc


@<TRIPOS>ATOM
      1 C          -0.0850   -0.0640    0.2180 ca        1 FPL      0.156100
      2 F           3.3340    1.1310    0.6670 f         1 FPL     -0.134900
      3 O          -0.9860   -0.1690   -0.8090 oh        1 FPL     -0.486100
      4 C1          1.1680    0.4860   -0.0840 ca        1 FPL     -0.193000
      5 O1         -1.5840   -1.1510    1.7240 os        1 FPL     -0.259200
      6 C2          2.1200    0.5970    0.9430 ca        1 FPL      0.155900
      7 C3          1.8340    0.1640    2.2530 ca        1 FPL     -0.192000
      8 C4          0.5900   -0.3850    2.5400 ca        1 FPL     -0.083000
      9 C5         -0.3690   -0.4970    1.5300 ca        1 FPL     -0.012900
     10 C6         -2.4440   -0.5870    2.6660 ca        1 FPL      0.103100
     11 C7         -2.3470    0.7330    3.1190 ca        1 FPL     -0.164000
     12 C8         -3.2970    1.2060    4.0230 ca        1 FPL     -0.102500
     13 C9         -4.3260    0.3760    4.4650 ca        1 FPL     -0.152000
     14 C10        -4.4110   -0.9400    4.0060 ca        1 FPL     -0.102500
     15 C11        -3.4720   -1.4360    3.1060 ca        1 FPL     -0.164000
     16 HO         -1.7980   -0.5680   -0.4550 ho        1 FPL      0.441000
     17 H1          1.3930    0.8200   -1.1060 ha        1 FPL      0.171000
     18 H3          2.5990    0.2600    3.0360 ha        1 FPL      0.155000
     19 H4          0.3490   -0.7290    3.5570 ha        1 FPL      0.155000
     20 H7         -1.5320    1.3830    2.7690 ha        1 FPL      0.149500
     21 H8         -3.2310    2.2430    4.3850 ha        1 FPL      0.136500
     22 H9         -5.0720    0.7570    5.1770 ha        1 FPL      0.136000
     23 H10        -5.2240   -1.5930    4.3570 ha        1 FPL      0.136500
     24 H11        -3.5240   -2.4700    2.7360 ha        1 FPL      0.149500
@<TRIPOS>BOND
     1    1    3 1   
     2    1    4 ar  
     3    1    9 ar  
     4    2    6 1   
     5    3   16 1   
     6    4    6 ar  
     7    4   17 1   
     8    5    9 1   
     9    5   10 1   
    10    6    7 ar  
    11    7    8 ar  
    12    7   18 1   
    13    8    9 ar  
    14    8   19 1   
    15   10   11 ar  
    16   10   15 ar  
    17   11   12 ar  
    18   11   20 1   
    19   12   13 ar  
    20   12   21 1   
    21   13   14 ar  
    22   13   22 1   
    23   14   15 ar  
    24   14   23 1   
    25   15   24 1   
@<TRIPOS>SUBSTRUCTURE
     1 FPL         1 TEMP              0 ****  ****    0 ROOT
