@<TRIPOS>MOLECULE
FPL
   24    25     1     0     0
SMALL
bcc


@<TRIPOS>ATOM
      1 C           1.5910   -1.0480    0.0470 ca        1 FPL      0.156100
      2 F           4.2610    1.1320   -1.1490 f         1 FPL     -0.134900
      3 O           1.3590   -2.3960    0.1390 oh        1 FPL     -0.486100
      4 C1          2.8110   -0.6450   -0.5100 ca        1 FPL     -0.193000
      5 O1         -0.4640   -0.5570    1.1590 os        1 FPL     -0.259200
      6 C2          3.0870    0.7280   -0.6090 ca        1 FPL      0.155900
      7 C3          2.1640    1.6920   -0.1560 ca        1 FPL     -0.192000
      8 C4          0.9580    1.2810    0.4000 ca        1 FPL     -0.083000
      9 C5          0.6680   -0.0820    0.5000 ca        1 FPL     -0.012900
     10 C6         -1.6940   -0.1960    0.6120 ca        1 FPL      0.103100
     11 C7         -1.8600    0.2540   -0.7020 ca        1 FPL     -0.164000
     12 C8         -3.1470    0.5350   -1.1600 ca        1 FPL     -0.102500
     13 C9         -4.2480    0.3670   -0.3200 ca        1 FPL     -0.152000
     14 C10        -4.0670   -0.0820    0.9900 ca        1 FPL     -0.102500
     15 C11        -2.7920   -0.3650    1.4710 ca        1 FPL     -0.164000
     16 HO          0.4850   -2.5220    0.5450 ho        1 FPL      0.441000
     17 H1          3.5330   -1.3960   -0.8610 ha        1 FPL      0.171000
     18 H3          2.4070    2.7600   -0.2420 ha        1 FPL      0.155000
     19 H4          0.2260    2.0190    0.7600 ha        1 FPL      0.155000
     20 H7         -0.9890    0.3870   -1.3590 ha        1 FPL      0.149500
     21 H8         -3.2900    0.8890   -2.1920 ha        1 FPL      0.136500
     22 H9         -5.2590    0.5900   -0.6890 ha        1 FPL      0.136000
     23 H10        -4.9380   -0.2130    1.6500 ha        1 FPL      0.136500
     24 H11        -2.6330   -0.7190    2.4990 ha        1 FPL      0.149500
@<TRIPOS>BOND
     1    1    3 1   
     2    1    4 ar  
     3    1    9 ar  
     4    2    6 1   
     5    3   16 1   
     6    4    6 ar  
     7    4   17 1   
     8    5    9 1   
     9    5   10 1   
    10    6    7 ar  
    11    7    8 ar  
    12    7   18 1   
    13    8    9 ar  
    14    8   19 1   
    15   10   11 ar  
    16   10   15 ar  
    17   11   12 ar  
    18   11   20 1   
    19   12   13 ar  
    20   12   21 1   
    21   13   14 ar  
    22   13   22 1   
    23   14   15 ar  
    24   14   23 1   
    25   15   24 1   
@<TRIPOS>SUBSTRUCTURE
     1 FPL         1 TEMP              0 ****  ****    0 ROOT
