@<TRIPOS>MOLECULE
FPL
   24    25     1     0     0
SMALL
bcc


@<TRIPOS>ATOM
      1 C          -0.0670   -0.0360    0.2280 ca        1 FPL      0.156100
      2 F           3.3410    1.1750    0.7190 f         1 FPL     -0.134900
      3 O          -0.9580   -0.1360   -0.8080 oh        1 FPL     -0.486100
      4 C1          1.1850    0.5240   -0.0570 ca        1 FPL     -0.193000
      5 O1         -1.5720   -1.1470    1.7100 os        1 FPL     -0.259200
      6 C2          2.1280    0.6310    0.9790 ca        1 FPL      0.155900
      7 C3          1.8330    0.1830    2.2820 ca        1 FPL     -0.192000
      8 C4          0.5890   -0.3760    2.5530 ca        1 FPL     -0.083000
      9 C5         -0.3600   -0.4840    1.5330 ca        1 FPL     -0.012900
     10 C6         -2.4440   -0.5980    2.6500 ca        1 FPL      0.103100
     11 C7         -2.3600    0.7180    3.1160 ca        1 FPL     -0.164000
     12 C8         -3.3210    1.1770    4.0160 ca        1 FPL     -0.102500
     13 C9         -4.3480    0.3350    4.4420 ca        1 FPL     -0.152000
     14 C10        -4.4200   -0.9770    3.9700 ca        1 FPL     -0.102500
     15 C11        -3.4700   -1.4580    3.0740 ca        1 FPL     -0.164000
     16 HO         -1.7710   -0.5430   -0.4650 ho        1 FPL      0.441000
     17 H1          1.4170    0.8710   -1.0740 ha        1 FPL      0.171000
     18 H3          2.5900    0.2760    3.0730 ha        1 FPL      0.155000
     19 H4          0.3420   -0.7320    3.5640 ha        1 FPL      0.155000
     20 H7         -1.5460    1.3770    2.7780 ha        1 FPL      0.149500
     21 H8         -3.2650    2.2110    4.3890 ha        1 FPL      0.136500
     22 H9         -5.1020    0.7050    5.1520 ha        1 FPL      0.136000
     23 H10        -5.2310   -1.6390    4.3080 ha        1 FPL      0.136500
     24 H11        -3.5110   -2.4890    2.6930 ha        1 FPL      0.149500
@<TRIPOS>BOND
     1    1    3 1   
     2    1    4 ar  
     3    1    9 ar  
     4    2    6 1   
     5    3   16 1   
     6    4    6 ar  
     7    4   17 1   
     8    5    9 1   
     9    5   10 1   
    10    6    7 ar  
    11    7    8 ar  
    12    7   18 1   
    13    8    9 ar  
    14    8   19 1   
    15   10   11 ar  
    16   10   15 ar  
    17   11   12 ar  
    18   11   20 1   
    19   12   13 ar  
    20   12   21 1   
    21   13   14 ar  
    22   13   22 1   
    23   14   15 ar  
    24   14   23 1   
    25   15   24 1   
@<TRIPOS>SUBSTRUCTURE
     1 FPL         1 TEMP              0 ****  ****    0 ROOT
