@<TRIPOS>MOLECULE
FPM
   33    35     1     0     0
SMALL
bcc


@<TRIPOS>ATOM
      1 C2          0.0330    0.0750   -0.1660 c2        1 FPM     -0.085600
      2 C6          1.6290    1.3610    2.8000 cy        1 FPM     -0.182700
      3 C5          0.9920    0.0900    2.1820 cy        1 FPM      0.095800
      4 C7          2.6480    1.2910    1.6290 c         1 FPM      0.700500
      5 N4          2.0220    0.1030    1.0880 n         1 FPM     -0.284000
      6 C3          1.3960    0.0840   -0.1890 ce        1 FPM     -0.052600
      7 S1         -0.6360    0.1580    1.4420 ss        1 FPM     -0.309700
      8 C31         2.2540    0.0310   -1.4740 c         1 FPM      0.940800
      9 O7          3.6550    1.9270    1.3690 o         1 FPM     -0.522500
     10 C61         2.2400    1.1940    4.1750 c3        1 FPM      0.154100
     11 O62         1.1590    1.0850    5.1010 oh        1 FPM     -0.600800
     12 C62         3.1330    2.3720    4.5250 c3        1 FPM     -0.138100
     13 C14        -0.8140   -0.0610   -1.3750 c3        1 FPM      0.213300
     14 C15        -1.5890   -1.3900   -1.4080 c3        1 FPM     -0.097400
     15 C16        -3.0630   -1.0180   -1.3280 c3        1 FPM     -0.107400
     16 C17        -3.0920    0.5020   -1.2070 c3        1 FPM      0.126400
     17 O18        -1.7830    1.0020   -1.4720 os        1 FPM     -0.418600
     18 O32         3.1530    0.8940   -1.6040 o         1 FPM     -0.793800
     19 O31         1.9500   -0.8670   -2.3020 o         1 FPM     -0.793800
     20 H6          0.9710    2.2600    2.7560 hc        1 FPM      0.106700
     21 H5          1.0710   -0.8110    2.8310 h2        1 FPM      0.094700
     22 H61         2.8390    0.2380    4.2100 h1        1 FPM      0.040700
     23 HO62        1.5560    1.0710    5.9800 ho        1 FPM      0.391000
     24 H162        3.6670    2.1800    5.4860 hc        1 FPM      0.048033
     25 H262        2.5230    3.3000    4.6350 hc        1 FPM      0.048033
     26 H362        3.8860    2.5280    3.7130 hc        1 FPM      0.048033
     27 H14        -0.1590    0.0500   -2.2920 h1        1 FPM      0.125700
     28 H115       -1.3580   -1.9340   -2.3560 hc        1 FPM      0.059700
     29 H215       -1.2870   -2.0450   -0.5550 hc        1 FPM      0.059700
     30 H116       -3.6100   -1.3520   -2.2440 hc        1 FPM      0.035700
     31 H216       -3.5540   -1.4960   -0.4460 hc        1 FPM      0.035700
     32 H117       -3.3910    0.8280   -0.1760 h1        1 FPM      0.031200
     33 H217       -3.7660    0.9820   -1.9610 h1        1 FPM      0.031200
@<TRIPOS>BOND
     1    1    6 2   
     2    1    7 1   
     3    1   13 1   
     4    2    3 1   
     5    2    4 1   
     6    2   10 1   
     7    2   20 1   
     8    3    5 1   
     9    3    7 1   
    10    3   21 1   
    11    4    5 1   
    12    4    9 2   
    13    5    6 1   
    14    6    8 1   
    15    8   18 1   
    16    8   19 1   
    17   10   11 1   
    18   10   12 1   
    19   10   22 1   
    20   11   23 1   
    21   12   24 1   
    22   12   25 1   
    23   12   26 1   
    24   13   14 1   
    25   13   17 1   
    26   13   27 1   
    27   14   15 1   
    28   14   28 1   
    29   14   29 1   
    30   15   16 1   
    31   15   30 1   
    32   15   31 1   
    33   16   17 1   
    34   16   32 1   
    35   16   33 1   
@<TRIPOS>SUBSTRUCTURE
     1 FPM         1 TEMP              0 ****  ****    0 ROOT
