@<TRIPOS>MOLECULE
FPM
   33    31     1     0     0
SMALL
bcc


@<TRIPOS>ATOM
      1 C2         -0.0350   -0.9600   -0.1540 c1        1 FPM     -0.340000
      2 C6          0.9710    1.2920    1.8330 c3        1 FPM     -0.209000
      3 C5          0.7930    0.0590    1.9510 c3        1 FPM     -0.177000
      4 C7          2.2210    1.0110    1.1670 c1        1 FPM      0.299000
      5 N4          1.9500   -0.2190    1.1720 n2        1 FPM     -0.171000
      6 C3          1.4030   -1.0480   -0.0190 c1        1 FPM     -0.041000
      7 S1         -0.6180   -0.5870    0.9810 ss        1 FPM      0.143000
      8 C31         2.2650   -1.2750   -1.2410 c1        1 FPM      0.393000
      9 O7          3.1480    1.6850    0.7630 o         1 FPM     -0.261000
     10 C61         0.5930    1.5820    1.5600 c3        1 FPM      0.045000
     11 O62         1.4030    2.5000    0.2240 oh        1 FPM     -0.341000
     12 C62        -0.2240    2.8180    2.7560 c3        1 FPM     -0.207000
     13 C14        -0.6380   -0.5790   -1.4590 c2        1 FPM      0.111000
     14 C15        -0.8510   -1.8900   -2.3600 c3        1 FPM     -0.190000
     15 C16        -2.2890   -2.2050   -2.2990 c3        1 FPM     -0.182000
     16 C17        -2.7530   -1.4870   -1.3760 c3        1 FPM     -0.022000
     17 O18        -1.8320   -0.1980   -1.2830 os        1 FPM     -0.288000
     18 O32         2.6380   -2.4380   -1.5420 os        1 FPM     -0.530000
     19 O31         2.6080   -0.2990   -1.9600 o         1 FPM     -0.521000
     20 H6          1.0600    1.7760    2.6840 hc        1 FPM      0.123000
     21 H5          0.8510   -0.2710    2.8700 h2        1 FPM      0.130000
     22 H61        -0.0860    0.9790    1.1880 h1        1 FPM      0.107000
     23 HO62        0.9630    3.2560    0.0750 ho        1 FPM      0.217000
     24 H162       -0.9150    3.3240    2.2800 hc        1 FPM      0.081667
     25 H262        0.4550    3.4370    3.1010 hc        1 FPM      0.081667
     26 H362       -0.6320    2.3300    3.5030 hc        1 FPM      0.081667
     27 H14         0.0070    0.0870   -1.7770 h4        1 FPM      0.124000
     28 H115       -0.5850   -1.7090   -3.2840 hc        1 FPM      0.124000
     29 H215       -0.3280   -2.6340   -1.9990 hc        1 FPM      0.124000
     30 H116       -2.4190   -3.1540   -2.0900 hc        1 FPM      0.078500
     31 H216       -2.7210   -1.9820   -3.1510 hc        1 FPM      0.078500
     32 H117       -3.6750   -1.2260   -1.5860 h1        1 FPM      0.069500
     33 H217       -2.7290   -1.9770   -0.5270 h1        1 FPM      0.069500
@<TRIPOS>BOND
     1    1    6 1   
     2    1    7 1   
     3    2    3 1   
     4    2    4 1   
     5    2   10 1   
     6    2   20 1   
     7    3    5 1   
     8    3    7 1   
     9    3   21 1   
    10    4    9 1   
    11    5    6 1   
    12    8   19 1   
    13   10   11 1   
    14   10   12 1   
    15   10   22 1   
    16   11   23 1   
    17   12   24 1   
    18   12   25 1   
    19   12   26 1   
    20   13   14 1   
    21   13   17 1   
    22   13   27 1   
    23   14   15 1   
    24   14   28 1   
    25   14   29 1   
    26   15   16 1   
    27   15   30 1   
    28   15   31 1   
    29   16   17 1   
    30   16   32 1   
    31   16   33 1   
@<TRIPOS>SUBSTRUCTURE
     1 FPM         1 TEMP              0 ****  ****    0 ROOT
