@<TRIPOS>MOLECULE
FPM
   33    35     1     0     0
SMALL
bcc


@<TRIPOS>ATOM
      1 C2          0.0490    0.0770   -0.1610 c2        1 FPM     -0.085600
      2 C6          1.6230    1.3550    2.8200 cy        1 FPM     -0.182700
      3 C5          0.9760    0.0900    2.1990 cy        1 FPM      0.095800
      4 C7          2.6570    1.2640    1.6630 c         1 FPM      0.700500
      5 N4          2.0210    0.0830    1.1190 n         1 FPM     -0.284000
      6 C3          1.4120    0.0670   -0.1660 ce        1 FPM     -0.052600
      7 S1         -0.6410    0.1780    1.4370 ss        1 FPM     -0.309700
      8 C31         2.2860   -0.0050   -1.4400 c         1 FPM      0.940800
      9 O7          3.6760    1.8850    1.4140 o         1 FPM     -0.522500
     10 C61         2.2130    1.1850    4.2040 c3        1 FPM      0.154100
     11 O62         1.1190    1.0970    5.1160 oh        1 FPM     -0.600800
     12 C62         3.1180    2.3520    4.5600 c3        1 FPM     -0.138100
     13 C14        -0.7840   -0.0530   -1.3810 c3        1 FPM      0.213300
     14 C15        -1.5760   -1.3710   -1.4190 c3        1 FPM     -0.097400
     15 C16        -3.0460   -0.9790   -1.3610 c3        1 FPM     -0.107400
     16 C17        -3.0560    0.5430   -1.2460 c3        1 FPM      0.126400
     17 O18        -1.7370    1.0230   -1.4960 os        1 FPM     -0.418600
     18 O32         3.1990    0.8450   -1.5620 o         1 FPM     -0.793800
     19 O31         1.9810   -0.9030   -2.2680 o         1 FPM     -0.793800
     20 H6          0.9790    2.2620    2.7620 hc        1 FPM      0.106700
     21 H5          1.0340   -0.8090    2.8530 h2        1 FPM      0.094700
     22 H61         2.7970    0.2210    4.2510 h1        1 FPM      0.040700
     23 HO62        1.5040    1.0810    6.0000 ho        1 FPM      0.391000
     24 H162        2.5200    3.2890    4.6570 hc        1 FPM      0.048033
     25 H262        3.8840    2.4940    3.7580 hc        1 FPM      0.048033
     26 H362        3.6360    2.1570    5.5290 hc        1 FPM      0.048033
     27 H14        -0.1150    0.0450   -2.2890 h1        1 FPM      0.125700
     28 H115       -1.2960   -2.0270   -0.5590 hc        1 FPM      0.059700
     29 H215       -1.3400   -1.9230   -2.3610 hc        1 FPM      0.059700
     30 H116       -3.5850   -1.3090   -2.2830 hc        1 FPM      0.035700
     31 H216       -3.5570   -1.4460   -0.4830 hc        1 FPM      0.035700
     32 H117       -3.7130    1.0280   -2.0120 h1        1 FPM      0.031200
     33 H217       -3.3650    0.8760   -0.2220 h1        1 FPM      0.031200
@<TRIPOS>BOND
     1    1    6 2   
     2    1    7 1   
     3    1   13 1   
     4    2    3 1   
     5    2    4 1   
     6    2   10 1   
     7    2   20 1   
     8    3    5 1   
     9    3    7 1   
    10    3   21 1   
    11    4    5 1   
    12    4    9 2   
    13    5    6 1   
    14    6    8 1   
    15    8   18 1   
    16    8   19 1   
    17   10   11 1   
    18   10   12 1   
    19   10   22 1   
    20   11   23 1   
    21   12   24 1   
    22   12   25 1   
    23   12   26 1   
    24   13   14 1   
    25   13   17 1   
    26   13   27 1   
    27   14   15 1   
    28   14   28 1   
    29   14   29 1   
    30   15   16 1   
    31   15   30 1   
    32   15   31 1   
    33   16   17 1   
    34   16   32 1   
    35   16   33 1   
@<TRIPOS>SUBSTRUCTURE
     1 FPM         1 TEMP              0 ****  ****    0 ROOT
