@<TRIPOS>MOLECULE
FPM
   33    35     1     0     0
SMALL
bcc


@<TRIPOS>ATOM
      1 C2          0.0450    0.0790   -0.1710 c2        1 FPM     -0.085600
      2 C6          1.6130    1.3490    2.8170 cy        1 FPM     -0.182700
      3 C5          0.9670    0.0860    2.1920 cy        1 FPM      0.095800
      4 C7          2.6490    1.2600    1.6620 c         1 FPM      0.700500
      5 N4          2.0140    0.0810    1.1140 n         1 FPM     -0.284000
      6 C3          1.4080    0.0680   -0.1720 ce        1 FPM     -0.052600
      7 S1         -0.6480    0.1770    1.4260 ss        1 FPM     -0.308700
      8 C31         2.2850   -0.0020   -1.4440 c         1 FPM      0.940800
      9 O7          3.6690    1.8810    1.4170 o         1 FPM     -0.522500
     10 C61         2.1990    1.1760    4.2020 c3        1 FPM      0.154100
     11 O62         1.1030    1.0870    5.1110 oh        1 FPM     -0.600800
     12 C62         3.1050    2.3410    4.5620 c3        1 FPM     -0.138100
     13 C14        -0.7850   -0.0480   -1.3940 c3        1 FPM      0.213300
     14 C15        -1.5770   -1.3660   -1.4360 c3        1 FPM     -0.097400
     15 C16        -3.0470   -0.9740   -1.3810 c3        1 FPM     -0.107400
     16 C17        -3.0570    0.5470   -1.2620 c3        1 FPM      0.126400
     17 O18        -1.7370    1.0280   -1.5070 os        1 FPM     -0.418600
     18 O32         3.1990    0.8470   -1.5620 o         1 FPM     -0.793800
     19 O31         1.9810   -0.8970   -2.2750 o         1 FPM     -0.793800
     20 H6          0.9700    2.2570    2.7600 hc        1 FPM      0.106700
     21 H5          1.0220   -0.8140    2.8440 h2        1 FPM      0.094700
     22 H61         2.7830    0.2110    4.2480 h1        1 FPM      0.040700
     23 HO62        1.4860    1.0690    5.9950 ho        1 FPM      0.391000
     24 H162        3.8730    2.4830    3.7620 hc        1 FPM      0.048033
     25 H262        3.6200    2.1430    5.5320 hc        1 FPM      0.048033
     26 H362        2.5080    3.2790    4.6600 hc        1 FPM      0.048033
     27 H14        -0.1140    0.0520   -2.2990 h1        1 FPM      0.124700
     28 H115       -1.2990   -2.0230   -0.5770 hc        1 FPM      0.059700
     29 H215       -1.3390   -1.9160   -2.3780 hc        1 FPM      0.059700
     30 H116       -3.5830   -1.3020   -2.3050 hc        1 FPM      0.035700
     31 H216       -3.5600   -1.4430   -0.5060 hc        1 FPM      0.035700
     32 H117       -3.3690    0.8790   -0.2380 h1        1 FPM      0.031200
     33 H217       -3.7120    1.0350   -2.0290 h1        1 FPM      0.031200
@<TRIPOS>BOND
     1    1    6 2   
     2    1    7 1   
     3    1   13 1   
     4    2    3 1   
     5    2    4 1   
     6    2   10 1   
     7    2   20 1   
     8    3    5 1   
     9    3    7 1   
    10    3   21 1   
    11    4    5 1   
    12    4    9 2   
    13    5    6 1   
    14    6    8 1   
    15    8   18 1   
    16    8   19 1   
    17   10   11 1   
    18   10   12 1   
    19   10   22 1   
    20   11   23 1   
    21   12   24 1   
    22   12   25 1   
    23   12   26 1   
    24   13   14 1   
    25   13   17 1   
    26   13   27 1   
    27   14   15 1   
    28   14   28 1   
    29   14   29 1   
    30   15   16 1   
    31   15   30 1   
    32   15   31 1   
    33   16   17 1   
    34   16   32 1   
    35   16   33 1   
@<TRIPOS>SUBSTRUCTURE
     1 FPM         1 TEMP              0 ****  ****    0 ROOT
