@<TRIPOS>MOLECULE
FPM
   33    35     1     0     0
SMALL
bcc


@<TRIPOS>ATOM
      1 C2         -1.2070   -0.0520    0.0560 c2        1 FPM     -0.085600
      2 C6          2.3050    0.6010   -0.4350 cy        1 FPM     -0.182700
      3 C5          1.1470    0.7300    0.5870 cy        1 FPM      0.095800
      4 C7          2.0470   -0.9300   -0.3740 c         1 FPM      0.700500
      5 N4          0.9720   -0.7630    0.5820 n         1 FPM     -0.284000
      6 C3         -0.3750   -1.1080    0.2840 ce        1 FPM     -0.052600
      7 S1         -0.4010    1.4940    0.1140 ss        1 FPM     -0.309700
      8 C31        -0.8150   -2.5910    0.2820 c         1 FPM      0.940800
      9 O7          2.6290   -1.8870   -0.8550 o         1 FPM     -0.522500
     10 C61         3.6720    1.0270    0.0560 c3        1 FPM      0.154100
     11 O62         3.6670    2.4530    0.1180 oh        1 FPM     -0.600800
     12 C62         4.7670    0.5320   -0.8740 c3        1 FPM     -0.138100
     13 C14        -2.6690   -0.1810   -0.1560 c3        1 FPM      0.213300
     14 C15        -3.4880    0.4310    0.9920 c3        1 FPM     -0.097400
     15 C16        -4.2570    1.5960    0.3850 c3        1 FPM     -0.107400
     16 C17        -3.8250    1.6480   -1.0780 c3        1 FPM      0.126400
     17 O18        -3.0910    0.4620   -1.3750 os        1 FPM     -0.418600
     18 O32        -0.1490   -3.3890   -0.4180 o         1 FPM     -0.793800
     19 O31        -1.8350   -2.8630    0.9670 o         1 FPM     -0.793800
     20 H6          2.0760    1.0450   -1.4310 hc        1 FPM      0.106700
     21 H5          1.4680    1.1170    1.5800 h2        1 FPM      0.094700
     22 H61         3.8440    0.6240    1.0960 h1        1 FPM      0.040700
     23 HO62        4.5670    2.7170    0.3430 ho        1 FPM      0.391000
     24 H162        5.7710    0.7510   -0.4390 hc        1 FPM      0.048033
     25 H262        4.6650   -0.5710   -1.0220 hc        1 FPM      0.048033
     26 H362        4.6900    1.0380   -1.8650 hc        1 FPM      0.048033
     27 H14        -2.9190   -1.2760   -0.2960 h1        1 FPM      0.125700
     28 H115       -4.1810   -0.3390    1.4100 hc        1 FPM      0.059700
     29 H215       -2.8190    0.7730    1.8190 hc        1 FPM      0.059700
     30 H116       -5.3590    1.4330    0.4650 hc        1 FPM      0.035700
     31 H216       -4.0160    2.5560    0.9030 hc        1 FPM      0.035700
     32 H117       -4.6930    1.6610   -1.7840 h1        1 FPM      0.031200
     33 H217       -3.1640    2.5310   -1.2810 h1        1 FPM      0.031200
@<TRIPOS>BOND
     1    1    6 2   
     2    1    7 1   
     3    1   13 1   
     4    2    3 1   
     5    2    4 1   
     6    2   10 1   
     7    2   20 1   
     8    3    5 1   
     9    3    7 1   
    10    3   21 1   
    11    4    5 1   
    12    4    9 2   
    13    5    6 1   
    14    6    8 1   
    15    8   18 1   
    16    8   19 1   
    17   10   11 1   
    18   10   12 1   
    19   10   22 1   
    20   11   23 1   
    21   12   24 1   
    22   12   25 1   
    23   12   26 1   
    24   13   14 1   
    25   13   17 1   
    26   13   27 1   
    27   14   15 1   
    28   14   28 1   
    29   14   29 1   
    30   15   16 1   
    31   15   30 1   
    32   15   31 1   
    33   16   17 1   
    34   16   32 1   
    35   16   33 1   
@<TRIPOS>SUBSTRUCTURE
     1 FPM         1 TEMP              0 ****  ****    0 ROOT
