@<TRIPOS>MOLECULE
FPN
   13    13     1     0     0
SMALL
bcc


@<TRIPOS>ATOM
      1 C1          0.0900   -0.1440   -0.0440 ca        1 FPN      0.111100
      2 C2          1.4920   -0.0450   -0.0090 ca        1 FPN     -0.161500
      3 C3          2.1380    0.0510    1.2160 ca        1 FPN     -0.128500
      4 C4          1.3870    0.0480    2.4080 ca        1 FPN      0.087900
      5 C5         -0.0150   -0.0520    2.3660 ca        1 FPN     -0.128500
      6 C6         -0.6620   -0.1480    1.1390 ca        1 FPN     -0.161500
      7 O1         -0.4840   -0.2360   -1.2910 oh        1 FPN     -0.495100
      8 F1          2.0220    0.1410    3.6030 f         1 FPN     -0.141900
      9 H2          2.0590   -0.0440   -0.9510 ha        1 FPN      0.147500
     10 H3          3.2340    0.1300    1.2650 ha        1 FPN      0.151000
     11 H5         -0.5890   -0.0530    3.3040 ha        1 FPN      0.151000
     12 H6         -1.7580   -0.2260    1.1000 ha        1 FPN      0.147500
     13 HO1        -1.4440   -0.2980   -1.1740 ho        1 FPN      0.420000
@<TRIPOS>BOND
     1    1    2 ar  
     2    1    6 ar  
     3    1    7 1   
     4    2    3 ar  
     5    2    9 1   
     6    3    4 ar  
     7    3   10 1   
     8    4    5 ar  
     9    4    8 1   
    10    5    6 ar  
    11    5   11 1   
    12    6   12 1   
    13    7   13 1   
@<TRIPOS>SUBSTRUCTURE
     1 FPN         1 TEMP              0 ****  ****    0 ROOT
