@<TRIPOS>MOLECULE
FPN
   13    13     1     0     0
SMALL
bcc


@<TRIPOS>ATOM
      1 C1          1.4190   -0.1070    0.1310 ca        1 FPN      0.111100
      2 C2          0.7770    1.1380    0.1700 ca        1 FPN     -0.161500
      3 C3         -0.6090    1.2000    0.0790 ca        1 FPN     -0.128500
      4 C4         -1.3520    0.0140   -0.0500 ca        1 FPN      0.087900
      5 C5         -0.7010   -1.2350   -0.0880 ca        1 FPN     -0.128500
      6 C6          0.6820   -1.2970    0.0020 ca        1 FPN     -0.161500
      7 O1          2.7860   -0.2420    0.2160 oh        1 FPN     -0.495100
      8 F1         -2.7040    0.0710   -0.1380 f         1 FPN     -0.141900
      9 H2          1.3640    2.0620    0.2710 ha        1 FPN      0.147500
     10 H3         -1.1290    2.1690    0.1080 ha        1 FPN      0.151000
     11 H5         -1.2970   -2.1540   -0.1890 ha        1 FPN      0.151000
     12 H6          1.2100   -2.2610   -0.0250 ha        1 FPN      0.147500
     13 HO1         3.1690    0.6430    0.3000 ho        1 FPN      0.420000
@<TRIPOS>BOND
     1    1    2 ar  
     2    1    6 ar  
     3    1    7 1   
     4    2    3 ar  
     5    2    9 1   
     6    3    4 ar  
     7    3   10 1   
     8    4    5 ar  
     9    4    8 1   
    10    5    6 ar  
    11    5   11 1   
    12    6   12 1   
    13    7   13 1   
@<TRIPOS>SUBSTRUCTURE
     1 FPN         1 TEMP              0 ****  ****    0 ROOT
