@<TRIPOS>MOLECULE
FPO
    5     4     1     0     0
SMALL
bcc


@<TRIPOS>ATOM
      1 P           0.1640   -0.0000    0.0000 p5        1 FPO      1.355900
      2 O1          0.4940   -1.4790   -0.0010 o         1 FPO     -0.970500
      3 O2          0.4940    0.7380    1.2820 o         1 FPO     -0.970500
      4 O3          0.4940    0.7410   -1.2800 o         1 FPO     -0.970500
      5 F          -1.4090    0.0000   -0.0000 f         1 FPO     -0.444400
@<TRIPOS>BOND
     1    1    2 1   
     2    1    3 1   
     3    1    4 1   
     4    1    5 1   
@<TRIPOS>SUBSTRUCTURE
     1 FPO         1 TEMP              0 ****  ****    0 ROOT
