@<TRIPOS>MOLECULE
FPO
    5     3     1     0     0
SMALL
bcc


@<TRIPOS>ATOM
      1 P           0.0110    0.0010    0.0000 p4        1 FPO      1.724200
      2 O1          0.6260   -1.3730   -0.1180 o         1 FPO     -0.970500
      3 O2          0.4520    0.6400    1.2950 os        1 FPO     -1.290000
      4 O3          0.4600    0.8550   -1.1610 o         1 FPO     -1.019300
      5 F          -1.5490   -0.1230   -0.0160 f         1 FPO     -0.444400
@<TRIPOS>BOND
     1    1    2 1   
     2    1    4 2   
     3    1    5 1   
@<TRIPOS>SUBSTRUCTURE
     1 FPO         1 TEMP              0 ****  ****    0 ROOT
