@<TRIPOS>MOLECULE
FPP
   49    49     1     0     0
SMALL
bcc


@<TRIPOS>ATOM
      1 C1          0.0000    0.0000    0.0000 c3        1 FPP      0.109000
      2 O1          1.4290    0.0000    0.0000 os        1 FPP     -0.639000
      3 C2         -0.5020    0.0000    1.4210 c2        1 FPP     -0.095000
      4 C3         -1.4840    0.7940    1.7680 c2        1 FPP     -0.243000
      5 C4         -2.1860    1.6240    0.7250 c3        1 FPP     -0.049000
      6 C5         -1.9090    0.8780    3.2110 c3        1 FPP     -0.031000
      7 C6         -1.1100    1.9770    3.9150 c3        1 FPP     -0.077000
      8 C7         -1.5370    2.0620    5.3580 c2        1 FPP     -0.189000
      9 C8         -0.6430    1.9740    6.3110 c2        1 FPP     -0.148000
     10 C10         0.8220    1.9160    5.9660 c3        1 FPP     -0.067000
     11 C9         -1.0810    1.9300    7.7530 c3        1 FPP     -0.035000
     12 C11        -1.3010    0.4770    8.1750 DU        1 FPP     -0.062000
     13 C12        -1.7380    0.4330    9.6160 c2        1 FPP     -0.570000
     14 C13        -2.8420   -0.1890    9.9470 c2        1 FPP     -0.220000
     15 C14        -3.3470   -0.1260   11.3660 c3        1 FPP     -0.049000
     16 C15        -3.6060   -0.9700    8.9100 c3        1 FPP     -0.049000
     17 PA          1.8940   -0.0000   -1.5410 p5        1 FPP      1.345000
     18 O1A         1.3690   -1.2090   -2.2150 o         1 FPP     -0.673500
     19 O2A         1.3230    1.3130   -2.2740 o         1 FPP     -0.673500
     20 O3A         3.5030    0.0000   -1.6160 os        1 FPP     -0.932000
     21 PB          3.8960   -0.0010   -3.1770 p5        1 FPP      1.029500
     22 O1B         3.3390    1.2070   -3.8260 o         1 FPP     -0.606833
     23 O2B         5.4980   -0.0010   -3.3270 o         1 FPP     -0.606833
     24 O3B         3.2910   -1.3150   -3.8830 o         1 FPP     -0.606833
     25 H11        -0.3610   -0.8850   -0.5110 h1        1 FPP      0.055500
     26 H12A       -0.3610    0.8840   -0.5110 h1        1 FPP      0.055500
     27 H2          0.0020   -0.5960    2.1720 ha        1 FPP      0.086000
     28 H41        -1.5100    2.3830    0.3520 hc        1 FPP      0.038667
     29 H42        -2.5000    0.9860   -0.0930 hc        1 FPP      0.038667
     30 H43        -3.0540    2.0980    1.1670 hc        1 FPP      0.038667
     31 H51        -2.9660    1.1110    3.2620 hc        1 FPP      0.036500
     32 H52        -1.7240   -0.0710    3.6980 hc        1 FPP      0.036500
     33 H61        -0.0540    1.7440    3.8640 hc        1 FPP      0.064500
     34 H62        -1.2950    2.9270    3.4270 hc        1 FPP      0.064500
     35 H7         -2.5910    2.1030    5.6080 ha        1 FPP      0.096000
     36 H101        1.4100    1.9980    6.8720 hc        1 FPP      0.044667
     37 H102        1.0410    0.9750    5.4770 hc        1 FPP      0.044667
     38 H103        1.0690    2.7350    5.3010 hc        1 FPP      0.044667
     39 H91        -0.3150    2.3750    8.3760 hc        1 FPP      0.048500
     40 H92        -2.0050    2.4830    7.8670 hc        1 FPP      0.048500
     41 H111       -0.3760   -0.0760    8.0610 ha        1 FPP      0.021000
     42 H112       -2.0670    0.0320    7.5520 ha        1 FPP      0.021000
     43 H12        -1.1940   -0.3850    9.1590 DU        1 FPP      0.161000
     44 H141       -3.2520   -1.1020   11.8270 hc        1 FPP      0.015500
     45 H142       -2.7630    0.5950   11.9250 hc        1 FPP      0.015500
     46 H143       -4.3880    0.1740   11.3670 hc        1 FPP      0.015500
     47 H151       -4.0280   -0.2870    8.1830 hc        1 FPP      0.015500
     48 H152       -4.4030   -1.5240    9.3910 hc        1 FPP      0.015500
     49 H153       -2.9360   -1.6590    8.4110 hc        1 FPP      0.015500
@<TRIPOS>BOND
     1    1    2 1   
     2    1    3 1   
     3    1   25 1   
     4    1   26 1   
     5    2   17 1   
     6    3    4 1   
     7    3   27 1   
     8    4    5 1   
     9    4    6 1   
    10    5   28 1   
    11    5   29 1   
    12    5   30 1   
    13    6    7 1   
    14    6   31 1   
    15    6   32 1   
    16    7    8 1   
    17    7   33 1   
    18    7   34 1   
    19    8    9 1   
    20    8   35 1   
    21    9   10 1   
    22    9   11 1   
    23   10   36 1   
    24   10   37 1   
    25   10   38 1   
    26   11   12 1   
    27   11   39 1   
    28   11   40 1   
    29   12   13 1   
    30   12   41 1   
    31   12   42 1   
    32   12   43 1   
    33   13   14 1   
    34   13   43 1   
    35   14   15 1   
    36   14   16 1   
    37   15   44 1   
    38   15   45 1   
    39   15   46 1   
    40   16   47 1   
    41   16   48 1   
    42   16   49 1   
    43   17   18 1   
    44   17   19 1   
    45   17   20 1   
    46   20   21 1   
    47   21   22 1   
    48   21   23 1   
    49   21   24 1   
@<TRIPOS>SUBSTRUCTURE
     1 FPP         1 TEMP              0 ****  ****    0 ROOT
