@<TRIPOS>MOLECULE
FPQ
   54    49     1     0     0
SMALL
bcc


@<TRIPOS>ATOM
      1 P          -7.0660    6.2970   -3.2350 p3        1 FPQ      2.520000
      2 C1         -2.7840    2.9720   -0.4260 c3        1 FPQ     -0.028000
      3 C2         -2.1960    1.6150   -0.7450 c2        1 FPQ     -0.047000
      4 C3         -1.6590    0.8650    0.2380 c1        1 FPQ     -0.246000
      5 C4         -1.6460    1.3800    1.6600 c2        1 FPQ     -0.165000
      6 C5         -1.0710   -0.4910   -0.0820 c3        1 FPQ     -0.092000
      7 C6          0.4340   -0.4360    0.0660 c3        1 FPQ     -0.146000
      8 C7          0.9920   -1.8420    0.0800 c2        1 FPQ     -0.116000
      9 C8          2.3100   -2.0460   -0.1120 c1        1 FPQ     -0.175000
     10 C9          3.2320   -0.8680   -0.3420 c2        1 FPQ     -0.165000
     11 CX         -5.3200    4.7180   -2.2030 c3        1 FPQ      0.074000
     12 OX         -5.8190    6.0320   -2.3010 o         1 FPQ     -0.752000
     13 CY         -4.0580    4.7190   -1.3690 c3        1 FPQ     -0.045000
     14 OY         -3.3500    3.5240   -1.5910 os        1 FPQ     -0.274000
     15 CZ         -3.1950    5.8970   -1.7610 c2        1 FPQ      0.308000
     16 C10         2.8680   -3.4520   -0.0980 c3        1 FPQ     -0.108000
     17 C11         3.6240   -3.6820    1.1920 c3        1 FPQ     -0.135000
     18 C12         4.6320   -4.7930    0.9950 c2        1 FPQ     -0.144000
     19 C13         5.1610   -5.4200    2.0640 c1        1 FPQ     -0.148000
     20 C14         4.7470   -5.0130    3.4610 c2        1 FPQ     -0.165000
     21 C15         6.1680   -6.5310    1.8670 c3        1 FPQ     -0.169000
     22 O1P        -7.4470    7.7570   -3.1640 o         1 FPQ     -1.267667
     23 O1Z        -2.4930    5.8430   -2.8050 o         1 FPQ     -0.625000
     24 O2P        -8.2280    5.4510   -2.7750 o         1 FPQ     -1.267667
     25 O2Z        -3.1830    6.9330   -1.0470 o         1 FPQ     -0.625000
     26 O3P        -6.7130    5.9370   -4.6590 o         1 FPQ     -1.267667
     27 H1         -2.0780    3.5640   -0.0930 h1        1 FPQ      0.100500
     28 H1A        -3.4780    2.8740    0.2590 h1        1 FPQ      0.100500
     29 H2         -2.2040    1.2830   -1.6630 ha        1 FPQ      0.134000
     30 H4         -1.2620    0.6980    2.2510 ha        1 FPQ      0.070333
     31 H4A        -2.5620    1.5790    1.9440 ha        1 FPQ      0.070333
     32 H4B        -1.1040    2.1950    1.7080 ha        1 FPQ      0.070333
     33 H5         -1.2990   -0.7380   -1.0000 hc        1 FPQ      0.063000
     34 H5A        -1.4340   -1.1580    0.5350 hc        1 FPQ      0.063000
     35 H6          0.8170    0.0600   -0.6860 hc        1 FPQ      0.101500
     36 H6A         0.6630    0.0140    0.9040 hc        1 FPQ      0.101500
     37 H7          0.3970   -2.6010    0.2280 ha        1 FPQ      0.114000
     38 H9          2.9280   -0.3630   -1.1250 ha        1 FPQ      0.070333
     39 H9A         4.1440   -1.1930   -0.4960 ha        1 FPQ      0.070333
     40 H9B         3.2210   -0.2860    0.4470 ha        1 FPQ      0.070333
     41 HX         -5.9920    4.1450   -1.7790 h1        1 FPQ      0.059000
     42 HXA        -5.1190    4.3780   -3.1000 h1        1 FPQ      0.059000
     43 HY         -4.2930    4.7870   -0.4230 h1        1 FPQ      0.078000
     44 H10         2.1330   -4.0950   -0.1650 hc        1 FPQ      0.075500
     45 H10A        3.4740   -3.5700   -0.8570 hc        1 FPQ      0.075500
     46 H11         4.0890   -2.8610    1.4480 hc        1 FPQ      0.092000
     47 H11A        2.9950   -3.9330    1.8980 hc        1 FPQ      0.092000
     48 H12         4.8990   -5.0550    0.0940 ha        1 FPQ      0.119000
     49 H14         5.3240   -5.4590    4.1160 ha        1 FPQ      0.070333
     50 H14A        4.8320   -4.0420    3.5580 ha        1 FPQ      0.070333
     51 H14B        3.8150   -5.2760    3.6150 ha        1 FPQ      0.070333
     52 H15         6.3900   -6.9290    2.7350 hc        1 FPQ      0.070000
     53 H15A        5.7870   -7.2170    1.2800 hc        1 FPQ      0.070000
     54 H15B        6.9810   -6.1660    1.4580 hc        1 FPQ      0.070000
@<TRIPOS>BOND
     1    1   22 1   
     2    1   24 1   
     3    1   26 1   
     4    2    3 1   
     5    2   14 1   
     6    2   27 1   
     7    2   28 1   
     8    3    4 1   
     9    3   29 1   
    10    4    6 1   
    11    5   30 1   
    12    5   31 1   
    13    5   32 1   
    14    6    7 1   
    15    6   33 1   
    16    6   34 1   
    17    7    8 1   
    18    7   35 1   
    19    7   36 1   
    20    8    9 1   
    21    8   37 1   
    22    9   16 1   
    23   10   38 1   
    24   10   39 1   
    25   10   40 1   
    26   11   12 1   
    27   11   13 1   
    28   11   41 1   
    29   11   42 1   
    30   13   14 1   
    31   13   15 1   
    32   13   43 1   
    33   15   23 1   
    34   15   25 1   
    35   16   17 1   
    36   16   44 1   
    37   16   45 1   
    38   17   18 1   
    39   17   46 1   
    40   17   47 1   
    41   18   19 1   
    42   18   48 1   
    43   19   21 1   
    44   20   49 1   
    45   20   50 1   
    46   20   51 1   
    47   21   52 1   
    48   21   53 1   
    49   21   54 1   
@<TRIPOS>SUBSTRUCTURE
     1 FPQ         1 TEMP              0 ****  ****    0 ROOT
