@<TRIPOS>MOLECULE
FPQ
   54    53     1     0     0
SMALL
bcc


@<TRIPOS>ATOM
      1 P           0.6670    1.2050   -1.4430 p5        1 FPQ      1.324900
      2 C1          5.5020   -1.4660   -0.2890 c3        1 FPQ      0.142600
      3 C2          5.5900   -1.2390   -1.7620 c2        1 FPQ     -0.110200
      4 C3          6.2860   -2.0130   -2.6110 c2        1 FPQ     -0.219400
      5 C4          6.3320   -1.7230   -4.0650 c3        1 FPQ     -0.028900
      6 C5          7.0060   -3.2450   -2.1810 c3        1 FPQ     -0.005200
      7 C6          6.0470   -4.4150   -2.0420 c3        1 FPQ     -0.090200
      8 C7          6.7300   -5.6480   -1.5940 c2        1 FPQ     -0.144200
      9 C8          6.0820   -6.7060   -1.0760 c2        1 FPQ     -0.151400
     10 C9          4.6110   -6.7210   -0.9090 c3        1 FPQ     -0.085900
     11 CX          1.9950   -0.4960    0.1160 c3        1 FPQ      0.236400
     12 OX          2.1130    0.5420   -0.7800 os        1 FPQ     -0.585200
     13 CY          3.1270   -1.5240   -0.1020 c3        1 FPQ      0.018100
     14 OY          4.3560   -0.8560    0.2680 os        1 FPQ     -0.400600
     15 CZ          3.0480   -2.8420    0.6940 c         1 FPQ      0.895600
     16 C10         6.8220   -7.9180   -0.6200 c3        1 FPQ     -0.021200
     17 C11         6.8630   -7.9920    0.8960 c3        1 FPQ     -0.061200
     18 C12         7.5450   -9.2110    1.3870 c2        1 FPQ     -0.141200
     19 C13         7.7500   -9.4730    2.6880 c2        1 FPQ     -0.168400
     20 C14         7.3050   -8.5440    3.7540 c3        1 FPQ     -0.047900
     21 C15         8.4350  -10.7070    3.1430 c3        1 FPQ     -0.047900
     22 O1P         0.1810    2.1510   -0.3720 o         1 FPQ     -0.947167
     23 O1Z         2.4140   -2.9500    1.7810 o         1 FPQ     -0.892800
     24 O2P         1.1850    1.8770   -2.6930 o         1 FPQ     -0.947167
     25 O2Z         3.6990   -3.8440    0.2260 o         1 FPQ     -0.892800
     26 O3P        -0.2190    0.0070   -1.6780 o         1 FPQ     -0.947167
     27 H1          6.3720   -0.9560    0.2120 h1        1 FPQ      0.039200
     28 H1A         5.5140   -2.5640   -0.0420 h1        1 FPQ      0.039200
     29 H2          4.9940   -0.3760   -2.1190 ha        1 FPQ      0.171000
     30 H4          5.6800   -0.8540   -4.3260 hc        1 FPQ      0.016033
     31 H4A         5.9830   -2.6130   -4.6460 hc        1 FPQ      0.016033
     32 H4B         7.3800   -1.4920   -4.3860 hc        1 FPQ      0.016033
     33 H5          7.8110   -3.4990   -2.9230 hc        1 FPQ      0.007200
     34 H5A         7.5120   -3.0650   -1.1950 hc        1 FPQ      0.007200
     35 H6          5.5450   -4.6070   -3.0290 hc        1 FPQ      0.102200
     36 H6A         5.2160   -4.1380   -1.3120 hc        1 FPQ      0.102200
     37 H7          7.8280   -5.6600   -1.6900 ha        1 FPQ      0.081000
     38 H9          4.2710   -5.8360   -0.2890 hc        1 FPQ      0.063700
     39 H9A         4.1090   -6.6320   -1.9050 hc        1 FPQ      0.063700
     40 H9B         4.2640   -7.6620   -0.4190 hc        1 FPQ      0.063700
     41 HX          1.0120   -1.0300   -0.0160 h1        1 FPQ      0.010700
     42 HXA         2.0850   -0.1260    1.1790 h1        1 FPQ      0.010700
     43 HY          3.1700   -1.7770   -1.1980 h1        1 FPQ      0.031700
     44 H10         7.8720   -7.9150   -1.0180 hc        1 FPQ      0.016700
     45 H10A        6.3170   -8.8370   -1.0240 hc        1 FPQ      0.016700
     46 H11         7.3810   -7.0790    1.3000 hc        1 FPQ      0.072200
     47 H11A        5.8110   -7.9580    1.2970 hc        1 FPQ      0.072200
     48 H12         7.8870   -9.9200    0.6150 ha        1 FPQ      0.104000
     49 H14         6.2120   -8.3230    3.6480 hc        1 FPQ      0.032533
     50 H14A        7.8530   -7.5710    3.6730 hc        1 FPQ      0.032533
     51 H14B        7.4870   -8.9700    4.7700 hc        1 FPQ      0.032533
     52 H15         8.7550  -11.3420    2.2810 hc        1 FPQ      0.032533
     53 H15A        7.7510  -11.3110    3.7900 hc        1 FPQ      0.032533
     54 H15B        9.3410  -10.4460    3.7450 hc        1 FPQ      0.032533
@<TRIPOS>BOND
     1    1   12 1   
     2    1   22 1   
     3    1   24 1   
     4    1   26 1   
     5    2    3 1   
     6    2   14 1   
     7    2   27 1   
     8    2   28 1   
     9    3    4 2   
    10    3   29 1   
    11    4    5 1   
    12    4    6 1   
    13    5   30 1   
    14    5   31 1   
    15    5   32 1   
    16    6    7 1   
    17    6   33 1   
    18    6   34 1   
    19    7    8 1   
    20    7   35 1   
    21    7   36 1   
    22    8    9 2   
    23    8   37 1   
    24    9   10 1   
    25    9   16 1   
    26   10   38 1   
    27   10   39 1   
    28   10   40 1   
    29   11   12 1   
    30   11   13 1   
    31   11   41 1   
    32   11   42 1   
    33   13   14 1   
    34   13   15 1   
    35   13   43 1   
    36   15   23 1   
    37   15   25 1   
    38   16   17 1   
    39   16   44 1   
    40   16   45 1   
    41   17   18 1   
    42   17   46 1   
    43   17   47 1   
    44   18   19 2   
    45   18   48 1   
    46   19   20 1   
    47   19   21 1   
    48   20   49 1   
    49   20   50 1   
    50   20   51 1   
    51   21   52 1   
    52   21   53 1   
    53   21   54 1   
@<TRIPOS>SUBSTRUCTURE
     1 FPQ         1 TEMP              0 ****  ****    0 ROOT
