@<TRIPOS>MOLECULE
FPQ
   54    53     1     0     0
SMALL
bcc


@<TRIPOS>ATOM
      1 P           5.6470   -0.1910   -1.2680 p5        1 FPQ      1.324900
      2 C1          0.7870   -1.1780    1.4220 c3        1 FPQ      0.142600
      3 C2          1.0330   -2.4600    0.6970 c2        1 FPQ     -0.110200
      4 C3          0.0700   -3.3070    0.2990 c2        1 FPQ     -0.219400
      5 C4          0.3900   -4.5670   -0.4140 c3        1 FPQ     -0.028900
      6 C5         -1.3830   -3.0250    0.4800 c3        1 FPQ     -0.005200
      7 C6         -1.8930   -2.0810   -0.5960 c3        1 FPQ     -0.090200
      8 C7         -3.3280   -1.7660   -0.4290 c2        1 FPQ     -0.144200
      9 C8         -3.9290   -0.7190   -1.0210 c2        1 FPQ     -0.151400
     10 C9         -3.1900    0.2170   -1.9000 c3        1 FPQ     -0.085900
     11 CX          3.4050    0.7870   -0.2180 c3        1 FPQ      0.236400
     12 OX          4.2880   -0.2690   -0.2110 os        1 FPQ     -0.585200
     13 CY          1.9560    0.2750   -0.0620 c3        1 FPQ      0.018100
     14 OY          1.8630   -0.2760    1.2730 os        1 FPQ     -0.400600
     15 CZ          0.8200    1.3040   -0.2270 c         1 FPQ      0.895600
     16 C10        -5.3760   -0.4340   -0.8030 c3        1 FPQ     -0.021200
     17 C11        -5.5640    0.7700    0.1030 c3        1 FPQ     -0.061200
     18 C12        -6.9890    1.1150    0.3010 c2        1 FPQ     -0.141200
     19 C13        -7.4070    2.1060    1.1070 c2        1 FPQ     -0.168400
     20 C14        -6.4570    2.9430    1.8770 c3        1 FPQ     -0.047900
     21 C15        -8.8440    2.4250    1.2780 c3        1 FPQ     -0.047900
     22 O1P         6.6340    0.6740   -0.5220 o         1 FPQ     -0.947167
     23 O1Z         0.9840    2.5420   -0.0430 o         1 FPQ     -0.892800
     24 O2P         6.0350   -1.6460   -1.3740 o         1 FPQ     -0.947167
     25 O2Z        -0.3400    0.8460   -0.5280 o         1 FPQ     -0.892800
     26 O3P         5.1000    0.4230   -2.5340 o         1 FPQ     -0.947167
     27 H1         -0.1730   -0.6940    1.0850 h1        1 FPQ      0.039200
     28 H1A         0.7370   -1.3880    2.5280 h1        1 FPQ      0.039200
     29 H2          2.1020   -2.6510    0.4770 ha        1 FPQ      0.172000
     30 H4          0.0650   -5.4530    0.1890 hc        1 FPQ      0.016033
     31 H4A        -0.1480   -4.6030   -1.3940 hc        1 FPQ      0.016033
     32 H4B         1.4870   -4.6530   -0.6110 hc        1 FPQ      0.016033
     33 H5         -1.9670   -3.9850    0.4520 hc        1 FPQ      0.007200
     34 H5A        -1.5580   -2.5620    1.4880 hc        1 FPQ      0.007200
     35 H6         -1.2750   -1.1230   -0.5820 hc        1 FPQ      0.102200
     36 H6A        -1.7290   -2.5430   -1.6070 hc        1 FPQ      0.102200
     37 H7         -3.9010   -2.4360    0.2330 ha        1 FPQ      0.081000
     38 H9         -2.7880   -0.3280   -2.7910 hc        1 FPQ      0.063700
     39 H9A        -3.8460    1.0470   -2.2570 hc        1 FPQ      0.063700
     40 H9B        -2.3010    0.6570   -1.3550 hc        1 FPQ      0.063700
     41 HX          3.6020    1.4860    0.6470 h1        1 FPQ      0.010700
     42 HXA         3.4680    1.3570   -1.1870 h1        1 FPQ      0.010700
     43 HY          1.7910   -0.5540   -0.8060 h1        1 FPQ      0.031700
     44 H10        -5.8700   -0.2350   -1.7920 hc        1 FPQ      0.016700
     45 H10A       -5.8910   -1.3220   -0.3490 hc        1 FPQ      0.016700
     46 H11        -5.0800    0.5660    1.0980 hc        1 FPQ      0.072200
     47 H11A       -5.0160    1.6510   -0.3360 hc        1 FPQ      0.072200
     48 H12        -7.7180    0.5080   -0.2590 ha        1 FPQ      0.104000
     49 H14        -5.6900    3.3920    1.1940 hc        1 FPQ      0.032533
     50 H14A       -6.9820    3.7680    2.4150 hc        1 FPQ      0.032533
     51 H14B       -5.9110    2.3170    2.6290 hc        1 FPQ      0.032533
     52 H15        -9.1340    2.3380    2.3550 hc        1 FPQ      0.032533
     53 H15A       -9.0470    3.4750    0.9480 hc        1 FPQ      0.032533
     54 H15B       -9.4940    1.7380    0.6820 hc        1 FPQ      0.032533
@<TRIPOS>BOND
     1    1   12 1   
     2    1   22 1   
     3    1   24 1   
     4    1   26 1   
     5    2    3 1   
     6    2   14 1   
     7    2   27 1   
     8    2   28 1   
     9    3    4 2   
    10    3   29 1   
    11    4    5 1   
    12    4    6 1   
    13    5   30 1   
    14    5   31 1   
    15    5   32 1   
    16    6    7 1   
    17    6   33 1   
    18    6   34 1   
    19    7    8 1   
    20    7   35 1   
    21    7   36 1   
    22    8    9 2   
    23    8   37 1   
    24    9   10 1   
    25    9   16 1   
    26   10   38 1   
    27   10   39 1   
    28   10   40 1   
    29   11   12 1   
    30   11   13 1   
    31   11   41 1   
    32   11   42 1   
    33   13   14 1   
    34   13   15 1   
    35   13   43 1   
    36   15   23 1   
    37   15   25 1   
    38   16   17 1   
    39   16   44 1   
    40   16   45 1   
    41   17   18 1   
    42   17   46 1   
    43   17   47 1   
    44   18   19 2   
    45   18   48 1   
    46   19   20 1   
    47   19   21 1   
    48   20   49 1   
    49   20   50 1   
    50   20   51 1   
    51   21   52 1   
    52   21   53 1   
    53   21   54 1   
@<TRIPOS>SUBSTRUCTURE
     1 FPQ         1 TEMP              0 ****  ****    0 ROOT
