@<TRIPOS>MOLECULE
FPR
   33    33     1     0     0
SMALL
bcc


@<TRIPOS>ATOM
      1 N           3.6180   -1.8070   -0.3020 n3        1 FPR     -0.905800
      2 C           1.3270   -0.8870   -0.3990 c         1 FPR      0.574100
      3 O           0.9880   -1.4390   -1.4520 o         1 FPR     -0.563100
      4 C5         -3.8090    1.1430   -0.4400 ca        1 FPR     -0.127500
      5 C6         -5.1170    1.1950   -0.9170 ca        1 FPR     -0.131500
      6 C7         -6.0870    0.3390   -0.3970 ca        1 FPR     -0.142000
      7 C8         -5.7440   -0.5720    0.6020 ca        1 FPR     -0.131500
      8 C9         -4.4360   -0.6260    1.0810 ca        1 FPR     -0.127500
      9 C11         0.3240   -0.3420    0.5830 c3        1 FPR     -0.190400
     10 OD2         5.5840    0.3190   -0.2390 o         1 FPR     -0.842800
     11 C21        -1.0910   -0.3600    0.0510 c3        1 FPR     -0.069400
     12 OD1         4.6760    2.1820    0.5970 o         1 FPR     -0.842800
     13 C31        -2.0620    0.1890    1.0800 c3        1 FPR     -0.042100
     14 C41        -3.4570    0.2320    0.5650 ca        1 FPR     -0.064300
     15 CA          2.7770   -0.6660    0.0150 c3        1 FPR      0.090500
     16 CB          3.2240    0.6750   -0.5820 c3        1 FPR     -0.233400
     17 CG          4.6010    1.0890   -0.0290 c         1 FPR      0.910600
     18 H           3.5690   -1.9890   -1.2880 hn        1 FPR      0.365300
     19 H2          4.5720   -1.5610   -0.0790 hn        1 FPR      0.365300
     20 H7         -7.1190    0.3800   -0.7750 ha        1 FPR      0.122000
     21 H8         -6.5050   -1.2500    1.0130 ha        1 FPR      0.123500
     22 H9         -4.1690   -1.3480    1.8670 ha        1 FPR      0.134000
     23 H11         0.3920   -0.9580    1.5190 hc        1 FPR      0.068200
     24 H11A        0.6260    0.7070    0.8480 hc        1 FPR      0.068200
     25 H21        -1.1460    0.2500   -0.8880 hc        1 FPR      0.053700
     26 H21A       -1.3740   -1.4100   -0.2250 hc        1 FPR      0.053700
     27 H31        -2.0130   -0.4420    2.0080 hc        1 FPR      0.046700
     28 H31A       -1.7460    1.2280    1.3700 hc        1 FPR      0.046700
     29 HA          2.8050   -0.5610    1.1430 h1        1 FPR      0.065700
     30 HB2         3.2950    0.5960   -1.6950 hc        1 FPR      0.034200
     31 HB3         2.4750    1.4660   -0.3280 hc        1 FPR      0.034200
     32 H5         -3.0420    1.8160   -0.8530 ha        1 FPR      0.134000
     33 H6         -5.3830    1.9120   -1.7070 ha        1 FPR      0.123500
@<TRIPOS>BOND
     1    1   15 1   
     2    1   18 1   
     3    1   19 1   
     4    2    3 2   
     5    2    9 1   
     6    2   15 1   
     7    4    5 ar  
     8    4   14 ar  
     9    4   32 1   
    10    5    6 ar  
    11    5   33 1   
    12    6    7 ar  
    13    6   20 1   
    14    7    8 ar  
    15    7   21 1   
    16    8   14 ar  
    17    8   22 1   
    18    9   11 1   
    19    9   23 1   
    20    9   24 1   
    21   10   17 1   
    22   11   13 1   
    23   11   25 1   
    24   11   26 1   
    25   12   17 1   
    26   13   14 1   
    27   13   27 1   
    28   13   28 1   
    29   15   16 1   
    30   15   29 1   
    31   16   17 1   
    32   16   30 1   
    33   16   31 1   
@<TRIPOS>SUBSTRUCTURE
     1 FPR         1 TEMP              0 ****  ****    0 ROOT
