@<TRIPOS>MOLECULE
FPR
   33    29     1     0     0
SMALL
bcc


@<TRIPOS>ATOM
      1 N          -2.8750   -1.3360   -2.0190 n3        1 FPR     -0.338000
      2 C          -1.5010    0.4880   -1.3020 c1        1 FPR      0.236000
      3 O          -2.1910    1.1190   -0.5300 o         1 FPR     -0.324000
      4 C5          2.2560   -1.2630    2.3540 c1        1 FPR     -0.126000
      5 C6          2.7880   -1.5820    3.5920 c1        1 FPR     -0.131000
      6 C7          3.1320   -0.5750    4.4790 c2        1 FPR     -0.142000
      7 C8          2.9450    0.7520    4.1270 c1        1 FPR     -0.132000
      8 C9          2.4140    1.0720    2.8880 c1        1 FPR     -0.128000
      9 C11        -0.0090    0.4170   -1.0960 c2        1 FPR     -0.219000
     10 OD2        -4.9830   -0.3820   -4.0940 o         1 FPR     -0.577500
     11 C21         0.3050    0.6020    0.3660 c3        1 FPR     -0.149000
     12 OD1        -3.2270   -0.2470   -5.3770 o         1 FPR     -0.577500
     13 C31         1.7940    0.4910    0.5780 c3        1 FPR     -0.127000
     14 C41         2.0690    0.0650    2.0010 c2        1 FPR     -0.057000
     15 CA         -2.1350   -0.2130   -2.4790 c3        1 FPR     -0.057000
     16 CB         -3.0620    0.7420   -3.1970 c3        1 FPR     -0.262000
     17 CG         -3.8010    0.0030   -4.2850 c2        1 FPR      0.330000
     18 H          -2.4620   -1.6940   -1.2860 hn        1 FPR      0.160500
     19 H2         -2.9190   -1.9640   -2.6810 hn        1 FPR      0.160500
     20 H5          2.0420   -1.9690    1.7200 DU        1 FPR      0.129500
     21 H6          2.9300   -2.5170    3.8360 DU        1 FPR      0.129500
     22 H7          3.5040   -0.7990    5.3520 ha        1 FPR      0.122000
     23 H8          3.1840    1.4600    4.7510 ha        1 FPR      0.124000
     24 H9          2.5140    2.0140    2.6360 ha        1 FPR      0.133000
     25 H11         0.3190   -0.4550   -1.3920 ha        1 FPR      0.108000
     26 H11A        0.4250    1.1220   -1.6140 ha        1 FPR      0.108000
     27 H21        -0.0010    1.4830    0.6560 hc        1 FPR      0.093000
     28 H21A       -0.1500   -0.0890    0.8870 hc        1 FPR      0.093000
     29 H31         2.2130    1.3590    0.4120 hc        1 FPR      0.086000
     30 H31A        2.1620   -0.1710   -0.0370 hc        1 FPR      0.086000
     31 HA         -1.4370   -0.5130   -3.0930 h1        1 FPR      0.105000
     32 HB2        -2.5400    1.4670   -3.5920 hc        1 FPR      0.074000
     33 HB3        -3.7050    1.1130   -2.5600 hc        1 FPR      0.074000
@<TRIPOS>BOND
     1    1   15 1   
     2    1   18 1   
     3    1   19 1   
     4    2    3 1   
     5    2   15 1   
     6    4    5 1   
     7    4   14 1   
     8    5    6 1   
     9    6    7 1   
    10    6   22 1   
    11    7   23 1   
    12    8   14 1   
    13    8   24 1   
    14    9   11 1   
    15    9   25 1   
    16    9   26 1   
    17   10   17 1   
    18   11   13 1   
    19   11   27 1   
    20   11   28 1   
    21   12   17 1   
    22   13   14 1   
    23   13   29 1   
    24   13   30 1   
    25   15   16 1   
    26   15   31 1   
    27   16   17 1   
    28   16   32 1   
    29   16   33 1   
@<TRIPOS>SUBSTRUCTURE
     1 FPR         1 TEMP              0 ****  ****    0 ROOT
