@<TRIPOS>MOLECULE
FPS
   49    47     1     0     0
SMALL
bcc


@<TRIPOS>ATOM
      1 C1         -0.0390    0.0120   -0.3190 c3        1 FPS     -0.086000
      2 S1          1.6670    0.2770   -0.7260 s         1 FPS     -0.861000
      3 C2         -0.2750    0.1800    1.1270 c2        1 FPS     -0.071000
      4 C3         -1.1370    1.0620    1.6710 c2        1 FPS     -0.251000
      5 C4         -1.9350    2.0110    0.8580 c3        1 FPS     -0.136000
      6 C5         -1.3570    1.1060    3.1440 c3        1 FPS     -0.063000
      7 C6         -0.0640    1.1450    3.9400 c3        1 FPS     -0.188000
      8 C7         -0.3370    1.2130    5.3940 c2        1 FPS     -0.121000
      9 C8         -0.5810    0.1530    6.1830 c2        1 FPS     -0.141000
     10 C10        -0.8020    0.3280    7.6490 c3        1 FPS     -0.110000
     11 C9         -0.6100   -1.2390    5.6780 c3        1 FPS     -0.221000
     12 C11        -2.2080   -0.0840    8.0510 c3        1 FPS     -0.144000
     13 C12        -2.4350    0.0180    9.5100 c2        1 FPS     -0.116000
     14 C13        -3.6430   -0.0750   10.0910 c2        1 FPS     -0.181000
     15 C14        -4.8810   -0.2820    9.3030 c3        1 FPS     -0.163500
     16 C15        -3.8180    0.0260   11.5590 c3        1 FPS     -0.163500
     17 PA          3.0790   -1.6460   -0.3370 p3        1 FPS      2.686000
     18 O1A         2.4500   -2.6310   -1.2410 o         1 FPS     -1.179500
     19 O2A         4.3730   -1.0560   -0.7350 o         1 FPS     -1.179500
     20 O3A         2.9040   -1.9540    1.1630 os        1 FPS     -1.254000
     21 PB          2.6960   -2.3830    2.8940 p5        1 FPS      1.699500
     22 O1B         1.4250   -1.6300    3.2280 o         1 FPS     -0.945833
     23 O2B         2.5560   -3.8730    2.8720 o         1 FPS     -0.945833
     24 O3B         3.9290   -1.8640    3.5640 o         1 FPS     -0.945833
     25 H11        -0.6390    0.7260   -0.9350 h1        1 FPS      0.060000
     26 H12A       -0.3300   -1.0280   -0.6160 h1        1 FPS      0.060000
     27 H2          0.3280   -0.5020    1.7850 ha        1 FPS      0.242000
     28 H41        -1.2740    2.5820    0.1580 hc        1 FPS      0.039333
     29 H42        -2.4820    2.7510    1.4950 hc        1 FPS      0.039333
     30 H43        -2.6960    1.4670    0.2430 hc        1 FPS      0.039333
     31 H51        -1.9370    0.1920    3.4540 hc        1 FPS      0.035000
     32 H52        -1.9860    1.9970    3.4200 hc        1 FPS      0.035000
     33 H61         0.5380    2.0380    3.6290 hc        1 FPS      0.155000
     34 H62         0.5630    0.2190    3.6910 hc        1 FPS      0.155000
     35 H7         -0.3180    2.2260    5.8340 ha        1 FPS      0.061000
     36 H101       -0.6320    1.3950    7.9560 hc        1 FPS      0.064000
     37 H102       -0.0570   -0.3010    8.2070 hc        1 FPS      0.064000
     38 H91        -1.6180   -1.4690    5.2490 hc        1 FPS      0.107333
     39 H92         0.1590   -1.3950    4.8510 hc        1 FPS      0.107333
     40 H93        -0.4030   -1.9680    6.4990 hc        1 FPS      0.107333
     41 H111       -2.3840   -1.1460    7.7200 hc        1 FPS      0.098000
     42 H112       -2.9560    0.5510    7.5030 hc        1 FPS      0.098000
     43 H12        -1.5330    0.1730   10.1260 ha        1 FPS      0.114000
     44 H141       -4.7390   -1.1080    8.5610 hc        1 FPS      0.066667
     45 H142       -5.1370    0.6470    8.7340 hc        1 FPS      0.066667
     46 H143       -5.7450   -0.5410    9.9630 hc        1 FPS      0.066667
     47 H151       -4.5280    0.8550   11.8090 hc        1 FPS      0.066667
     48 H152       -2.8480    0.2260   12.0770 hc        1 FPS      0.066667
     49 H153       -4.2430   -0.9270   11.9650 hc        1 FPS      0.066667
@<TRIPOS>BOND
     1    1    2 1   
     2    1    3 1   
     3    1   25 1   
     4    1   26 1   
     5    3    4 1   
     6    3   27 1   
     7    4    5 1   
     8    4    6 1   
     9    5   28 1   
    10    5   29 1   
    11    5   30 1   
    12    6    7 1   
    13    6   31 1   
    14    6   32 1   
    15    7    8 1   
    16    7   33 1   
    17    7   34 1   
    18    8    9 1   
    19    8   35 1   
    20    9   10 1   
    21    9   11 1   
    22   10   12 1   
    23   10   36 1   
    24   10   37 1   
    25   11   38 1   
    26   11   39 1   
    27   11   40 1   
    28   12   13 1   
    29   12   41 1   
    30   12   42 1   
    31   13   14 1   
    32   13   43 1   
    33   14   15 1   
    34   14   16 1   
    35   15   44 1   
    36   15   45 1   
    37   15   46 1   
    38   16   47 1   
    39   16   48 1   
    40   16   49 1   
    41   17   18 1   
    42   17   19 1   
    43   17   20 1   
    44   20   21 1   
    45   21   22 1   
    46   21   23 1   
    47   21   24 1   
@<TRIPOS>SUBSTRUCTURE
     1 FPS         1 TEMP              0 ****  ****    0 ROOT
