@<TRIPOS>MOLECULE
FPS
   49    45     1     0     0
SMALL
bcc


@<TRIPOS>ATOM
      1 C1          3.0840    1.3890   -2.8760 c3        1 FPS     -0.074000
      2 S1          4.0050    2.8390   -3.3180 ss        1 FPS     -0.873000
      3 C2          2.4610    1.5850   -1.5110 c2        1 FPS     -0.058000
      4 C3          2.4400    0.5680   -0.6280 c1        1 FPS     -0.233000
      5 C4          3.0390   -0.7700   -1.0010 c2        1 FPS     -0.163000
      6 C5          1.8160    0.7640    0.7360 c3        1 FPS     -0.096000
      7 C6          0.4510    0.1130    0.7650 c3        1 FPS     -0.138000
      8 C7         -0.4940    0.9590    1.5890 c2        1 FPS     -0.131000
      9 C8         -1.4940    0.3760    2.2790 c1        1 FPS     -0.156000
     10 C10        -1.6710   -1.1260    2.2300 c2        1 FPS     -0.116000
     11 C9         -2.4390    1.2230    3.1030 c3        1 FPS     -0.170000
     12 C11        -3.0980   -1.4770    2.5910 c3        1 FPS     -0.129000
     13 C12        -3.1950   -2.9600    2.8750 c2        1 FPS     -0.157000
     14 C13        -4.3870   -3.5110    3.1750 c1        1 FPS     -0.132000
     15 C14        -5.6290   -2.6480    3.2280 c2        1 FPS     -0.163000
     16 C15        -4.4850   -4.9940    3.4600 c3        1 FPS     -0.174000
     17 PA          4.1370    2.9690   -5.3800 p5        1 FPS      1.954000
     18 O1A         2.8430    3.5160   -5.9340 o         1 FPS     -0.876500
     19 O2A         4.3920    1.5970   -5.9560 o         1 FPS     -0.876500
     20 O3A         5.3260    3.9340   -5.7710 os        1 FPS     -1.200000
     21 PB          5.4700    4.6160   -7.1900 p5        1 FPS      1.634500
     22 O1B         5.1980    3.5960   -8.2690 o         1 FPS     -0.877833
     23 O2B         6.8710    5.1570   -7.3490 o         1 FPS     -0.877833
     24 O3B         4.4770    5.7480   -7.3060 o         1 FPS     -0.877833
     25 H11         3.6840    0.6170   -2.8530 h1        1 FPS      0.046000
     26 H12A        2.3800    1.2360   -3.5370 h1        1 FPS      0.046000
     27 H2          2.0740    2.4480   -1.2710 ha        1 FPS      0.117000
     28 H41         3.9870   -0.6530   -1.2210 ha        1 FPS      0.069167
     29 H42         2.9530   -1.3890   -0.2450 ha        1 FPS      0.069167
     30 H43         2.5660   -1.1350   -1.7780 ha        1 FPS      0.069167
     31 H51         1.7250    1.7200    0.9190 hc        1 FPS      0.069500
     32 H52         2.3870    0.3540    1.4170 hc        1 FPS      0.069500
     33 H61         0.5220   -0.7780    1.1630 hc        1 FPS      0.089000
     34 H62         0.1070    0.0350   -0.1480 hc        1 FPS      0.089000
     35 H7         -0.3800    1.9280    1.6210 ha        1 FPS      0.118000
     36 H101       -1.0600   -1.5470    2.8670 ha        1 FPS      0.082500
     37 H102       -1.4740   -1.4480    1.3280 ha        1 FPS      0.082500
     38 H91        -3.3320    1.2030    2.6990 hc        1 FPS      0.070333
     39 H92        -2.1120    2.1460    3.1290 hc        1 FPS      0.070333
     40 H93        -2.4850    0.8670    4.0150 hc        1 FPS      0.070333
     41 H111       -3.3660   -0.9740    3.3860 hc        1 FPS      0.091000
     42 H112       -3.6880   -1.2490    1.8450 hc        1 FPS      0.091000
     43 H12        -2.3940   -3.5170    2.8420 ha        1 FPS      0.121000
     44 H141       -5.7340   -2.1750    2.3760 ha        1 FPS      0.069167
     45 H142       -6.4130   -3.2130    3.3870 ha        1 FPS      0.069167
     46 H143       -5.5430   -1.9960    3.9550 ha        1 FPS      0.069167
     47 H151       -3.7400   -5.2660    4.0360 hc        1 FPS      0.074667
     48 H152       -5.3330   -5.1850    3.9120 hc        1 FPS      0.074667
     49 H153       -4.4450   -5.4920    2.6170 hc        1 FPS      0.074667
@<TRIPOS>BOND
     1    1    2 1   
     2    1    3 1   
     3    1   25 1   
     4    1   26 1   
     5    2   17 1   
     6    3    4 1   
     7    3   27 1   
     8    4    6 1   
     9    5   28 1   
    10    5   29 1   
    11    5   30 1   
    12    6    7 1   
    13    6   31 1   
    14    6   32 1   
    15    7    8 1   
    16    7   33 1   
    17    7   34 1   
    18    8    9 1   
    19    8   35 1   
    20    9   11 1   
    21   10   12 1   
    22   10   36 1   
    23   10   37 1   
    24   11   38 1   
    25   11   39 1   
    26   11   40 1   
    27   12   13 1   
    28   12   41 1   
    29   12   42 1   
    30   13   14 1   
    31   13   43 1   
    32   14   16 1   
    33   15   44 1   
    34   15   45 1   
    35   15   46 1   
    36   16   47 1   
    37   16   48 1   
    38   16   49 1   
    39   17   18 1   
    40   17   19 1   
    41   17   20 1   
    42   20   21 1   
    43   21   22 1   
    44   21   23 1   
    45   21   24 1   
@<TRIPOS>SUBSTRUCTURE
     1 FPS         1 TEMP              0 ****  ****    0 ROOT
