@<TRIPOS>MOLECULE
FPS
   49    47     1     0     0
SMALL
bcc


@<TRIPOS>ATOM
      1 C1         -0.0480    0.0320   -0.3200 c3        1 FPS     -0.086000
      2 S1          1.6590    0.2890   -0.7290 s         1 FPS     -0.861000
      3 C2         -0.2800    0.1940    1.1270 c2        1 FPS     -0.071000
      4 C3         -1.1360    1.0780    1.6770 c2        1 FPS     -0.251000
      5 C4         -1.9300    2.0360    0.8710 c3        1 FPS     -0.136000
      6 C5         -1.3530    1.1160    3.1510 c3        1 FPS     -0.063000
      7 C6         -0.0580    1.1430    3.9450 c3        1 FPS     -0.188000
      8 C7         -0.3280    1.2060    5.4000 c2        1 FPS     -0.121000
      9 C8         -0.5770    0.1430    6.1840 c2        1 FPS     -0.141000
     10 C10        -0.7950    0.3120    7.6510 c3        1 FPS     -0.110000
     11 C9         -0.6160   -1.2460    5.6710 c3        1 FPS     -0.221000
     12 C11        -2.2030   -0.0920    8.0530 c3        1 FPS     -0.144000
     13 C12        -2.4270    0.0030    9.5130 c2        1 FPS     -0.116000
     14 C13        -3.6340   -0.0840   10.0960 c2        1 FPS     -0.181000
     15 C14        -4.8760   -0.2750    9.3090 c3        1 FPS     -0.163500
     16 C15        -3.8060    0.0090   11.5650 c3        1 FPS     -0.163500
     17 PA          3.0610   -1.6440   -0.3520 p3        1 FPS      2.686000
     18 O1A         2.4240   -2.6210   -1.2600 o         1 FPS     -1.179500
     19 O2A         4.3580   -1.0600   -0.7490 o         1 FPS     -1.179500
     20 O3A         2.8870   -1.9580    1.1480 os        1 FPS     -1.254000
     21 PB          2.6790   -2.3940    2.8760 p5        1 FPS      1.699500
     22 O1B         1.4130   -1.6360    3.2160 o         1 FPS     -0.945833
     23 O2B         2.5310   -3.8840    2.8480 o         1 FPS     -0.945833
     24 O3B         3.9160   -1.8860    3.5470 o         1 FPS     -0.945833
     25 H11        -0.6440    0.7520   -0.9320 h1        1 FPS      0.060000
     26 H12A       -0.3450   -1.0050   -0.6210 h1        1 FPS      0.060000
     27 H2          0.3200   -0.4940    1.7810 ha        1 FPS      0.242000
     28 H41        -1.2670    2.6050    0.1710 hc        1 FPS      0.039333
     29 H42        -2.4690    2.7770    1.5120 hc        1 FPS      0.039333
     30 H43        -2.6970    1.5000    0.2550 hc        1 FPS      0.039333
     31 H51        -1.9370    0.2040    3.4570 hc        1 FPS      0.035000
     32 H52        -1.9770    2.0090    3.4320 hc        1 FPS      0.035000
     33 H61         0.5480    2.0340    3.6370 hc        1 FPS      0.155000
     34 H62         0.5630    0.2160    3.6900 hc        1 FPS      0.155000
     35 H7         -0.3020    2.2160    5.8440 ha        1 FPS      0.061000
     36 H101       -0.6170    1.3760    7.9630 hc        1 FPS      0.064000
     37 H102       -0.0530   -0.3250    8.2040 hc        1 FPS      0.064000
     38 H91        -1.6260   -1.4670    5.2430 hc        1 FPS      0.107333
     39 H92         0.1500   -1.4030    4.8420 hc        1 FPS      0.107333
     40 H93        -0.4130   -1.9800    6.4880 hc        1 FPS      0.107333
     41 H111       -2.3870   -1.1510    7.7160 hc        1 FPS      0.097500
     42 H112       -2.9470    0.5510    7.5100 hc        1 FPS      0.097500
     43 H12        -1.5220    0.1460   10.1280 ha        1 FPS      0.114000
     44 H141       -4.7410   -1.0960    8.5600 hc        1 FPS      0.066667
     45 H142       -5.1250    0.6610    8.7470 hc        1 FPS      0.066667
     46 H143       -5.7400   -0.5320    9.9680 hc        1 FPS      0.066667
     47 H151       -4.5070    0.8420   11.8210 hc        1 FPS      0.066667
     48 H152       -2.8330    0.1970   12.0820 hc        1 FPS      0.066667
     49 H153       -4.2380   -0.9420   11.9650 hc        1 FPS      0.066667
@<TRIPOS>BOND
     1    1    2 1   
     2    1    3 1   
     3    1   25 1   
     4    1   26 1   
     5    3    4 1   
     6    3   27 1   
     7    4    5 1   
     8    4    6 1   
     9    5   28 1   
    10    5   29 1   
    11    5   30 1   
    12    6    7 1   
    13    6   31 1   
    14    6   32 1   
    15    7    8 1   
    16    7   33 1   
    17    7   34 1   
    18    8    9 1   
    19    8   35 1   
    20    9   10 1   
    21    9   11 1   
    22   10   12 1   
    23   10   36 1   
    24   10   37 1   
    25   11   38 1   
    26   11   39 1   
    27   11   40 1   
    28   12   13 1   
    29   12   41 1   
    30   12   42 1   
    31   13   14 1   
    32   13   43 1   
    33   14   15 1   
    34   14   16 1   
    35   15   44 1   
    36   15   45 1   
    37   15   46 1   
    38   16   47 1   
    39   16   48 1   
    40   16   49 1   
    41   17   18 1   
    42   17   19 1   
    43   17   20 1   
    44   20   21 1   
    45   21   22 1   
    46   21   23 1   
    47   21   24 1   
@<TRIPOS>SUBSTRUCTURE
     1 FPS         1 TEMP              0 ****  ****    0 ROOT
