@<TRIPOS>MOLECULE
FPS
   49    47     1     0     0
SMALL
bcc


@<TRIPOS>ATOM
      1 C1         -2.0700   -3.0220    0.0320 c3        1 FPS     -0.081000
      2 S1         -2.7130   -2.7270   -1.6050 s         1 FPS     -0.890000
      3 C2         -0.7380   -2.4080    0.1770 c2        1 FPS     -0.066000
      4 C3          0.4270   -3.0740    0.2930 c2        1 FPS     -0.252000
      5 C4          0.5380   -4.5510    0.2490 c3        1 FPS     -0.135000
      6 C5          1.7130   -2.3320    0.4330 c3        1 FPS     -0.065000
      7 C6          1.6910   -1.3380    1.5820 c3        1 FPS     -0.184000
      8 C7          2.9790   -0.6180    1.7040 c2        1 FPS     -0.134000
      9 C8          3.3050    0.5000    1.0330 c2        1 FPS     -0.134000
     10 C10         4.6220    1.1670    1.2640 c3        1 FPS     -0.110000
     11 C9          2.4050    1.1530    0.0550 c3        1 FPS     -0.227000
     12 C11         5.4870    1.1270    0.0160 c3        1 FPS     -0.145000
     13 C12         6.7770    1.8290    0.1960 c2        1 FPS     -0.119000
     14 C13         7.7940    1.7670   -0.6800 c2        1 FPS     -0.177000
     15 C14         7.7120    0.9650   -1.9240 c3        1 FPS     -0.164500
     16 C15         9.0650    2.4960   -0.4610 c3        1 FPS     -0.164500
     17 PA         -3.3720   -0.4370   -1.9650 p3        1 FPS      2.692000
     18 O1A        -2.7040   -0.1390   -3.2480 o         1 FPS     -1.180500
     19 O2A        -4.8460   -0.5390   -1.9790 o         1 FPS     -1.180500
     20 O3A        -2.7620    0.2310   -0.7120 os        1 FPS     -1.260000
     21 PB         -2.1160    1.0830    0.7190 p5        1 FPS      1.699500
     22 O1B        -0.6650    0.6560    0.7110 o         1 FPS     -0.944167
     23 O2B        -2.3520    2.5260    0.4000 o         1 FPS     -0.944167
     24 O3B        -2.9010    0.5110    1.8580 o         1 FPS     -0.944167
     25 H11        -2.7680   -2.5620    0.7770 h1        1 FPS      0.073000
     26 H12A       -2.0620   -4.1280    0.1850 h1        1 FPS      0.073000
     27 H2         -0.7590   -1.2780    0.2130 ha        1 FPS      0.243000
     28 H41        -0.2370   -4.9920   -0.4260 hc        1 FPS      0.038333
     29 H42         1.5420   -4.8750   -0.1250 hc        1 FPS      0.038333
     30 H43         0.4010   -4.9910    1.2710 hc        1 FPS      0.038333
     31 H51         2.5660   -3.0510    0.5820 hc        1 FPS      0.042000
     32 H52         1.9180   -1.7700   -0.5190 hc        1 FPS      0.042000
     33 H61         0.8310   -0.6040    1.4090 hc        1 FPS      0.142500
     34 H62         1.4800   -1.8810    2.5400 hc        1 FPS      0.142500
     35 H7          3.7010   -1.0550    2.4160 ha        1 FPS      0.057000
     36 H101        4.4430    2.2370    1.5560 hc        1 FPS      0.059500
     37 H102        5.1760    0.6800    2.1100 hc        1 FPS      0.059500
     38 H91         1.3110    1.0780    0.3660 hc        1 FPS      0.113667
     39 H92         2.6680    2.2310   -0.0740 hc        1 FPS      0.113667
     40 H93         2.4910    0.6460   -0.9390 hc        1 FPS      0.113667
     41 H111        5.6720    0.0580   -0.2770 hc        1 FPS      0.102000
     42 H112        4.9190    1.5980   -0.8350 hc        1 FPS      0.102000
     43 H12         6.8700    2.4360    1.1130 ha        1 FPS      0.110000
     44 H141        6.7520    1.1750   -2.4610 hc        1 FPS      0.067500
     45 H142        8.5620    1.1920   -2.6120 hc        1 FPS      0.067500
     46 H143        7.7330   -0.1280   -1.6810 hc        1 FPS      0.067500
     47 H151        9.9270    1.7830   -0.4660 hc        1 FPS      0.067500
     48 H152        9.2290    3.2430   -1.2780 hc        1 FPS      0.067500
     49 H153        9.0650    3.0400    0.5160 hc        1 FPS      0.067500
@<TRIPOS>BOND
     1    1    2 1   
     2    1    3 1   
     3    1   25 1   
     4    1   26 1   
     5    3    4 1   
     6    3   27 1   
     7    4    5 1   
     8    4    6 1   
     9    5   28 1   
    10    5   29 1   
    11    5   30 1   
    12    6    7 1   
    13    6   31 1   
    14    6   32 1   
    15    7    8 1   
    16    7   33 1   
    17    7   34 1   
    18    8    9 1   
    19    8   35 1   
    20    9   10 1   
    21    9   11 1   
    22   10   12 1   
    23   10   36 1   
    24   10   37 1   
    25   11   38 1   
    26   11   39 1   
    27   11   40 1   
    28   12   13 1   
    29   12   41 1   
    30   12   42 1   
    31   13   14 1   
    32   13   43 1   
    33   14   15 1   
    34   14   16 1   
    35   15   44 1   
    36   15   45 1   
    37   15   46 1   
    38   16   47 1   
    39   16   48 1   
    40   16   49 1   
    41   17   18 1   
    42   17   19 1   
    43   17   20 1   
    44   20   21 1   
    45   21   22 1   
    46   21   23 1   
    47   21   24 1   
@<TRIPOS>SUBSTRUCTURE
     1 FPS         1 TEMP              0 ****  ****    0 ROOT
