@<TRIPOS>MOLECULE
FPT
   41    42     1     0     0
SMALL
bcc


@<TRIPOS>ATOM
      1 C1          0.0740   -0.1890   -0.4410 ca        1 FPT      0.492200
      2 N2          1.2320    0.4990   -0.1930 nb        1 FPT     -0.682000
      3 C3          1.9970    0.0740    0.8180 ca        1 FPT      0.469200
      4 C4          1.6720   -1.0400    1.6330 ca        1 FPT     -0.100300
      5 C5          0.4880   -1.7370    1.3660 ca        1 FPT     -0.031000
      6 C6         -0.3320   -1.3170    0.3170 ca        1 FPT     -0.239300
      7 C7          2.5340   -1.4270    2.6880 cg        1 FPT      0.205800
      8 N7          3.2410   -1.7450    3.5550 n1        1 FPT     -0.287800
      9 N8         -0.7660    0.2340   -1.5150 ns        1 FPT     -0.480400
     10 C9         -0.7240    1.5100   -2.0240 c         1 FPT      0.301400
     11 S9         -0.3230    2.8630   -1.3960 s         1 FPT     -0.062400
     12 N10        -1.2390    1.6160   -3.4770 ny        1 FPT     -0.657800
     13 C11        -0.4260    0.8290   -4.4490 c3        1 FPT      0.102800
     14 C12        -0.8030    1.1390   -5.8960 c3        1 FPT     -0.146700
     15 C13         0.0880    0.4030   -6.8560 ca        1 FPT      0.367600
     16 N14         0.5370   -0.8360   -6.5330 nb        1 FPT     -0.702000
     17 C15         1.2950   -1.4850   -7.4280 ca        1 FPT      0.436200
     18 C16         1.6570   -0.9650   -8.6850 ca        1 FPT     -0.291300
     19 C17         1.2040    0.3120   -9.0280 ca        1 FPT      0.159100
     20 C18         0.3940    1.0260   -8.0920 ca        1 FPT     -0.001400
     21 O17         1.4600    0.9700  -10.1950 os        1 FPT     -0.303900
     22 CA          2.2610    0.2610  -11.1650 c3        1 FPT      0.127400
     23 CB          2.3810    1.1920  -12.3470 c3        1 FPT     -0.104100
     24 F18        -0.0620    2.2610   -8.3840 f         1 FPT     -0.110900
     25 H3          2.9250    0.6570    0.9900 h4        1 FPT      0.061100
     26 H5          0.1980   -2.6080    1.9770 ha        1 FPT      0.178000
     27 H6         -1.2680   -1.8530    0.1010 ha        1 FPT      0.164000
     28 HN8        -1.2360   -0.5080   -1.9920 hn        1 FPT      0.342500
     29 H10        -1.1880    2.6220   -3.7160 hn        1 FPT      0.453800
     30 H111       -0.5830   -0.2680   -4.2380 hx        1 FPT      0.116700
     31 H112        0.6610    1.0750   -4.2760 hx        1 FPT      0.116700
     32 H121       -0.7150    2.2420   -6.0980 hc        1 FPT      0.080700
     33 H122       -1.8660    0.8330   -6.0990 hc        1 FPT      0.080700
     34 H15         1.6380   -2.4920   -7.1220 h4        1 FPT      0.041100
     35 H16         2.2800   -1.5580   -9.3680 ha        1 FPT      0.170000
     36 HA1         3.2630    0.0340  -10.7140 h1        1 FPT      0.049200
     37 HA2         1.7400   -0.6930  -11.4410 h1        1 FPT      0.049200
     38 HB1         1.3730    1.4310  -12.7620 hc        1 FPT      0.061033
     39 HB2         2.9950    0.6950  -13.1360 hc        1 FPT      0.061033
     40 HB3         2.8740    2.1480  -12.0460 hc        1 FPT      0.061033
     41 H102       -2.2190    1.3220   -3.5420 hn        1 FPT      0.453800
@<TRIPOS>BOND
     1    1    2 ar  
     2    1    6 ar  
     3    1    9 1   
     4    2    3 ar  
     5    3    4 ar  
     6    3   25 1   
     7    4    5 ar  
     8    4    7 1   
     9    5    6 ar  
    10    5   26 1   
    11    6   27 1   
    12    7    8 3   
    13    9   10 1   
    14    9   28 1   
    15   10   11 2   
    16   10   12 1   
    17   12   13 1   
    18   12   29 1   
    19   12   41 1   
    20   13   14 1   
    21   13   30 1   
    22   13   31 1   
    23   14   15 1   
    24   14   32 1   
    25   14   33 1   
    26   15   16 ar  
    27   15   20 ar  
    28   16   17 ar  
    29   17   18 ar  
    30   17   34 1   
    31   18   19 ar  
    32   18   35 1   
    33   19   20 ar  
    34   19   21 1   
    35   20   24 1   
    36   21   22 1   
    37   22   23 1   
    38   22   36 1   
    39   22   37 1   
    40   23   38 1   
    41   23   39 1   
    42   23   40 1   
@<TRIPOS>SUBSTRUCTURE
     1 FPT         1 TEMP              0 ****  ****    0 ROOT
