@<TRIPOS>MOLECULE
FPT
   42    43     1     0     0
SMALL
bcc


@<TRIPOS>ATOM
      1 C1         -0.1320   -0.7820   -0.5180 ca        1 FPT      0.414200
      2 N2          0.4090    0.4600   -0.7100 nb        1 FPT     -0.725000
      3 C3          0.0590    1.4210    0.1470 ca        1 FPT      0.482200
      4 C4         -0.8390    1.2010    1.2350 ca        1 FPT     -0.004300
      5 C5         -1.3710   -0.0780    1.4170 ca        1 FPT     -0.032000
      6 C6         -1.0160   -1.1070    0.5270 ca        1 FPT     -0.163300
      7 C7         -1.1660    2.2710    2.1020 cg        1 FPT      0.155800
      8 N7         -1.4370    3.1500    2.8150 n1        1 FPT     -0.183800
      9 N8          0.2310   -1.8330   -1.5070 n4        1 FPT     -0.593500
     10 C9          1.6770   -1.8040   -1.9250 c         1 FPT      0.000400
     11 S9          2.6840   -2.8150   -1.4260 s         1 FPT      0.305600
     12 N10         2.0000   -0.6910   -2.8620 n4        1 FPT     -0.615800
     13 C11         1.2100   -0.7420   -4.1450 c3        1 FPT      0.108800
     14 C12         1.8610    0.0990   -5.2390 c3        1 FPT     -0.143700
     15 C13         1.0770    0.0180   -6.5200 ca        1 FPT      0.348600
     16 N14        -0.1130   -0.6350   -6.5580 nb        1 FPT     -0.737000
     17 C15        -0.7710   -0.6650   -7.7260 ca        1 FPT      0.445200
     18 C16        -0.3080   -0.0650   -8.9120 ca        1 FPT     -0.283300
     19 C17         0.9180    0.6090   -8.8840 ca        1 FPT      0.177100
     20 C18         1.6410    0.6550   -7.6500 ca        1 FPT      0.005600
     21 O17         1.5130    1.2400   -9.9300 os        1 FPT     -0.297900
     22 CA          0.8060    1.2130  -11.1930 c3        1 FPT      0.127400
     23 CB          1.6810    1.9770  -12.1560 c3        1 FPT     -0.107100
     24 F18         2.8260    1.2890   -7.5640 f         1 FPT     -0.104900
     25 H3          0.5070    2.4230   -0.0280 h4        1 FPT      0.088100
     26 H5         -2.0690   -0.2920    2.2500 ha        1 FPT      0.216000
     27 H6         -1.4370   -2.1160    0.6680 ha        1 FPT      0.190000
     28 HN8        -0.3970   -1.7370   -2.3240 hn        1 FPT      0.490800
     29 H10         1.8460    0.2310   -2.4090 hn        1 FPT      0.496300
     30 H111        1.1500   -1.8180   -4.4810 hx        1 FPT      0.119700
     31 H112        0.1760   -0.3430   -3.9340 hx        1 FPT      0.119700
     32 H121        1.9150    1.1800   -4.9330 hc        1 FPT      0.090700
     33 H122        2.9080   -0.2550   -5.4510 hc        1 FPT      0.090700
     34 H15        -1.7370   -1.2060   -7.7180 h4        1 FPT      0.045100
     35 H16        -0.9060   -0.1320   -9.8320 ha        1 FPT      0.181000
     36 HA1        -0.1930    1.7040  -11.0580 h1        1 FPT      0.053700
     37 HA2         0.6730    0.1450  -11.5080 h1        1 FPT      0.053700
     38 HB1         1.1840    1.9910  -13.1570 hc        1 FPT      0.066367
     39 HB2         2.6820    1.4910  -12.2510 hc        1 FPT      0.066367
     40 HB3         1.8290    3.0270  -11.8070 hc        1 FPT      0.066367
     41 H82         0.0610   -2.7550   -1.0630 hn        1 FPT      0.490800
     42 H102        3.0100   -0.7680   -3.0860 hn        1 FPT      0.496300
@<TRIPOS>BOND
     1    1    2 ar  
     2    1    6 ar  
     3    1    9 1   
     4    2    3 ar  
     5    3    4 ar  
     6    3   25 1   
     7    4    5 ar  
     8    4    7 1   
     9    5    6 ar  
    10    5   26 1   
    11    6   27 1   
    12    7    8 3   
    13    9   10 1   
    14    9   28 1   
    15    9   41 1   
    16   10   11 2   
    17   10   12 1   
    18   12   13 1   
    19   12   29 1   
    20   12   42 1   
    21   13   14 1   
    22   13   30 1   
    23   13   31 1   
    24   14   15 1   
    25   14   32 1   
    26   14   33 1   
    27   15   16 ar  
    28   15   20 ar  
    29   16   17 ar  
    30   17   18 ar  
    31   17   34 1   
    32   18   19 ar  
    33   18   35 1   
    34   19   20 ar  
    35   19   21 1   
    36   20   24 1   
    37   21   22 1   
    38   22   23 1   
    39   22   36 1   
    40   22   37 1   
    41   23   38 1   
    42   23   39 1   
    43   23   40 1   
@<TRIPOS>SUBSTRUCTURE
     1 FPT         1 TEMP              0 ****  ****    0 ROOT
