@<TRIPOS>MOLECULE
FPT
   40    36     1     0     0
SMALL
bcc


@<TRIPOS>ATOM
      1 C1          2.6730   -1.7520    0.8770 c1        1 FPT      0.119000
      2 N2          3.2880   -0.9820    1.8270 n1        1 FPT     -0.185000
      3 C3          4.5510   -0.5020    1.6090 c1        1 FPT     -0.009000
      4 C4          5.2080   -0.7920    0.4270 c1        1 FPT     -0.086000
      5 C5          4.5970   -1.5580   -0.5220 c1        1 FPT     -0.043000
      6 C6          3.3250   -2.0430   -0.3030 c1        1 FPT     -0.166000
      7 C7          6.6440   -0.2680    0.1880 c1        1 FPT     -0.090000
      8 N7          7.7150    0.1200    0.0090 n1        1 FPT     -0.032000
      9 N8          1.3090   -2.1960    1.0800 n         1 FPT     -0.266000
     10 C9          0.6070   -1.8480    2.2970 c2        1 FPT      0.149000
     11 S9          1.3740   -0.9870    3.4730 s         1 FPT     -0.273000
     12 N10        -0.7300   -2.2990    2.4980 n         1 FPT     -0.325000
     13 C11        -1.8080   -1.3530    2.5180 c3        1 FPT     -0.031000
     14 C12        -2.6410   -1.4700    1.2020 c3        1 FPT     -0.136000
     15 C13        -2.8990   -0.0330    0.6190 c2        1 FPT     -0.017000
     16 N14        -3.5710    0.8920    1.3600 n2        1 FPT     -0.138000
     17 C15        -3.9100    2.1080    0.8020 c1        1 FPT     -0.038000
     18 C16        -3.5650    2.3900   -0.5210 c1        1 FPT     -0.241000
     19 C17        -2.8900    1.4610   -1.2650 c1        1 FPT      0.099000
     20 C18        -2.5530    0.2520   -0.7100 c1        1 FPT     -0.007000
     21 O17        -2.5420    1.7460   -2.6070 os        1 FPT     -0.197000
     22 CA         -1.5710    2.7930   -2.7360 c3        1 FPT     -0.023000
     23 CB         -0.8780    2.7010   -4.0930 c3        1 FPT     -0.220000
     24 F18        -1.8800   -0.6590   -1.4410 f         1 FPT     -0.096000
     25 H3          4.9850    0.0420    2.2810 ha        1 FPT      0.173000
     26 H5          5.0520   -1.7580   -1.3400 ha        1 FPT      0.156000
     27 H6          2.8820   -2.5980   -0.9900 ha        1 FPT      0.202000
     28 HN8         0.8950   -2.7410    0.4440 hn        1 FPT      0.231000
     29 H10        -0.8900   -3.1650    2.6840 hn        1 FPT      0.231000
     30 H111       -1.4470   -0.4490    2.5950 h1        1 FPT      0.124000
     31 H112       -2.3720   -1.5320    3.2650 h1        1 FPT      0.124000
     32 H121       -2.1180   -2.0320    0.5080 hc        1 FPT      0.118000
     33 H122       -3.5240   -1.9170    1.4050 hc        1 FPT      0.118000
     34 H15        -4.3890    2.7660    1.3310 ha        1 FPT      0.169000
     35 H16        -3.8140    3.2880   -0.9330 ha        1 FPT      0.156000
     36 HA1        -2.0270    3.6800   -2.6560 h1        1 FPT      0.083500
     37 HA2        -0.8890    2.7020   -2.0110 h1        1 FPT      0.083500
     38 HB1        -0.6220    1.7140   -4.2880 hc        1 FPT      0.093667
     39 HB2        -0.0800    3.2430   -4.0800 hc        1 FPT      0.093667
     40 HB3        -1.4940    3.0330   -4.8030 hc        1 FPT      0.093667
@<TRIPOS>BOND
     1    1    6 1   
     2    1    9 1   
     3    2    3 1   
     4    3   25 1   
     5    4    5 1   
     6    4    7 1   
     7    5   26 1   
     8    6   27 1   
     9    7    8 1   
    10    9   10 1   
    11    9   28 1   
    12   10   11 1   
    13   10   12 1   
    14   12   13 1   
    15   12   29 1   
    16   13   14 1   
    17   13   30 1   
    18   13   31 1   
    19   14   15 1   
    20   14   32 1   
    21   14   33 1   
    22   15   16 1   
    23   15   20 1   
    24   16   17 1   
    25   17   34 1   
    26   18   19 1   
    27   18   35 1   
    28   19   21 1   
    29   20   24 1   
    30   21   22 1   
    31   22   23 1   
    32   22   36 1   
    33   22   37 1   
    34   23   38 1   
    35   23   39 1   
    36   23   40 1   
@<TRIPOS>SUBSTRUCTURE
     1 FPT         1 TEMP              0 ****  ****    0 ROOT
