@<TRIPOS>MOLECULE
FPT
   40    41     1     0     0
SMALL
bcc


@<TRIPOS>ATOM
      1 C1         -0.7180   -0.1500   -4.0260 ca        1 FPT      0.524200
      2 N2         -1.3800    0.3130   -5.1400 nb        1 FPT     -0.709000
      3 C3         -0.8450    0.0600   -6.3370 ca        1 FPT      0.455200
      4 C4          0.3660   -0.6480   -6.5250 ca        1 FPT     -0.151300
      5 C5          1.0360   -1.1180   -5.3890 ca        1 FPT     -0.044000
      6 C6          0.4980   -0.8780   -4.1260 ca        1 FPT     -0.223300
      7 C7          0.8720   -0.8700   -7.8280 cg        1 FPT      0.238800
      8 N7          1.2880   -1.0520   -8.9000 n1        1 FPT     -0.355800
      9 N8         -1.3530    0.0710   -2.7760 n         1 FPT     -0.500400
     10 C9         -0.6630    0.5360   -1.6410 c         1 FPT      0.563400
     11 S9          0.9370    0.3860   -1.4560 s         1 FPT     -0.542400
     12 N10        -1.4540    1.1340   -0.6700 n         1 FPT     -0.510900
     13 C11        -0.9660    1.3870    0.6640 c3        1 FPT      0.074000
     14 C12        -1.5080    0.4080    1.7120 c3        1 FPT     -0.155700
     15 C13        -0.9500    0.7140    3.0720 ca        1 FPT      0.405600
     16 N14        -1.0690    1.9730    3.5640 nb        1 FPT     -0.677000
     17 C15        -0.5810    2.2280    4.7860 ca        1 FPT      0.422200
     18 C16         0.0500    1.2730    5.6040 ca        1 FPT     -0.306300
     19 C17         0.1750   -0.0290    5.1120 ca        1 FPT      0.137100
     20 C18        -0.3350   -0.3290    3.8160 ca        1 FPT     -0.011400
     21 O17         0.7520   -1.0820    5.7740 os        1 FPT     -0.310900
     22 CA          1.3060   -0.7840    7.0670 c3        1 FPT      0.127400
     23 CB          1.8990   -2.0800    7.5670 c3        1 FPT     -0.101100
     24 F18        -0.2290   -1.5800    3.3210 f         1 FPT     -0.114900
     25 H3         -1.4130    0.4510   -7.2040 h4        1 FPT      0.037100
     26 H5          1.9810   -1.6750   -5.4860 ha        1 FPT      0.157000
     27 H6          1.0210   -1.2290   -3.2180 ha        1 FPT      0.198000
     28 HN8        -2.3240    0.3160   -2.8590 hn        1 FPT      0.314500
     29 H10        -2.4460    1.1340   -0.7630 hn        1 FPT      0.303500
     30 H111       -1.2850    2.4370    0.9280 h1        1 FPT      0.096700
     31 H112        0.1650    1.3440    0.6620 h1        1 FPT      0.096700
     32 H121       -1.2360   -0.6450    1.4300 hc        1 FPT      0.067200
     33 H122       -2.6280    0.4710    1.7610 hc        1 FPT      0.067200
     34 H15        -0.7010    3.2690    5.1380 h4        1 FPT      0.029100
     35 H16         0.4260    1.5560    6.5940 ha        1 FPT      0.154000
     36 HA1         0.4870   -0.4200    7.7430 h1        1 FPT      0.042700
     37 HA2         2.0890    0.0110    6.9600 h1        1 FPT      0.042700
     38 HB1         2.3460   -1.9100    8.5750 hc        1 FPT      0.054033
     39 HB2         1.1120   -2.8680    7.6420 hc        1 FPT      0.054033
     40 HB3         2.6920   -2.4410    6.8690 hc        1 FPT      0.054033
@<TRIPOS>BOND
     1    1    2 ar  
     2    1    6 ar  
     3    1    9 1   
     4    2    3 ar  
     5    3    4 ar  
     6    3   25 1   
     7    4    5 ar  
     8    4    7 1   
     9    5    6 ar  
    10    5   26 1   
    11    6   27 1   
    12    7    8 3   
    13    9   10 1   
    14    9   28 1   
    15   10   11 2   
    16   10   12 1   
    17   12   13 1   
    18   12   29 1   
    19   13   14 1   
    20   13   30 1   
    21   13   31 1   
    22   14   15 1   
    23   14   32 1   
    24   14   33 1   
    25   15   16 ar  
    26   15   20 ar  
    27   16   17 ar  
    28   17   18 ar  
    29   17   34 1   
    30   18   19 ar  
    31   18   35 1   
    32   19   20 ar  
    33   19   21 1   
    34   20   24 1   
    35   21   22 1   
    36   22   23 1   
    37   22   36 1   
    38   22   37 1   
    39   23   38 1   
    40   23   39 1   
    41   23   40 1   
@<TRIPOS>SUBSTRUCTURE
     1 FPT         1 TEMP              0 ****  ****    0 ROOT
