@<TRIPOS>MOLECULE
FPU
   58    56     1     0     0
SMALL
bcc


@<TRIPOS>ATOM
      1 C1          2.4970    1.8350   -7.2550 c3        1 FPU     -0.074000
      2 N1          5.6720   -1.0560   -2.4280 n1        1 FPU     -0.155000
      3 O1          3.0580    0.5410   -7.0850 os        1 FPU     -0.211000
      4 C2          3.5510    0.2960   -5.7780 c2        1 FPU      0.032000
      5 N2         -0.2290   -1.1240    0.9930 n1        1 FPU     -0.212000
      6 O2          5.5730    0.0390   -7.1280 os        1 FPU     -0.204000
      7 C3          2.8810    0.0410   -4.5810 c1        1 FPU     -0.084000
      8 N3         -0.3500    0.3830    2.8890 n         1 FPU     -0.326000
      9 O3          1.5220   -0.8560   -2.2450 os        1 FPU     -0.143000
     10 C4          3.6010   -0.4150   -3.4520 c1        1 FPU     -0.111000
     11 N4         -1.9790    0.1460    4.7490 n         1 FPU     -0.320000
     12 O4         -2.3270   -0.7650    2.6660 o         1 FPU     -0.400000
     13 C5          2.9350   -0.6710   -2.2550 c2        1 FPU      0.127000
     14 C6          3.6360   -1.1130   -1.1620 c2        1 FPU     -0.271000
     15 C7          5.0170   -1.3070   -1.2500 c1        1 FPU     -0.019000
     16 C8          4.9650   -0.6080   -3.5360 c2        1 FPU      0.047000
     17 C9          5.6420   -0.3490   -4.7500 c2        1 FPU     -0.194000
     18 C10         4.9320    0.1010   -5.8630 c2        1 FPU      0.082000
     19 C11         6.5910    1.0150   -7.3060 c3        1 FPU     -0.080000
     20 C12         1.0070   -0.5170   -0.9610 c2        1 FPU     -0.069000
     21 C13         1.2820    0.7070   -0.4150 c2        1 FPU     -0.051000
     22 C14         0.8070    1.0230    0.8310 c1        1 FPU     -0.230000
     23 C15         0.0450    0.0980    1.5400 c1        1 FPU      0.156000
     24 C16         0.2450   -1.4400   -0.2510 c1        1 FPU     -0.012000
     25 C17        -1.6010   -0.1070    3.3880 c2        1 FPU      0.409000
     26 C18        -3.2190   -0.3780    5.2620 cx        1 FPU     -0.020000
     27 C19        -3.7480   -1.6220    4.5640 cx        1 FPU     -0.195000
     28 C20        -4.4160   -0.2750    4.3290 cx        1 FPU     -0.149000
     29 C21        -5.7770   -0.0780    5.0110 c2        1 FPU     -0.040000
     30 C22        -6.4650   -1.1740    5.5200 c2        1 FPU     -0.134000
     31 C23        -7.6750   -0.9900    6.1810 c1        1 FPU     -0.127000
     32 C24        -8.1960    0.2910    6.3330 c1        1 FPU     -0.130500
     33 C25        -7.5080    1.3870    5.8240 c1        1 FPU     -0.130500
     34 C26        -6.2980    1.2030    5.1630 c1        1 FPU     -0.122000
     35 H18        -3.4190   -0.3100    6.2210 h1        1 FPU      0.133000
     36 H20        -4.2420    0.1400    3.4560 hc        1 FPU      0.145000
     37 H1          3.1620    2.5150   -7.0110 h1        1 FPU      0.084000
     38 H1A         1.7080    1.9270   -6.6780 h1        1 FPU      0.084000
     39 H1B         2.2330    1.9560   -8.1940 h1        1 FPU      0.084000
     40 H3          1.9040    0.1140   -4.5420 ha        1 FPU      0.166000
     41 H6          3.1690   -1.2930   -0.3200 ha        1 FPU      0.155000
     42 H7          5.5190   -1.6230   -0.4680 ha        1 FPU      0.161000
     43 H9          6.6120   -0.4860   -4.8100 ha        1 FPU      0.160000
     44 H11         6.8400    1.0590   -8.2570 h1        1 FPU      0.088333
     45 H11A        6.2590    1.8920   -7.0140 h1        1 FPU      0.088333
     46 H11B        7.3780    0.7700   -6.7730 h1        1 FPU      0.088333
     47 H13         1.8190    1.3580   -0.9140 ha        1 FPU      0.159000
     48 H14         1.0040    1.9010    1.2240 ha        1 FPU      0.152000
     49 H16         0.0470   -2.3180   -0.6430 ha        1 FPU      0.179000
     50 HN3         0.2110    0.8540    3.4420 hn        1 FPU      0.260000
     51 HN4        -1.4320    0.6440    5.2920 hn        1 FPU      0.262000
     52 H19        -4.2450   -2.2500    5.1320 hc        1 FPU      0.128500
     53 H19A       -3.2010   -1.9610    3.8250 hc        1 FPU      0.128500
     54 H22        -6.0980   -2.0760    5.4130 ha        1 FPU      0.128000
     55 H23        -8.1600   -1.7630    6.5400 ha        1 FPU      0.130000
     56 H24        -9.0500    0.4210    6.7990 ha        1 FPU      0.131000
     57 H25        -7.8760    2.2900    5.9310 ha        1 FPU      0.131000
     58 H26        -5.8130    1.9760    4.8040 ha        1 FPU      0.134000
@<TRIPOS>BOND
     1    1    3 1   
     2    1   37 1   
     3    1   38 1   
     4    1   39 1   
     5    2   16 1   
     6    3    4 1   
     7    4    7 1   
     8    4   18 1   
     9    5   23 1   
    10    6   18 1   
    11    6   19 1   
    12    7   40 1   
    13    8   23 1   
    14    8   25 1   
    15    8   50 1   
    16    9   13 1   
    17    9   20 1   
    18   10   13 1   
    19   10   16 1   
    20   11   25 1   
    21   11   26 1   
    22   11   51 1   
    23   12   25 1   
    24   13   14 1   
    25   14   15 1   
    26   14   41 1   
    27   15   42 1   
    28   16   17 1   
    29   17   18 1   
    30   17   43 1   
    31   19   44 1   
    32   19   45 1   
    33   19   46 1   
    34   20   21 1   
    35   20   24 1   
    36   21   22 1   
    37   21   47 1   
    38   22   48 1   
    39   24   49 1   
    40   26   27 1   
    41   26   28 1   
    42   26   35 1   
    43   27   28 1   
    44   27   52 1   
    45   27   53 1   
    46   28   29 1   
    47   28   36 1   
    48   29   30 1   
    49   29   34 1   
    50   30   31 1   
    51   30   54 1   
    52   31   55 1   
    53   32   33 1   
    54   32   56 1   
    55   33   57 1   
    56   34   58 1   
@<TRIPOS>SUBSTRUCTURE
     1 FPU         1 TEMP              0 ****  ****    0 ROOT
