@<TRIPOS>MOLECULE
FPU
   58    62     1     0     0
SMALL
bcc


@<TRIPOS>ATOM
      1 C1          6.0050    0.2420   -3.7300 c3        1 FPU      0.107700
      2 N1          5.6630   -0.3570    2.6650 nb        1 FPU     -0.676000
      3 O1          7.0030    0.3270   -2.7170 os        1 FPU     -0.301900
      4 C2          6.5620    0.1410   -1.4240 ca        1 FPU      0.111100
      5 N2         -0.6200   -2.2410    0.0330 nb        1 FPU     -0.705000
      6 C3          5.2630   -0.1200   -1.0540 ca        1 FPU     -0.164000
      7 N3         -2.7120   -1.4870    0.8720 n         1 FPU     -0.532400
      8 C4          4.9330   -0.2930    0.3140 ca        1 FPU     -0.151300
      9 N4         -5.0540   -0.9470    0.6510 n         1 FPU     -0.520900
     10 O4         -3.4400    0.7070    0.5290 o         1 FPU     -0.614100
     11 C5          3.5970   -0.5670    0.7530 ca        1 FPU      0.165100
     12 C6          3.3240   -0.7250    2.0960 ca        1 FPU     -0.328300
     13 C7          4.4110   -0.6070    3.0110 ca        1 FPU      0.436200
     14 C8          5.9420   -0.1980    1.3210 ca        1 FPU      0.424600
     15 C9          7.2870    0.0740    0.9120 ca        1 FPU     -0.249300
     16 C10         7.5900    0.2380   -0.4200 ca        1 FPU      0.135100
     17 C11         9.8920    0.6060    0.0430 c3        1 FPU      0.107700
     18 C12         1.3340   -0.8220    0.1300 ca        1 FPU     -0.062200
     19 C13         0.5930    0.2310    0.6740 ca        1 FPU     -0.087000
     20 C14        -0.7660    0.0400    0.9070 ca        1 FPU     -0.226300
     21 C15        -1.3530   -1.2140    0.5790 ca        1 FPU      0.518200
     22 C16         0.6860   -2.0420   -0.1710 ca        1 FPU      0.429200
     23 C17        -3.7180   -0.5040    0.6750 c         1 FPU      0.762100
     24 C18        -6.0980    0.0140    0.7500 cx        1 FPU      0.054700
     25 C19        -7.1060    0.0070    1.8790 cx        1 FPU     -0.153400
     26 C20        -7.5450   -0.4010    0.4940 cx        1 FPU     -0.080400
     27 C21        -8.4140    0.4600   -0.3190 ca        1 FPU     -0.052300
     28 C22        -9.3220   -0.1310   -1.2100 ca        1 FPU     -0.123500
     29 C23       -10.1590    0.6620   -1.9930 ca        1 FPU     -0.126500
     30 C24       -10.1000    2.0520   -1.8960 ca        1 FPU     -0.128000
     31 C25        -9.2000    2.6470   -1.0130 ca        1 FPU     -0.126500
     32 C26        -8.3610    1.8570   -0.2280 ca        1 FPU     -0.123500
     33 H18        -5.7680    1.0060    0.3570 h1        1 FPU      0.131700
     34 H20        -7.7530   -1.4820    0.3390 hc        1 FPU      0.083700
     35 H1          5.5400   -0.7740   -3.7410 h1        1 FPU      0.046700
     36 H1A         5.2250    1.0280   -3.5830 h1        1 FPU      0.046700
     37 H1B         6.5800    0.4250   -4.6730 h1        1 FPU      0.046700
     38 H3          4.4550   -0.2010   -1.7970 ha        1 FPU      0.159000
     39 H6          2.3130   -0.9340    2.4660 ha        1 FPU      0.155000
     40 H7          4.2210   -0.7300    4.0930 h4        1 FPU      0.023100
     41 H9          8.0650    0.1470    1.6870 ha        1 FPU      0.160000
     42 H11        10.0130   -0.3540    0.6010 h1        1 FPU      0.048033
     43 H11A       10.7960    0.8180   -0.5830 h1        1 FPU      0.048033
     44 H11B        9.6950    1.4480    0.7510 h1        1 FPU      0.048033
     45 H13         1.0750    1.1910    0.9130 ha        1 FPU      0.159000
     46 H14        -1.3790    0.8560    1.3220 ha        1 FPU      0.184000
     47 H16         1.2470   -2.8860   -0.6130 h4        1 FPU      0.041100
     48 HN3        -2.9840   -2.4410    0.7370 hn        1 FPU      0.319500
     49 HN4        -5.2640   -1.8560    0.9950 hn        1 FPU      0.301500
     50 H19        -7.0610   -0.7730    2.6590 hc        1 FPU      0.079700
     51 H19A       -7.4350    0.9790    2.2880 hc        1 FPU      0.079700
     52 H22        -9.3730   -1.2260   -1.2940 ha        1 FPU      0.131000
     53 H23       -10.8660    0.1890   -2.6890 ha        1 FPU      0.132500
     54 H24       -10.7600    2.6770   -2.5150 ha        1 FPU      0.132000
     55 H25        -9.1490    3.7430   -0.9340 ha        1 FPU      0.132500
     56 H26        -7.6530    2.3360    0.4650 ha        1 FPU      0.131000
     57 O2          8.8470    0.5020   -0.9190 os        1 FPU     -0.301900
     58 O3          2.6600   -0.6700   -0.2650 os        1 FPU     -0.238200
@<TRIPOS>BOND
     1    1    3 1   
     2    1   35 1   
     3    1   36 1   
     4    1   37 1   
     5    2   13 ar  
     6    2   14 ar  
     7    3    4 1   
     8    4    6 ar  
     9    4   16 ar  
    10    5   21 ar  
    11    5   22 ar  
    12    6    8 ar  
    13    6   38 1   
    14    7   21 1   
    15    7   23 1   
    16    7   48 1   
    17    8   11 ar  
    18    8   14 ar  
    19    9   23 1   
    20    9   24 1   
    21    9   49 1   
    22   10   23 2   
    23   11   12 ar  
    24   11   58 1   
    25   12   13 ar  
    26   12   39 1   
    27   13   40 1   
    28   14   15 ar  
    29   15   16 ar  
    30   15   41 1   
    31   16   57 1   
    32   17   42 1   
    33   17   43 1   
    34   17   44 1   
    35   17   57 1   
    36   18   19 ar  
    37   18   22 ar  
    38   18   58 1   
    39   19   20 ar  
    40   19   45 1   
    41   20   21 ar  
    42   20   46 1   
    43   22   47 1   
    44   24   25 1   
    45   24   26 1   
    46   24   33 1   
    47   25   26 1   
    48   25   50 1   
    49   25   51 1   
    50   26   27 1   
    51   26   34 1   
    52   27   28 ar  
    53   27   32 ar  
    54   28   29 ar  
    55   28   52 1   
    56   29   30 ar  
    57   29   53 1   
    58   30   31 ar  
    59   30   54 1   
    60   31   32 ar  
    61   31   55 1   
    62   32   56 1   
@<TRIPOS>SUBSTRUCTURE
     1 FPU         1 TEMP              0 ****  ****    0 ROOT
