@<TRIPOS>MOLECULE
FPU
   59    59     1     0     0
SMALL
bcc


@<TRIPOS>ATOM
      1 C1          0.9130   -2.5010    1.4200 c1        1 FPU      0.027000
      2 N1          4.7660   -0.1050    5.5430 n2        1 FPU     -0.063000
      3 O1          1.4370   -1.3370    1.4910 os        1 FPU     -0.040000
      4 C2          2.0940   -0.8260    2.6400 c2        1 FPU      0.120000
      5 N2         -1.7540   -0.9290    9.8490 n2        1 FPU     -0.189000
      6 C3          1.6860   -1.1460    3.9120 c2        1 FPU     -0.323000
      7 N3         -3.3850    0.8760    9.6510 n         1 FPU     -0.362000
      8 C4          2.3640   -0.5940    5.0380 c2        1 FPU      0.084000
      9 N4         -5.0640    2.4940    9.0170 n         1 FPU     -0.408000
     10 O4         -3.0410    2.3910    7.9380 o         1 FPU     -0.413000
     11 C5          1.8510   -0.5790    6.3000 c2        1 FPU     -0.232000
     12 C6          5.7370   -0.7730    7.6850 c1        1 FPU      0.313000
     13 C7          4.8090   -0.8320    6.7290 c2        1 FPU     -0.456000
     14 C8          3.7090    0.0000    4.8010 c2        1 FPU     -0.002000
     15 C9          3.8310    0.7870    3.5080 c3        1 FPU     -0.059000
     16 C10         3.1260    0.1070    2.4050 c2        1 FPU     -0.268000
     17 C11         4.2280    1.2880    0.7240 c2        1 FPU     -0.085000
     18 C12        -0.3020   -0.7090    7.2520 c2        1 FPU      0.253000
     19 C13        -0.2500    0.5970    7.8010 c2        1 FPU     -0.300000
     20 C14        -1.1060    1.0750    8.7400 c2        1 FPU      0.157000
     21 C15        -2.1380    0.2580    9.4430 c2        1 FPU      0.100000
     22 C16        -2.5060   -1.8270   10.5930 c2        1 FPU     -0.043000
     23 C17        -3.8110    1.9530    8.8330 c2        1 FPU      0.407000
     24 C18        -6.8370   -1.5660   12.7780 c2        1 FPU     -0.110000
     25 C19        -5.5150   -1.3190   12.6650 c2        1 FPU     -0.172000
     26 C20        -7.3820   -2.2830   11.5830 c3        1 FPU     -0.147000
     27 C21        -6.1730   -2.4280   10.6170 c3        1 FPU      0.050000
     28 C22        -5.9530   -3.7840   10.2190 c1        1 FPU     -0.199000
     29 C23        -5.7850   -4.9200    9.8810 c1        1 FPU     -0.111000
     30 C24        -5.5950   -6.2750    9.4790 c3        1 FPU     -0.120000
     31 C25        -3.7660   -1.7730   10.9700 c1        1 FPU     -0.204000
     32 C26        -4.9980   -1.8320   11.3870 c2        1 FPU      0.020000
     33 H18        -7.4830   -1.3080   13.6210 ha        1 FPU      0.159000
     34 H20        -7.7890   -3.2840   11.8750 hc        1 FPU      0.118000
     35 H1         -1.1090   -1.9500    2.5750 ha        1 FPU      0.005000
     36 H1A        -1.3550   -1.9770    1.9420 ha        1 FPU      0.005000
     37 H1B         0.9600   -3.2140    2.2700 ha        1 FPU      0.046000
     38 H3          0.8240   -1.8070    4.0770 ha        1 FPU      0.155000
     39 H6          2.3020   -0.1460    7.1990 h4        1 FPU      0.182000
     40 H7          4.0400   -1.6290    6.9180 h4        1 FPU      0.181000
     41 H9          4.9180    0.9270    3.2430 hc        1 FPU      0.116000
     42 H11         3.3900    1.8110    3.6790 hc        1 FPU      0.116000
     43 H11A        4.7610    1.9490    1.4160 h4        1 FPU      0.183500
     44 H11B        4.3480    1.3340   -0.3730 h4        1 FPU      0.183500
     45 H13         0.5280    1.2780    7.4000 ha        1 FPU      0.186000
     46 H14        -1.0310    2.1340    9.0660 ha        1 FPU      0.195000
     47 H16        -1.1600   -1.4100    7.3860 h4        1 FPU      0.218000
     48 HN3        -4.0270    0.4420   10.2810 hn        1 FPU      0.261000
     49 HN4        -5.3000    3.2810    8.4590 hn        1 FPU      0.252500
     50 H19        -4.8630   -0.8350   13.3960 ha        1 FPU      0.157000
     51 H19A       -8.2050   -1.7010   11.0990 hc        1 FPU      0.118000
     52 H22        -6.3550   -1.8000    9.6970 hc        1 FPU      0.113000
     53 H23        -1.8850   -2.7060   10.8800 h4        1 FPU      0.182000
     54 H24        -6.4100   -6.5950    8.7780 hc        1 FPU      0.103000
     55 H25        -4.6100   -6.3980    8.9580 hc        1 FPU      0.103000
     56 H26        -5.6100   -6.9540   10.3720 hc        1 FPU      0.103000
     57 O2          3.4000    0.3580    1.0950 os        1 FPU      0.116000
     58 O3          0.6350   -1.2600    6.5160 os        1 FPU     -0.035000
     59 H42        -5.6520    2.2390    9.7680 hn        1 FPU      0.252500
@<TRIPOS>BOND
     1    1    3 1   
     2    1   37 1   
     3    2   13 1   
     4    2   14 1   
     5    3    4 1   
     6    4    6 1   
     7    4   16 1   
     8    5   21 1   
     9    5   22 1   
    10    6    8 1   
    11    6   38 1   
    12    7   21 1   
    13    7   23 1   
    14    7   48 1   
    15    8   11 1   
    16    8   14 1   
    17    9   23 1   
    18    9   49 1   
    19    9   59 1   
    20   10   23 1   
    21   11   39 1   
    22   11   58 1   
    23   12   13 1   
    24   13   40 1   
    25   14   15 1   
    26   15   16 1   
    27   15   41 1   
    28   15   42 1   
    29   16   57 1   
    30   17   43 1   
    31   17   44 1   
    32   17   57 1   
    33   18   19 1   
    34   18   47 1   
    35   18   58 1   
    36   19   20 1   
    37   19   45 1   
    38   20   21 1   
    39   20   46 1   
    40   22   31 1   
    41   22   53 1   
    42   24   25 1   
    43   24   26 1   
    44   24   33 1   
    45   25   32 1   
    46   25   50 1   
    47   26   27 1   
    48   26   34 1   
    49   26   51 1   
    50   27   28 1   
    51   27   32 1   
    52   27   52 1   
    53   28   29 1   
    54   29   30 1   
    55   30   54 1   
    56   30   55 1   
    57   30   56 1   
    58   31   32 1   
    59   35   36 1   
@<TRIPOS>SUBSTRUCTURE
     1 FPU         1 TEMP              0 ****  ****    0 ROOT
