@<TRIPOS>MOLECULE
FPW
   62    56     1     0     0
SMALL
bcc


@<TRIPOS>ATOM
      1 C1         -1.9320   -0.7330   -1.7990 c1        1 FPW      0.029000
      2 C2         -0.5550   -0.5420   -1.8280 c1        1 FPW     -0.030000
      3 N3          0.1610   -0.5120   -0.6500 n1        1 FPW     -0.145500
      4 C4         -0.4800   -0.6710    0.5420 c1        1 FPW      0.142000
      5 C5         -1.8580   -0.8620    0.5710 c1        1 FPW     -0.220000
      6 C6         -2.5740   -0.8910   -0.6040 c1        1 FPW     -0.164500
      7 C7         -2.8650   -1.8570   -5.0280 c1        1 FPW     -0.028000
      8 C8         -3.1120   -3.0050   -5.7400 c1        1 FPW     -0.028000
      9 N9         -3.0800   -4.2390   -5.1000 n1        1 FPW     -0.145500
     10 C10        -2.8040   -4.3110   -3.7660 c1        1 FPW     -0.030000
     11 C11        -2.5530   -3.1460   -3.0410 c1        1 FPW     -0.164500
     12 C12        -2.5840   -1.9300   -3.6680 c1        1 FPW      0.029000
     13 C13        -3.1790   -0.5320   -7.0500 c1        1 FPW      0.076000
     14 C14        -3.4260   -1.6840   -7.7650 c1        1 FPW      0.076000
     15 C15        -3.3960   -2.9300   -7.1220 c2        1 FPW     -0.173000
     16 C16        -2.8960   -0.6040   -5.6770 c2        1 FPW     -0.173000
     17 O17        -2.6870   -0.6950   -3.0190 os        1 FPW     -0.149000
     18 O18        -3.0490    0.4840   -7.9910 os        1 FPW     -0.185000
     19 O19        -3.9520   -1.4290   -9.0470 os        1 FPW     -0.185000
     20 C20        -3.8400    1.6340   -7.7080 c3        1 FPW     -0.081500
     21 C21        -3.3690   -2.2130  -10.0710 c3        1 FPW     -0.081500
     22 N22         0.2920   -0.7090    1.7920 n         1 FPW     -0.322000
     23 N23         2.8560    1.7670    5.4940 n         1 FPW     -0.220000
     24 C24         2.2040    1.7630    4.1770 c2        1 FPW      0.345000
     25 C25         3.3070    3.0580    6.0980 c3        1 FPW     -0.001000
     26 C26         2.8920    0.5490    6.2900 c2        1 FPW      0.040000
     27 C27         1.6300    0.4780    3.6210 c2        1 FPW     -0.253000
     28 O28         2.2500    2.7280    3.4960 o         1 FPW     -0.398000
     29 C29         4.2980    2.7730    7.2210 c2        1 FPW     -0.117000
     30 C30         2.3180   -0.7410    5.7360 c1        1 FPW     -0.264000
     31 C31         1.6700   -0.7500    4.4250 c1        1 FPW      0.040000
     32 C32         0.9720    0.4710    2.2540 c2        1 FPW      0.377000
     33 C33         5.6540    2.5670    7.0480 c2        1 FPW     -0.104000
     34 C34         3.8120    3.1980    8.4490 c1        1 FPW     -0.119000
     35 O35         0.9060    1.5160    1.5970 o         1 FPW     -0.323000
     36 C36         6.5260    2.7850    8.0980 c1        1 FPW     -0.130000
     37 C37         4.6860    3.4160    9.5000 c1        1 FPW     -0.124000
     38 C38         6.0420    3.2100    9.3250 c1        1 FPW     -0.124000
     39 H2         -0.0880   -0.4260   -2.6960 ha        1 FPW      0.169000
     40 H5         -2.3150   -0.9750    1.4200 ha        1 FPW      0.152000
     41 H6         -3.5280   -1.0240   -0.5830 ha        1 FPW      0.156500
     42 H10        -2.7820   -5.1660   -3.3250 ha        1 FPW      0.169000
     43 H11        -2.3480   -3.2000   -2.0510 ha        1 FPW      0.156500
     44 H15        -3.5750   -3.7630   -7.6400 ha        1 FPW      0.159000
     45 H16        -2.7210    0.2110   -5.1720 ha        1 FPW      0.159000
     46 H20        -3.9830    2.1520   -8.5430 h1        1 FPW      0.086333
     47 H20A       -3.3800    2.1920   -7.0550 h1        1 FPW      0.086333
     48 H20B       -4.7310    1.3450   -7.3350 h1        1 FPW      0.086333
     49 H21        -3.6550   -1.8720  -10.9500 h1        1 FPW      0.086333
     50 H21A       -3.6580   -3.1500   -9.9720 h1        1 FPW      0.086333
     51 H21B       -2.4100   -2.1640  -10.0050 h1        1 FPW      0.086333
     52 HN22        0.3050   -1.4630    2.2920 hn        1 FPW      0.268000
     53 H25         2.5300    3.5380    6.4610 h1        1 FPW      0.121000
     54 H25A        3.7380    3.6070    5.4130 h1        1 FPW      0.121000
     55 H26         3.3300    0.5530    7.1770 h4        1 FPW      0.160000
     56 H30         2.3440   -1.5540    6.2700 ha        1 FPW      0.161000
     57 H31         1.3010   -1.5810    4.0680 ha        1 FPW      0.172000
     58 H33         6.0050    2.2600    6.1630 ha        1 FPW      0.155000
     59 H34         2.8250    3.3480    8.5760 ha        1 FPW      0.128000
     60 H36         7.4990    2.6370    7.9730 ha        1 FPW      0.138000
     61 H37         4.3400    3.7210   10.3800 ha        1 FPW      0.135000
     62 H38         6.6690    3.3650   10.0760 ha        1 FPW      0.135000
@<TRIPOS>BOND
     1    1    6 1   
     2    1   17 1   
     3    2    3 1   
     4    2   39 1   
     5    4    5 1   
     6    4   22 1   
     7    5   40 1   
     8    6   41 1   
     9    7    8 1   
    10    7   16 1   
    11    8   15 1   
    12    9   10 1   
    13   10   42 1   
    14   11   12 1   
    15   11   43 1   
    16   12   17 1   
    17   13   16 1   
    18   13   18 1   
    19   14   15 1   
    20   14   19 1   
    21   15   44 1   
    22   16   45 1   
    23   18   20 1   
    24   19   21 1   
    25   20   46 1   
    26   20   47 1   
    27   20   48 1   
    28   21   49 1   
    29   21   50 1   
    30   21   51 1   
    31   22   32 1   
    32   22   52 1   
    33   23   24 1   
    34   23   25 1   
    35   23   26 1   
    36   24   27 1   
    37   24   28 1   
    38   25   29 1   
    39   25   53 1   
    40   25   54 1   
    41   26   30 1   
    42   26   55 1   
    43   27   31 1   
    44   27   32 1   
    45   29   33 1   
    46   29   34 1   
    47   30   56 1   
    48   31   57 1   
    49   32   35 1   
    50   33   36 1   
    51   33   58 1   
    52   34   59 1   
    53   36   60 1   
    54   37   38 1   
    55   37   61 1   
    56   38   62 1   
@<TRIPOS>SUBSTRUCTURE
     1 FPW         1 TEMP              0 ****  ****    0 ROOT
