@<TRIPOS>MOLECULE
FPW
   62    64     1     0     0
SMALL
bcc


@<TRIPOS>ATOM
      1 C1         -0.3880   -0.6370   -0.8030 c2        1 FPW     -0.193000
      2 C2          0.9940   -0.7740   -1.0570 c1        1 FPW     -0.054000
      3 N3          1.8760   -0.3480   -0.0830 n7        1 FPW     -0.177000
      4 C4          1.5160    0.1790    1.1300 c2        1 FPW      0.165000
      5 C5          0.0140    0.2780    1.4270 c3        1 FPW     -0.139000
      6 C6         -0.8930   -0.1650    0.3890 c1        1 FPW     -0.209000
      7 C7         -2.5650   -2.5120   -3.0150 c2        1 FPW     -0.124000
      8 C8         -3.4190   -3.6320   -2.9350 c2        1 FPW     -0.041000
      9 N9         -3.7390   -4.2640   -1.7920 n2        1 FPW     -0.175000
     10 C10        -3.2070   -3.7780   -0.6520 c2        1 FPW     -0.057000
     11 C11        -2.3490   -2.6710   -0.5990 c2        1 FPW     -0.230000
     12 C12        -2.0180   -2.0300   -1.8020 c2        1 FPW      0.144000
     13 C13        -1.2270   -2.0430   -5.0680 c2        1 FPW      0.072000
     14 C14        -1.0670   -1.3470   -6.3550 c2        1 FPW      0.134000
     15 C15        -2.0260   -0.6810   -6.9660 c1        1 FPW     -0.308000
     16 C16        -2.3200   -1.8750   -4.2970 c2        1 FPW     -0.096000
     17 O17        -1.2200   -0.9090   -1.8980 os        1 FPW     -0.113000
     18 O18        -0.2380   -2.9620   -4.7500 os        1 FPW     -0.222000
     19 O19         0.2110   -1.4570   -6.8710 oh        1 FPW     -0.245000
     20 C20         0.9270   -2.3710   -4.1640 c3        1 FPW     -0.083000
     21 C21        -2.9820   -0.0370   -7.5540 c2        1 FPW     -0.107000
     22 N22         2.4550    0.5960    2.0330 ns        1 FPW     -0.304000
     23 N23         4.3760    2.4190    6.1090 n3        1 FPW     -0.166000
     24 C24         3.2520    2.0660    5.3820 c2        1 FPW      0.234000
     25 C25         4.2760    3.0130    7.4310 c3        1 FPW     -0.063000
     26 C26         5.6330    2.1740    5.5600 c2        1 FPW     -0.032000
     27 C27         3.3910    1.4980    4.0860 c2        1 FPW     -0.220000
     28 C29         3.9610    2.0000    8.5650 c3        1 FPW      0.044000
     29 C30         5.7790    1.6240    4.3070 c2        1 FPW     -0.158000
     30 C31         4.6500    1.2730    3.5340 c1        1 FPW     -0.209000
     31 C32         2.1800    1.1340    3.3180 c2        1 FPW      0.385000
     32 C33         5.1380    1.1210    8.8040 c2        1 FPW     -0.251000
     33 C34         3.5310    2.7370    9.7240 c1        1 FPW     -0.206000
     34 O35         1.0200    1.2690    3.7290 o         1 FPW     -0.305000
     35 C36         5.8820    1.1360    9.9230 c2        1 FPW     -0.178000
     36 C37         3.1510    3.3320   10.6900 c1        1 FPW     -0.159000
     37 C38         7.0890    0.4820   10.1660 c1        1 FPW     -0.001000
     38 H2          2.8420   -0.4450   -0.3260 hn        1 FPW      0.253000
     39 H5         -0.1860   -0.3080    2.3720 hc        1 FPW      0.173500
     40 H6         -0.2190    1.3570    1.6730 hc        1 FPW      0.173500
     41 H10        -1.9660   -2.2940    0.3590 ha        1 FPW      0.164000
     42 H11        -3.4910   -4.3090    0.2730 h4        1 FPW      0.148000
     43 H15        -3.8660   -4.0470   -3.8570 h4        1 FPW      0.156000
     44 H16        -3.1270   -1.2050   -4.6480 ha        1 FPW      0.142000
     45 H20         0.6590   -1.8050   -3.2350 h1        1 FPW      0.090333
     46 H20A        1.4290   -1.7030   -4.9060 h1        1 FPW      0.090333
     47 H20B        1.5710   -3.2530   -3.9250 h1        1 FPW      0.090333
     48 H21         0.2170   -1.0380   -7.7430 ho        1 FPW      0.214000
     49 H21A       -3.1720    1.0330   -7.3730 ha        1 FPW      0.119500
     50 H21B       -3.6670   -0.5190   -8.2690 ha        1 FPW      0.119500
     51 HN22        3.4450    0.5310    1.8210 hn        1 FPW      0.289000
     52 H25         1.9730    2.5700    6.7730 ho        1 FPW      0.237000
     53 H25A        3.4790    3.8110    7.4080 h1        1 FPW      0.125500
     54 H26         5.2550    3.5190    7.6700 h1        1 FPW      0.125500
     55 H30         6.4880    2.4540    6.2030 h4        1 FPW      0.170000
     56 H31         6.7870    1.4530    3.9010 ha        1 FPW      0.169000
     57 H33         5.3740    0.4400    7.9730 ha        1 FPW      0.136000
     58 H34         3.1000    1.3350    8.2400 hc        1 FPW      0.117000
     59 H36         5.6360    1.8430   10.7540 ha        1 FPW      0.188000
     60 H37         7.1770   -0.5220   10.5860 ha        1 FPW      0.114000
     61 H38         2.8080    3.8610   11.5450 ha        1 FPW      0.235000
     62 O28         1.9880    2.2600    5.8510 oh        1 FPW     -0.190000
@<TRIPOS>BOND
     1    1    2 1   
     2    1    6 1   
     3    1   17 1   
     4    2    3 1   
     5    3    4 1   
     6    3   38 1   
     7    4    5 1   
     8    4   22 1   
     9    5    6 1   
    10    5   39 1   
    11    5   40 1   
    12    7    8 1   
    13    7   12 1   
    14    7   16 1   
    15    8    9 1   
    16    8   43 1   
    17    9   10 1   
    18   10   11 1   
    19   10   42 1   
    20   11   12 1   
    21   11   41 1   
    22   12   17 1   
    23   13   14 1   
    24   13   16 1   
    25   13   18 1   
    26   14   15 1   
    27   14   19 1   
    28   15   21 1   
    29   16   44 1   
    30   18   20 1   
    31   19   48 1   
    32   20   45 1   
    33   20   46 1   
    34   20   47 1   
    35   21   49 1   
    36   21   50 1   
    37   22   31 1   
    38   22   51 1   
    39   23   24 1   
    40   23   25 1   
    41   23   26 1   
    42   24   27 1   
    43   24   62 1   
    44   25   28 1   
    45   25   53 1   
    46   25   54 1   
    47   26   29 1   
    48   26   55 1   
    49   27   30 1   
    50   27   31 1   
    51   28   32 1   
    52   28   33 1   
    53   28   58 1   
    54   29   30 1   
    55   29   56 1   
    56   31   34 1   
    57   32   35 1   
    58   32   57 1   
    59   33   36 1   
    60   35   37 1   
    61   35   59 1   
    62   36   61 1   
    63   37   60 1   
    64   52   62 1   
@<TRIPOS>SUBSTRUCTURE
     1 FPW         1 TEMP              0 ****  ****    0 ROOT
