@<TRIPOS>MOLECULE
FPW
   62    66     1     0     0
SMALL
bcc


@<TRIPOS>ATOM
      1 C1         -1.8930    0.0240   -0.3310 ca        1 FPW     -0.079200
      2 C2         -1.0210   -0.5590    0.6140 ca        1 FPW      0.432200
      3 N3          0.3020   -0.3810    0.5950 nb        1 FPW     -0.703000
      4 C4          0.8380    0.4100   -0.3990 ca        1 FPW      0.536200
      5 C5          0.0150    1.0250   -1.3870 ca        1 FPW     -0.253300
      6 C6         -1.3610    0.8270   -1.3450 ca        1 FPW     -0.075000
      7 C7         -5.4850    0.1730    0.2650 ca        1 FPW     -0.152300
      8 C8         -6.4180    1.0530    0.8920 ca        1 FPW      0.424600
      9 N9         -6.0280    2.2290    1.5070 nb        1 FPW     -0.679000
     10 C10        -4.7400    2.5300    1.5020 ca        1 FPW      0.437200
     11 C11        -3.7200    1.7300    0.9090 ca        1 FPW     -0.327300
     12 C12        -4.1040    0.5560    0.2940 ca        1 FPW      0.166100
     13 C13        -7.2650   -1.3460   -0.3560 ca        1 FPW      0.108100
     14 C14        -8.2180   -0.4680    0.2740 ca        1 FPW      0.134100
     15 C15        -7.8040    0.6970    0.8790 ca        1 FPW     -0.249300
     16 C16        -5.9280   -1.0220   -0.3540 ca        1 FPW     -0.162000
     17 O17        -3.2390   -0.3340   -0.3260 os        1 FPW     -0.239200
     18 O18        -7.8140   -2.4760   -0.9240 os        1 FPW     -0.301900
     19 O19        -9.5230   -0.9030    0.2040 os        1 FPW     -0.301900
     20 C20        -6.8930   -3.3630   -1.5500 c3        1 FPW      0.108700
     21 C21       -10.4960   -0.0620    0.8180 c3        1 FPW      0.107700
     22 N22         2.2420    0.5330   -0.4070 n         1 FPW     -0.533400
     23 N23         6.5510    1.0580    0.2400 n         1 FPW     -0.327000
     24 C24         5.1360    0.9210    0.2100 c         1 FPW      0.704700
     25 C25         7.3110    0.4520    1.3250 c3        1 FPW      0.122300
     26 C26         7.2150    1.7110   -0.7680 cc        1 FPW      0.048600
     27 C27         4.4360    1.5670   -0.9000 cc        1 FPW     -0.294400
     28 C29         7.8660   -0.9040    1.0020 ca        1 FPW     -0.126300
     29 C30         6.5540    2.3080   -1.8180 cd        1 FPW     -0.270000
     30 C31         5.1390    2.2380   -1.8710 cd        1 FPW      0.044000
     31 C32         2.9500    1.5600   -1.0180 c         1 FPW      0.700300
     32 C33         9.2320   -1.0710    0.7590 ca        1 FPW     -0.111000
     33 C34         7.0120   -2.0120    0.9760 ca        1 FPW     -0.111000
     34 O35         2.3930    2.4410   -1.7070 o         1 FPW     -0.609100
     35 C36         9.7420   -2.3420    0.4970 ca        1 FPW     -0.131500
     36 C37         7.5260   -3.2800    0.7110 ca        1 FPW     -0.131500
     37 C38         8.8900   -3.4460    0.4710 ca        1 FPW     -0.116000
     38 H2         -1.4130   -1.2050    1.4220 h4        1 FPW      0.038100
     39 H5          0.4530    1.6550   -2.1770 ha        1 FPW      0.184000
     40 H6         -2.0190    1.2880   -2.0970 ha        1 FPW      0.156000
     41 H10        -4.4600    3.4760    2.0020 h4        1 FPW      0.023100
     42 H11        -2.6730    2.0530    0.9490 ha        1 FPW      0.157000
     43 H15        -8.5240    1.3740    1.3630 ha        1 FPW      0.160000
     44 H16        -5.1760   -1.6720   -0.8270 ha        1 FPW      0.159000
     45 H20        -6.3680   -2.8550   -2.3960 h1        1 FPW      0.046367
     46 H20A       -6.1540   -3.7530   -0.8090 h1        1 FPW      0.046367
     47 H20B       -7.5480   -4.1880   -1.9290 h1        1 FPW      0.046367
     48 H21       -10.5150    0.9420    0.3280 h1        1 FPW      0.047700
     49 H21A      -11.4560   -0.6090    0.6390 h1        1 FPW      0.047700
     50 H21B      -10.2960    0.0390    1.9120 h1        1 FPW      0.047700
     51 HN22        2.7370   -0.0340    0.2590 hn        1 FPW      0.361500
     52 H25         8.1520    1.1540    1.5960 h1        1 FPW      0.082700
     53 H25A        6.6220    0.3610    2.2170 h1        1 FPW      0.082700
     54 H26         8.3190    1.7380   -0.6890 h4        1 FPW      0.160000
     55 H30         7.1130    2.8320   -2.6030 ha        1 FPW      0.161000
     56 H31         4.6010    2.7340   -2.7000 ha        1 FPW      0.170000
     57 H33         9.9080   -0.2030    0.7810 ha        1 FPW      0.142500
     58 H34         5.9350   -1.8700    1.1700 ha        1 FPW      0.142500
     59 H36        10.8190   -2.4730    0.3110 ha        1 FPW      0.137000
     60 H37         6.8530   -4.1510    0.6920 ha        1 FPW      0.137000
     61 H38         9.2950   -4.4480    0.2640 ha        1 FPW      0.135000
     62 O28         4.5950    0.2760    1.1340 o         1 FPW     -0.657500
@<TRIPOS>BOND
     1    1    2 ar  
     2    1    6 ar  
     3    1   17 1   
     4    2    3 ar  
     5    2   38 1   
     6    3    4 ar  
     7    4    5 ar  
     8    4   22 1   
     9    5    6 ar  
    10    5   39 1   
    11    6   40 1   
    12    7    8 ar  
    13    7   12 ar  
    14    7   16 ar  
    15    8    9 ar  
    16    8   15 ar  
    17    9   10 ar  
    18   10   11 ar  
    19   10   41 1   
    20   11   12 ar  
    21   11   42 1   
    22   12   17 1   
    23   13   14 ar  
    24   13   16 ar  
    25   13   18 1   
    26   14   15 ar  
    27   14   19 1   
    28   15   43 1   
    29   16   44 1   
    30   18   20 1   
    31   19   21 1   
    32   20   45 1   
    33   20   46 1   
    34   20   47 1   
    35   21   48 1   
    36   21   49 1   
    37   21   50 1   
    38   22   31 1   
    39   22   51 1   
    40   23   24 1   
    41   23   25 1   
    42   23   26 1   
    43   24   27 1   
    44   24   62 2   
    45   25   28 1   
    46   25   52 1   
    47   25   53 1   
    48   26   29 2   
    49   26   54 1   
    50   27   30 2   
    51   27   31 1   
    52   28   32 ar  
    53   28   33 ar  
    54   29   30 1   
    55   29   55 1   
    56   30   56 1   
    57   31   34 2   
    58   32   35 ar  
    59   32   57 1   
    60   33   36 ar  
    61   33   58 1   
    62   35   37 ar  
    63   35   59 1   
    64   36   37 ar  
    65   36   60 1   
    66   37   61 1   
@<TRIPOS>SUBSTRUCTURE
     1 FPW         1 TEMP              0 ****  ****    0 ROOT
