@<TRIPOS>MOLECULE
FPW
   62    64     1     0     0
SMALL
bcc


@<TRIPOS>ATOM
      1 C1          0.9500   -2.4890   -1.4460 c2        1 FPW     -0.165000
      2 C2          1.4670   -3.4390   -0.5320 c1        1 FPW     -0.051000
      3 N3          2.0510   -2.9820    0.6270 n3        1 FPW     -0.177000
      4 C4          2.1740   -1.6580    0.9750 c2        1 FPW      0.178000
      5 C5          1.6040   -0.6280    0.0020 c3        1 FPW     -0.146000
      6 C6          0.9790   -1.1350   -1.2070 c1        1 FPW     -0.246000
      7 C7         -1.9480   -3.0550   -2.6050 c2        1 FPW     -0.079000
      8 C8         -3.0870   -3.8890   -2.6820 c2        1 FPW     -0.064000
      9 N9         -3.0380   -5.2290   -2.7840 n2        1 FPW     -0.153000
     10 C10        -1.8190   -5.8040   -2.8110 c2        1 FPW     -0.079000
     11 C11        -0.6170   -5.0850   -2.7320 c2        1 FPW     -0.179000
     12 C12        -0.6880   -3.6870   -2.6330 c2        1 FPW      0.109000
     13 C13        -1.5620   -0.6920   -3.2650 c2        1 FPW      0.078000
     14 C14        -1.4740    0.7370   -2.8850 c2        1 FPW      0.112000
     15 C15        -2.4280    1.6120   -3.1170 c1        1 FPW     -0.234000
     16 C16        -2.0920   -1.6220   -2.4470 c2        1 FPW     -0.154000
     17 O17         0.5030   -2.9650   -2.6860 os        1 FPW     -0.141000
     18 O18        -1.0490   -1.0440   -4.5020 os        1 FPW     -0.213000
     19 O19        -0.3140    1.1200   -2.2560 oh        1 FPW     -0.321000
     20 C20         0.2770   -0.5670   -4.7390 c3        1 FPW     -0.082000
     21 C21        -3.3720    2.4580   -3.3780 c2        1 FPW     -0.136000
     22 N22         2.7770   -1.2820    2.1420 n         1 FPW     -0.302000
     23 N23         4.4670    1.5680    5.6980 n3        1 FPW     -0.166000
     24 C24         3.8370    1.4510    4.4700 c2        1 FPW      0.236000
     25 C25         4.7260    2.8630    6.3040 c3        1 FPW     -0.064000
     26 C26         4.8380    0.4080    6.3730 c2        1 FPW     -0.031000
     27 C27         3.6120    0.1660    3.9050 c2        1 FPW     -0.221000
     28 C29         3.4840    3.5160    6.9700 c3        1 FPW      0.044000
     29 C30         4.6230   -0.8420    5.8350 c2        1 FPW     -0.158000
     30 C31         4.0020   -0.9910    4.5770 c1        1 FPW     -0.210000
     31 C32         2.9460    0.0570    2.5910 c2        1 FPW      0.383000
     32 C33         3.1100    2.7640    8.1980 c2        1 FPW     -0.252000
     33 C34         3.7730    4.9090    7.1950 c1        1 FPW     -0.207000
     34 O35         2.5560    1.0170    1.9130 o         1 FPW     -0.297000
     35 C36         3.2200    3.2480    9.4470 c2        1 FPW     -0.177000
     36 C37         3.9870    6.0730    7.3710 c1        1 FPW     -0.158000
     37 C38         3.0600    2.5670   10.6530 c1        1 FPW     -0.001000
     38 H2          2.4020   -3.6980    1.2320 hn        1 FPW      0.256000
     39 H5          0.8510    0.0050    0.5620 hc        1 FPW      0.180500
     40 H6          2.4390    0.0790   -0.2880 hc        1 FPW      0.180500
     41 H10         0.3580   -5.5900   -2.7460 ha        1 FPW      0.157000
     42 H11        -1.8100   -6.9050   -2.8970 h4        1 FPW      0.151000
     43 H15        -4.0970   -3.4420   -2.6670 h4        1 FPW      0.157000
     44 H16        -2.6570   -1.2940   -1.5590 ha        1 FPW      0.138000
     45 H20         0.9720   -0.9840   -3.9660 h1        1 FPW      0.088000
     46 H20A        0.5190   -0.9590   -5.7570 h1        1 FPW      0.088000
     47 H20B        0.2970    0.5500   -4.7200 h1        1 FPW      0.088000
     48 H21         0.1950    0.2850   -2.0010 ho        1 FPW      0.291000
     49 H21A       -4.2090    2.6390   -2.6870 ha        1 FPW      0.112500
     50 H21B       -3.3970    3.0450   -4.3080 ha        1 FPW      0.112500
     51 HN22        3.1480   -1.9760    2.7840 hn        1 FPW      0.292000
     52 H25         3.5370    3.3690    4.2360 ho        1 FPW      0.239000
     53 H25A        5.1360    3.5550    5.5130 h1        1 FPW      0.126000
     54 H26         5.5240    2.7360    7.0900 h1        1 FPW      0.126000
     55 H30         5.3120    0.5700    7.3600 h4        1 FPW      0.171000
     56 H31         4.9390   -1.7360    6.3940 ha        1 FPW      0.169000
     57 H33         2.7310    1.7480    8.0120 ha        1 FPW      0.136000
     58 H34         2.6050    3.4590    6.2540 hc        1 FPW      0.117000
     59 H36         3.6180    4.2790    9.6200 ha        1 FPW      0.188000
     60 H37         2.1160    2.4760   11.1940 ha        1 FPW      0.115000
     61 H38         4.1750    7.1070    7.5210 ha        1 FPW      0.235000
     62 O28         3.4320    2.5330    3.7510 oh        1 FPW     -0.190000
@<TRIPOS>BOND
     1    1    2 1   
     2    1    6 1   
     3    1   17 1   
     4    2    3 1   
     5    3    4 1   
     6    3   38 1   
     7    4    5 1   
     8    4   22 1   
     9    5    6 1   
    10    5   39 1   
    11    5   40 1   
    12    7    8 1   
    13    7   12 1   
    14    7   16 1   
    15    8    9 1   
    16    8   43 1   
    17    9   10 1   
    18   10   11 1   
    19   10   42 1   
    20   11   12 1   
    21   11   41 1   
    22   12   17 1   
    23   13   14 1   
    24   13   16 1   
    25   13   18 1   
    26   14   15 1   
    27   14   19 1   
    28   15   21 1   
    29   16   44 1   
    30   18   20 1   
    31   19   48 1   
    32   20   45 1   
    33   20   46 1   
    34   20   47 1   
    35   21   49 1   
    36   21   50 1   
    37   22   31 1   
    38   22   51 1   
    39   23   24 1   
    40   23   25 1   
    41   23   26 1   
    42   24   27 1   
    43   24   62 1   
    44   25   28 1   
    45   25   53 1   
    46   25   54 1   
    47   26   29 1   
    48   26   55 1   
    49   27   30 1   
    50   27   31 1   
    51   28   32 1   
    52   28   33 1   
    53   28   58 1   
    54   29   30 1   
    55   29   56 1   
    56   31   34 1   
    57   32   35 1   
    58   32   57 1   
    59   33   36 1   
    60   35   37 1   
    61   35   59 1   
    62   36   61 1   
    63   37   60 1   
    64   52   62 1   
@<TRIPOS>SUBSTRUCTURE
     1 FPW         1 TEMP              0 ****  ****    0 ROOT
