@<TRIPOS>MOLECULE
FPW
   63    64     1     0     0
SMALL
bcc


@<TRIPOS>ATOM
      1 C1          1.6550   -0.1520   -1.6450 c2        1 FPW      0.015000
      2 C2          2.1030    0.7890   -0.6360 c1        1 FPW      0.091000
      3 N3          2.7280   -0.1760    2.3280 n2        1 FPW     -0.304000
      4 C4          2.0910   -1.2510    2.0020 c2        1 FPW      0.113000
      5 C5          1.6120   -1.6480    0.6010 c3        1 FPW     -0.092000
      6 C6          1.7630   -0.5700   -0.3480 c2        1 FPW     -0.304000
      7 C7         -0.3280   -2.1180   -3.2440 c2        1 FPW     -0.038000
      8 C8         -0.5540   -3.4490   -3.7040 c2        1 FPW     -0.062000
      9 N9          0.4040   -4.2730   -4.1470 n2        1 FPW     -0.117000
     10 C10         1.6730   -3.8130   -4.1630 c2        1 FPW     -0.068000
     11 C11         2.0320   -2.5310   -3.7230 c2        1 FPW     -0.174000
     12 C12         1.0080   -1.6920   -3.2570 c2        1 FPW      0.028000
     13 C13        -1.7040   -0.0330   -3.0070 c2        1 FPW      0.136000
     14 C14        -2.9740    0.5790   -2.5750 c2        1 FPW      0.083000
     15 C15        -4.1510    0.0280   -2.7760 c1        1 FPW     -0.269000
     16 C16        -1.4710   -1.3540   -2.8060 c2        1 FPW     -0.216000
     17 O17         1.3700   -0.3670   -2.9170 os        1 FPW     -0.025000
     18 O18        -0.7380    0.7310   -3.6150 os        1 FPW     -0.194000
     19 O19        -2.7930    1.7780   -1.9080 oh        1 FPW     -0.257000
     20 C20        -1.1310    2.0240   -4.0780 c3        1 FPW     -0.074000
     21 C21        -5.3030   -0.5150   -3.0100 c2        1 FPW     -0.090000
     22 N22         1.7700   -2.2370    2.9770 n         1 FPW     -0.321000
     23 N23         3.4000    0.3790    6.7530 na        1 FPW     -0.075000
     24 C24         3.2090   -0.8050    6.0630 c2        1 FPW      0.253000
     25 C25         4.4620    0.5130    7.7550 c3        1 FPW     -0.049000
     26 C26         2.5870    1.4520    6.4880 c2        1 FPW     -0.046000
     27 C27         2.2080   -0.9120    5.0620 c2        1 FPW     -0.195000
     28 C29         5.5160    1.5720    7.4180 c3        1 FPW     -0.054000
     29 C30         1.5600    1.3610    5.5510 c2        1 FPW     -0.209000
     30 C31         1.3710    0.1800    4.8250 c2        1 FPW      0.072000
     31 C32         2.0580   -2.1970    4.3300 c2        1 FPW      0.367000
     32 C33         2.9960    3.8930    7.8130 c1        1 FPW     -0.004000
     33 C34         6.2340    1.2960    6.2130 c1        1 FPW     -0.226000
     34 O35         2.1450   -3.2780    4.9540 o         1 FPW     -0.361000
     35 C36         3.1760    5.0070    7.0770 c1        1 FPW     -0.243000
     36 C37         6.8590    1.0890    5.2140 c1        1 FPW     -0.138000
     37 C38         3.3360    5.9560    6.3300 c1        1 FPW     -0.004000
     38 H2          2.9030    0.4730    1.5880 hn        1 FPW      0.208000
     39 H5          2.2030   -2.5460    0.2600 hc        1 FPW      0.129000
     40 H6          0.5280   -1.9550    0.6460 hc        1 FPW      0.129000
     41 H10         3.0730   -2.1850   -3.7560 ha        1 FPW      0.162000
     42 H11         2.4360   -4.5140   -4.5510 h4        1 FPW      0.175000
     43 H15        -1.5840   -3.8530   -3.7160 h4        1 FPW      0.173000
     44 H16        -2.2590   -1.9400   -2.3010 ha        1 FPW      0.150000
     45 H20        -1.1930    2.7290   -3.2130 h1        1 FPW      0.095000
     46 H20A       -2.1050    1.9790   -4.6200 h1        1 FPW      0.095000
     47 H20B       -0.2980    2.3100   -4.7690 h1        1 FPW      0.095000
     48 H21        -3.6670    2.1350   -1.6900 ho        1 FPW      0.227000
     49 H21A       -5.7740   -1.2240   -2.3100 ha        1 FPW      0.138500
     50 H21B       -5.8810   -0.3000   -3.9230 ha        1 FPW      0.138500
     51 HN22        0.5670    0.1140    4.0710 ha        1 FPW      0.180000
     52 H25         3.7540   -2.6570    6.0370 ho        1 FPW      0.304000
     53 H25A        4.9710   -0.4840    7.8900 h1        1 FPW      0.139500
     54 H26         3.9610    0.7970    8.7250 h1        1 FPW      0.139500
     55 H30         2.7940    2.4740    7.0820 h4        1 FPW      0.307000
     56 H31         0.9130    2.2350    5.3810 ha        1 FPW      0.183000
     57 H33         2.9330    3.9360    8.9080 ha        1 FPW      0.192000
     58 H34         5.0310    2.5890    7.3490 hc        1 FPW      0.119500
     59 H36         6.2350    1.6000    8.2890 hc        1 FPW      0.119500
     60 H37         3.4770    6.7840    5.6720 ha        1 FPW      0.192000
     61 H38         7.4160    0.9050    4.3280 ha        1 FPW      0.238000
     62 H222        1.5800   -3.1510    2.6100 hn        1 FPW      0.258000
     63 O28         4.0430   -1.8100    6.4400 oh        1 FPW     -0.230000
@<TRIPOS>BOND
     1    1    2 1   
     2    1    6 1   
     3    1   17 1   
     4    2    6 1   
     5    3    4 1   
     6    3   38 1   
     7    4    5 1   
     8    4   22 1   
     9    5    6 1   
    10    5   39 1   
    11    5   40 1   
    12    7    8 1   
    13    7   12 1   
    14    7   16 1   
    15    8    9 1   
    16    8   43 1   
    17    9   10 1   
    18   10   11 1   
    19   10   42 1   
    20   11   12 1   
    21   11   41 1   
    22   12   17 1   
    23   13   14 1   
    24   13   16 1   
    25   13   18 1   
    26   14   15 1   
    27   14   19 1   
    28   15   21 1   
    29   16   44 1   
    30   18   20 1   
    31   19   48 1   
    32   20   45 1   
    33   20   46 1   
    34   20   47 1   
    35   21   49 1   
    36   21   50 1   
    37   22   31 1   
    38   22   62 1   
    39   23   24 1   
    40   23   25 1   
    41   23   26 1   
    42   24   27 1   
    43   24   63 1   
    44   25   28 1   
    45   25   53 1   
    46   25   54 1   
    47   26   29 1   
    48   26   55 1   
    49   27   30 1   
    50   27   31 1   
    51   28   33 1   
    52   28   58 1   
    53   28   59 1   
    54   29   30 1   
    55   29   56 1   
    56   30   51 1   
    57   31   34 1   
    58   32   35 1   
    59   32   57 1   
    60   33   36 1   
    61   35   37 1   
    62   36   61 1   
    63   37   60 1   
    64   52   63 1   
@<TRIPOS>SUBSTRUCTURE
     1 FPW         1 TEMP              0 ****  ****    0 ROOT
