@<TRIPOS>MOLECULE
FPX
   63    67     1     0     0
SMALL
bcc


@<TRIPOS>ATOM
      1 C1          0.6450    0.3690    0.2080 c3        1 FPX     -0.083800
      2 C2          2.0450    0.5110   -0.2540 ca        1 FPX      0.007700
      3 C3          3.0400    0.7500    0.7100 ca        1 FPX     -0.112000
      4 C4          4.3700    0.9250    0.3560 ca        1 FPX     -0.088000
      5 C5          4.7260    0.8570   -1.0040 ca        1 FPX     -0.065400
      6 N6          6.1130    1.0930   -1.4120 n4        1 FPX     -0.545200
      7 C7          6.7700   -0.1590   -1.9910 c         1 FPX      0.585700
      8 O8          6.4380   -0.4240   -3.1380 o         1 FPX     -0.423100
      9 C9          7.7460   -0.8390   -1.1440 ca        1 FPX     -0.209600
     10 C10         7.6850   -0.8400    0.2600 ca        1 FPX     -0.070000
     11 C11         8.6440   -1.5270    0.9950 ca        1 FPX     -0.123000
     12 C12         9.6730   -2.2190    0.3450 ca        1 FPX     -0.003000
     13 C13         9.7250   -2.2260   -1.0500 ca        1 FPX     -0.169300
     14 C14         8.7660   -1.5480   -1.8030 ca        1 FPX      0.000000
     15 C15        10.8500   -2.9750   -1.7740 c3        1 FPX      0.692200
     16 F16        11.3720   -4.0190   -1.0570 f         1 FPX     -0.214633
     17 F17        10.4640   -3.5200   -2.9720 f         1 FPX     -0.214633
     18 F18        11.9230   -2.1760   -2.0780 f         1 FPX     -0.214633
     19 C19         3.7530    0.6020   -1.9820 ca        1 FPX     -0.050000
     20 C20         2.4110    0.4300   -1.6120 ca        1 FPX     -0.042800
     21 C21         1.4240    0.1990   -2.6690 cc        1 FPX     -0.110400
     22 C22         0.4920   -0.7840   -2.6080 cd        1 FPX     -0.007200
     23 C23        -0.4770   -0.9360   -3.6520 ca        1 FPX     -0.336400
     24 C24        -1.4670   -1.9460   -3.6350 ca        1 FPX      0.521200
     25 N25        -2.3960   -2.0800   -4.5920 nb        1 FPX     -0.695000
     26 C26        -2.3220   -1.1520   -5.6110 ca        1 FPX      0.772900
     27 N27        -3.3580   -1.2870   -6.6910 n4        1 FPX     -0.609100
     28 C28        -2.9790   -2.3100   -7.6740 ca        1 FPX     -0.067400
     29 C29        -3.2690   -3.6610   -7.4120 ca        1 FPX     -0.092000
     30 C30        -2.9470   -4.6160   -8.3750 ca        1 FPX     -0.105500
     31 C31        -2.3420   -4.2370   -9.5750 ca        1 FPX     -0.062000
     32 C32        -2.0500   -2.8930   -9.8190 ca        1 FPX     -0.105500
     33 C33        -2.3600   -1.9190   -8.8740 ca        1 FPX     -0.092000
     34 N34        -1.4320   -0.1420   -5.7640 nb        1 FPX     -0.717000
     35 C35        -0.4760   -0.0210   -4.7660 ca        1 FPX      0.608200
     36 N36         0.4800    0.9800   -4.8440 n         1 FPX     -0.403300
     37 C37         0.4720    1.9090   -5.9580 c3        1 FPX      0.056300
     38 C38         1.4850    1.1020   -3.8440 c         1 FPX      0.705700
     39 O39         2.3730    1.9540   -4.0040 o         1 FPX     -0.580500
     40 H1          0.4410   -0.6980    0.4840 hc        1 FPX      0.071367
     41 H1A         0.4610    0.9990    1.1150 hc        1 FPX      0.071367
     42 H1B        -0.0820    0.6780   -0.5840 hc        1 FPX      0.071367
     43 H3          2.7520    0.8120    1.7750 ha        1 FPX      0.177000
     44 H4          5.1170    1.1300    1.1410 ha        1 FPX      0.158000
     45 HN6         6.6570    1.4290   -0.6090 hn        1 FPX      0.468300
     46 H10         6.8680   -0.3300    0.7960 ha        1 FPX      0.135000
     47 H11         8.5960   -1.5330    2.0970 ha        1 FPX      0.177000
     48 H12        10.4360   -2.7650    0.9310 ha        1 FPX      0.191000
     49 H14         8.8070   -1.5750   -2.9080 ha        1 FPX      0.185000
     50 H19         4.0290    0.5510   -3.0520 ha        1 FPX      0.181000
     51 H22         0.4490   -1.4860   -1.7560 ha        1 FPX      0.171000
     52 H24        -1.5200   -2.6850   -2.8080 h4        1 FPX      0.072100
     53 HN27       -3.4720   -0.3800   -7.1700 hn        1 FPX      0.482300
     54 H29        -3.7420   -3.9760   -6.4660 ha        1 FPX      0.163000
     55 H30        -3.1790   -5.6780   -8.1830 ha        1 FPX      0.175500
     56 H31        -2.0970   -5.0010  -10.3330 ha        1 FPX      0.176000
     57 H32        -1.5730   -2.5950  -10.7690 ha        1 FPX      0.175500
     58 H33        -2.1220   -0.8630   -9.0830 ha        1 FPX      0.163000
     59 H37         1.2990    2.6600   -5.8310 h1        1 FPX      0.082367
     60 H37A       -0.5110    2.4500   -5.9940 h1        1 FPX      0.082367
     61 H37B        0.6290    1.3500   -6.9190 h1        1 FPX      0.082367
     62 H62         6.1080    1.8220   -2.1410 hn        1 FPX      0.468300
     63 H272       -4.2530   -1.5560   -6.2530 hn        1 FPX      0.482300
@<TRIPOS>BOND
     1    1    2 1   
     2    1   40 1   
     3    1   41 1   
     4    1   42 1   
     5    2    3 ar  
     6    2   20 ar  
     7    3    4 ar  
     8    3   43 1   
     9    4    5 ar  
    10    4   44 1   
    11    5    6 1   
    12    5   19 ar  
    13    6    7 1   
    14    6   45 1   
    15    6   62 1   
    16    7    8 2   
    17    7    9 1   
    18    9   10 ar  
    19    9   14 ar  
    20   10   11 ar  
    21   10   46 1   
    22   11   12 ar  
    23   11   47 1   
    24   12   13 ar  
    25   12   48 1   
    26   13   14 ar  
    27   13   15 1   
    28   14   49 1   
    29   15   16 1   
    30   15   17 1   
    31   15   18 1   
    32   19   20 ar  
    33   19   50 1   
    34   20   21 1   
    35   21   22 2   
    36   21   38 1   
    37   22   23 1   
    38   22   51 1   
    39   23   24 ar  
    40   23   35 ar  
    41   24   25 ar  
    42   24   52 1   
    43   25   26 ar  
    44   26   27 1   
    45   26   34 ar  
    46   27   28 1   
    47   27   53 1   
    48   27   63 1   
    49   28   29 ar  
    50   28   33 ar  
    51   29   30 ar  
    52   29   54 1   
    53   30   31 ar  
    54   30   55 1   
    55   31   32 ar  
    56   31   56 1   
    57   32   33 ar  
    58   32   57 1   
    59   33   58 1   
    60   34   35 ar  
    61   35   36 1   
    62   36   37 1   
    63   36   38 1   
    64   37   59 1   
    65   37   60 1   
    66   37   61 1   
    67   38   39 2   
@<TRIPOS>SUBSTRUCTURE
     1 FPX         1 TEMP              0 ****  ****    0 ROOT
