@<TRIPOS>MOLECULE
FPX
   61    65     1     0     0
SMALL
bcc


@<TRIPOS>ATOM
      1 C1          0.1860    0.7840    0.3440 c3        1 FPX     -0.060800
      2 C2          1.6340    0.5530    0.1370 ca        1 FPX     -0.056300
      3 C3          2.5100    0.6020    1.2280 ca        1 FPX     -0.112000
      4 C4          3.8720    0.3870    1.0740 ca        1 FPX     -0.165000
      5 C5          4.4070    0.1130   -0.2060 ca        1 FPX      0.049600
      6 N6          5.7960   -0.0770   -0.3350 ns        1 FPX     -0.466100
      7 C7          6.4370   -0.7570   -1.3590 c         1 FPX      0.677700
      8 O8          5.8360   -1.2710   -2.3190 o         1 FPX     -0.580100
      9 C9          7.9260   -0.8490   -1.2470 ca        1 FPX     -0.150600
     10 C10         8.7060    0.2490   -0.8740 ca        1 FPX     -0.077000
     11 C11        10.0950    0.1260   -0.8070 ca        1 FPX     -0.140000
     12 C12        10.7070   -1.0890   -1.1090 ca        1 FPX     -0.062000
     13 C13         9.9230   -2.1810   -1.4910 ca        1 FPX     -0.175300
     14 C14         8.5340   -2.0670   -1.5690 ca        1 FPX     -0.033000
     15 C15        10.5940   -3.5030   -1.8450 c3        1 FPX      0.689200
     16 F16        11.7520   -3.7540   -1.1490 f         1 FPX     -0.233967
     17 F17         9.8200   -4.6150   -1.6220 f         1 FPX     -0.233967
     18 F18        10.9670   -3.6090   -3.1630 f         1 FPX     -0.233967
     19 C19         3.5330    0.0700   -1.3080 ca        1 FPX     -0.128000
     20 C20         2.1600    0.2910   -1.1390 ca        1 FPX     -0.019800
     21 C21         1.3070    0.2080   -2.3270 cc        1 FPX     -0.148400
     22 C22         1.1900   -0.9500   -3.0260 cd        1 FPX      0.012800
     23 C23         0.3720   -1.0190   -4.1910 ca        1 FPX     -0.415400
     24 C24         0.1980   -2.2010   -4.9500 ca        1 FPX      0.516200
     25 N25        -0.5560   -2.2840   -6.0400 nb        1 FPX     -0.747000
     26 C26        -1.2020   -1.1010   -6.4330 ca        1 FPX      0.918900
     27 N27        -1.9480   -1.0950   -7.6200 nu        1 FPX     -0.710300
     28 C28        -2.3950   -2.2810   -8.2500 ca        1 FPX      0.127600
     29 C29        -3.7750   -2.4590   -8.4950 ca        1 FPX     -0.131500
     30 C30        -4.2230   -3.5820   -9.1830 ca        1 FPX     -0.119000
     31 C31        -3.3200   -4.5450   -9.6300 ca        1 FPX     -0.135000
     32 C32        -1.9570   -4.3760   -9.3920 ca        1 FPX     -0.119000
     33 C33        -1.4860   -3.2530   -8.7140 ca        1 FPX     -0.131500
     34 N34        -1.1280    0.1030   -5.7660 nb        1 FPX     -0.808000
     35 C35        -0.3280    0.1500   -4.6500 ca        1 FPX      0.618200
     36 N36        -0.1990    1.3470   -3.9430 n         1 FPX     -0.426300
     37 C37        -0.8830    2.5300   -4.4150 c3        1 FPX      0.070300
     38 C38         0.6100    1.4290   -2.7780 c         1 FPX      0.712700
     39 O39         0.6900    2.5290   -2.2020 o         1 FPX     -0.617500
     40 H1         -0.0740    0.7810    1.4300 hc        1 FPX      0.051367
     41 H1A        -0.4140   -0.0090   -0.1670 hc        1 FPX      0.051367
     42 H1B        -0.1030    1.7760   -0.0900 hc        1 FPX      0.051367
     43 H3          2.1090    0.8130    2.2320 ha        1 FPX      0.135000
     44 H4          4.5270    0.4340    1.9580 ha        1 FPX      0.129000
     45 HN6         6.3440    0.1970    0.4500 hn        1 FPX      0.319500
     46 H10         8.2360    1.2200   -0.6480 ha        1 FPX      0.147000
     47 H11        10.7090    0.9910   -0.5160 ha        1 FPX      0.149000
     48 H12        11.8020   -1.1940   -1.0500 ha        1 FPX      0.156000
     49 H14         7.9160   -2.9250   -1.8870 ha        1 FPX      0.173000
     50 H19         3.9190   -0.1410   -2.3200 ha        1 FPX      0.168000
     51 H22         1.7250   -1.8610   -2.7080 ha        1 FPX      0.153000
     52 H24         0.7070   -3.1360   -4.6430 h4        1 FPX      0.035100
     53 HN27       -2.5450   -0.3020   -7.7480 hn        1 FPX      0.446800
     54 H29        -4.5050   -1.7120   -8.1480 ha        1 FPX      0.143500
     55 H30        -5.3000   -3.7090   -9.3690 ha        1 FPX      0.135000
     56 H31        -3.6810   -5.4340  -10.1670 ha        1 FPX      0.135000
     57 H32        -1.2400   -5.1320   -9.7440 ha        1 FPX      0.135000
     58 H33        -0.4050   -3.1380   -8.5440 ha        1 FPX      0.143500
     59 H37        -1.9920    2.3540   -4.4150 h1        1 FPX      0.062700
     60 H37A       -0.5510    2.7730   -5.4600 h1        1 FPX      0.062700
     61 H37B       -0.6490    3.3990   -3.7440 h1        1 FPX      0.062700
@<TRIPOS>BOND
     1    1    2 1   
     2    1   40 1   
     3    1   41 1   
     4    1   42 1   
     5    2    3 ar  
     6    2   20 ar  
     7    3    4 ar  
     8    3   43 1   
     9    4    5 ar  
    10    4   44 1   
    11    5    6 1   
    12    5   19 ar  
    13    6    7 1   
    14    6   45 1   
    15    7    8 2   
    16    7    9 1   
    17    9   10 ar  
    18    9   14 ar  
    19   10   11 ar  
    20   10   46 1   
    21   11   12 ar  
    22   11   47 1   
    23   12   13 ar  
    24   12   48 1   
    25   13   14 ar  
    26   13   15 1   
    27   14   49 1   
    28   15   16 1   
    29   15   17 1   
    30   15   18 1   
    31   19   20 ar  
    32   19   50 1   
    33   20   21 1   
    34   21   22 2   
    35   21   38 1   
    36   22   23 1   
    37   22   51 1   
    38   23   24 ar  
    39   23   35 ar  
    40   24   25 ar  
    41   24   52 1   
    42   25   26 ar  
    43   26   27 1   
    44   26   34 ar  
    45   27   28 1   
    46   27   53 1   
    47   28   29 ar  
    48   28   33 ar  
    49   29   30 ar  
    50   29   54 1   
    51   30   31 ar  
    52   30   55 1   
    53   31   32 ar  
    54   31   56 1   
    55   32   33 ar  
    56   32   57 1   
    57   33   58 1   
    58   34   35 ar  
    59   35   36 1   
    60   36   37 1   
    61   36   38 1   
    62   37   59 1   
    63   37   60 1   
    64   37   61 1   
    65   38   39 2   
@<TRIPOS>SUBSTRUCTURE
     1 FPX         1 TEMP              0 ****  ****    0 ROOT
