@<TRIPOS>MOLECULE
FPX
   61    65     1     0     0
SMALL
bcc


@<TRIPOS>ATOM
      1 C1          0.9580    4.9560   -0.9480 c3        1 FPX     -0.060800
      2 C2         -0.2330    4.0990   -0.7500 ca        1 FPX     -0.056300
      3 C3         -1.5040    4.5890   -1.0710 ca        1 FPX     -0.112000
      4 C4         -2.6430    3.8160   -0.9040 ca        1 FPX     -0.165000
      5 C5         -2.5390    2.4990   -0.3970 ca        1 FPX      0.049600
      6 N6         -3.7140    1.7460   -0.2150 n         1 FPX     -0.466100
      7 C7         -3.8000    0.3640   -0.1560 c         1 FPX      0.677700
      8 O8         -2.8100   -0.3860   -0.2390 o         1 FPX     -0.580100
      9 C9         -5.1760   -0.1970    0.0090 ca        1 FPX     -0.150600
     10 C10        -6.0920    0.3520    0.9110 ca        1 FPX     -0.077000
     11 C11        -7.3570   -0.2190    1.0520 ca        1 FPX     -0.140000
     12 C12        -7.7120   -1.3350    0.2960 ca        1 FPX     -0.062000
     13 C13        -6.7900   -1.8850   -0.5980 ca        1 FPX     -0.175300
     14 C14        -5.5190   -1.3270   -0.7420 ca        1 FPX     -0.033000
     15 C15        -7.1700   -3.1190   -1.4070 c3        1 FPX      0.689200
     16 F16        -8.5030   -3.1960   -1.7310 f         1 FPX     -0.233967
     17 F17        -6.5230   -3.2320   -2.6140 f         1 FPX     -0.233967
     18 F18        -6.9100   -4.3100   -0.7720 f         1 FPX     -0.233967
     19 C19        -1.2640    2.0030   -0.0640 ca        1 FPX     -0.128000
     20 C20        -0.1230    2.7970   -0.2360 ca        1 FPX     -0.019800
     21 C21         1.1730    2.2060    0.1080 cc        1 FPX     -0.148400
     22 C22         1.6430    1.1150   -0.5500 cd        1 FPX      0.012800
     23 C23         2.8970    0.5350   -0.1970 ca        1 FPX     -0.415400
     24 C24         3.4460   -0.5910   -0.8570 ca        1 FPX      0.516200
     25 N25         4.6090   -1.1470   -0.5400 nb        1 FPX     -0.747000
     26 C26         5.3050   -0.5540    0.5230 ca        1 FPX      0.918900
     27 N27         6.5010   -1.1380    0.9650 nh        1 FPX     -0.710300
     28 C28         7.2360   -2.0610    0.1830 ca        1 FPX      0.127600
     29 C29         8.5880   -1.7870   -0.1250 ca        1 FPX     -0.131500
     30 C30         9.3480   -2.7180   -0.8250 ca        1 FPX     -0.119000
     31 C31         8.7840   -3.9250   -1.2370 ca        1 FPX     -0.135000
     32 C32         7.4520   -4.2020   -0.9370 ca        1 FPX     -0.119000
     33 C33         6.6760   -3.2870   -0.2280 ca        1 FPX     -0.131500
     34 N34         4.8860    0.5550    1.2280 nb        1 FPX     -0.808000
     35 C35         3.6720    1.0940    0.8770 ca        1 FPX      0.618200
     36 N36         3.1850    2.2060    1.5670 n         1 FPX     -0.426300
     37 C37         3.9530    2.7560    2.6620 c3        1 FPX      0.070300
     38 C38         1.9400    2.7960    1.2230 c         1 FPX      0.712700
     39 O39         1.5600    3.7790    1.8850 o         1 FPX     -0.617500
     40 H1          1.3620    5.2750    0.0480 hc        1 FPX      0.051367
     41 H1A         1.7620    4.3930   -1.4860 hc        1 FPX      0.051367
     42 H1B         0.7080    5.8690   -1.5410 hc        1 FPX      0.051367
     43 H3         -1.6030    5.6120   -1.4690 ha        1 FPX      0.135000
     44 H4         -3.6240    4.2380   -1.1690 ha        1 FPX      0.129000
     45 HN6        -4.5670    2.2590   -0.2600 hn        1 FPX      0.319500
     46 H10        -5.8180    1.2230    1.5270 ha        1 FPX      0.147000
     47 H11        -8.0780    0.2100    1.7650 ha        1 FPX      0.149000
     48 H12        -8.7130   -1.7850    0.3980 ha        1 FPX      0.156000
     49 H14        -4.7840   -1.7720   -1.4350 ha        1 FPX      0.173000
     50 H19        -1.1490    0.9810    0.3340 ha        1 FPX      0.168000
     51 H22         1.0660    0.6540   -1.3690 ha        1 FPX      0.153000
     52 H24         2.8970   -1.0610   -1.6970 h4        1 FPX      0.035100
     53 HN27        7.0550   -0.5740    1.5790 hn        1 FPX      0.446800
     54 H29         9.0520   -0.8390    0.1880 ha        1 FPX      0.143500
     55 H30        10.4000   -2.4950   -1.0580 ha        1 FPX      0.135000
     56 H31         9.3880   -4.6550   -1.7960 ha        1 FPX      0.135000
     57 H32         7.0020   -5.1540   -1.2570 ha        1 FPX      0.135000
     58 H33         5.6280   -3.5320    0.0050 ha        1 FPX      0.143500
     59 H37         4.9520    3.1060    2.2890 h1        1 FPX      0.062700
     60 H37A        3.4030    3.6260    3.1120 h1        1 FPX      0.062700
     61 H37B        4.1090    1.9730    3.4510 h1        1 FPX      0.062700
@<TRIPOS>BOND
     1    1    2 1   
     2    1   40 1   
     3    1   41 1   
     4    1   42 1   
     5    2    3 ar  
     6    2   20 ar  
     7    3    4 ar  
     8    3   43 1   
     9    4    5 ar  
    10    4   44 1   
    11    5    6 1   
    12    5   19 ar  
    13    6    7 1   
    14    6   45 1   
    15    7    8 2   
    16    7    9 1   
    17    9   10 ar  
    18    9   14 ar  
    19   10   11 ar  
    20   10   46 1   
    21   11   12 ar  
    22   11   47 1   
    23   12   13 ar  
    24   12   48 1   
    25   13   14 ar  
    26   13   15 1   
    27   14   49 1   
    28   15   16 1   
    29   15   17 1   
    30   15   18 1   
    31   19   20 ar  
    32   19   50 1   
    33   20   21 1   
    34   21   22 2   
    35   21   38 1   
    36   22   23 1   
    37   22   51 1   
    38   23   24 ar  
    39   23   35 ar  
    40   24   25 ar  
    41   24   52 1   
    42   25   26 ar  
    43   26   27 1   
    44   26   34 ar  
    45   27   28 1   
    46   27   53 1   
    47   28   29 ar  
    48   28   33 ar  
    49   29   30 ar  
    50   29   54 1   
    51   30   31 ar  
    52   30   55 1   
    53   31   32 ar  
    54   31   56 1   
    55   32   33 ar  
    56   32   57 1   
    57   33   58 1   
    58   34   35 ar  
    59   35   36 1   
    60   36   37 1   
    61   36   38 1   
    62   37   59 1   
    63   37   60 1   
    64   37   61 1   
    65   38   39 2   
@<TRIPOS>SUBSTRUCTURE
     1 FPX         1 TEMP              0 ****  ****    0 ROOT
