@<TRIPOS>MOLECULE
FPX
   61    65     1     0     0
SMALL
bcc


@<TRIPOS>ATOM
      1 C1          0.1850    0.7490    0.3560 c3        1 FPX     -0.060800
      2 C2          1.6330    0.5270    0.1450 ca        1 FPX     -0.056300
      3 C3          2.5100    0.5750    1.2350 ca        1 FPX     -0.112000
      4 C4          3.8730    0.3680    1.0790 ca        1 FPX     -0.165000
      5 C5          4.4080    0.1040   -0.2040 ca        1 FPX      0.049600
      6 N6          5.7980   -0.0770   -0.3360 n         1 FPX     -0.466100
      7 C7          6.4420   -0.7460   -1.3650 c         1 FPX      0.677700
      8 O8          5.8420   -1.2590   -2.3280 o         1 FPX     -0.580100
      9 C9          7.9310   -0.8290   -1.2570 ca        1 FPX     -0.150600
     10 C10         8.7050    0.2720   -0.8780 ca        1 FPX     -0.077000
     11 C11        10.0940    0.1560   -0.8140 ca        1 FPX     -0.140000
     12 C12        10.7140   -1.0530   -1.1250 ca        1 FPX     -0.062000
     13 C13         9.9360   -2.1470   -1.5120 ca        1 FPX     -0.175300
     14 C14         8.5470   -2.0420   -1.5870 ca        1 FPX     -0.033000
     15 C15        10.6150   -3.4630   -1.8750 c3        1 FPX      0.689200
     16 F16        11.7760   -3.7110   -1.1820 f         1 FPX     -0.233967
     17 F17         9.8480   -4.5810   -1.6590 f         1 FPX     -0.233967
     18 F18        10.9870   -3.5580   -3.1940 f         1 FPX     -0.233967
     19 C19         3.5320    0.0630   -1.3050 ca        1 FPX     -0.128000
     20 C20         2.1590    0.2750   -1.1330 ca        1 FPX     -0.019800
     21 C21         1.3040    0.1940   -2.3200 cc        1 FPX     -0.148400
     22 C22         1.1890   -0.9620   -3.0230 cd        1 FPX      0.012800
     23 C23         0.3690   -1.0280   -4.1880 ca        1 FPX     -0.415400
     24 C24         0.1980   -2.2080   -4.9510 ca        1 FPX      0.516200
     25 N25        -0.5580   -2.2880   -6.0400 nb        1 FPX     -0.747000
     26 C26        -1.2070   -1.1060   -6.4280 ca        1 FPX      0.918900
     27 N27        -1.9550   -1.0960   -7.6140 nh        1 FPX     -0.710300
     28 C28        -2.4000   -2.2810   -8.2470 ca        1 FPX      0.127600
     29 C29        -3.7800   -2.4620   -8.4900 ca        1 FPX     -0.131500
     30 C30        -4.2270   -3.5830   -9.1810 ca        1 FPX     -0.119000
     31 C31        -3.3220   -4.5430   -9.6330 ca        1 FPX     -0.135000
     32 C32        -1.9600   -4.3710   -9.3970 ca        1 FPX     -0.119000
     33 C33        -1.4900   -3.2500   -8.7150 ca        1 FPX     -0.131500
     34 N34        -1.1350    0.0960   -5.7550 nb        1 FPX     -0.808000
     35 C35        -0.3340    0.1410   -4.6400 ca        1 FPX      0.618200
     36 N36        -0.2070    1.3350   -3.9290 n         1 FPX     -0.426300
     37 C37        -0.8960    2.5180   -4.3950 c3        1 FPX      0.070300
     38 C38         0.6020    1.4140   -2.7650 c         1 FPX      0.712700
     39 O39         0.6790    2.5130   -2.1840 o         1 FPX     -0.617500
     40 H1         -0.0740    0.7440    1.4430 hc        1 FPX      0.051367
     41 H1A        -0.4120   -0.0470   -0.1550 hc        1 FPX      0.051367
     42 H1B        -0.1110    1.7400   -0.0770 hc        1 FPX      0.051367
     43 H3          2.1100    0.7780    2.2410 ha        1 FPX      0.135000
     44 H4          4.5290    0.4140    1.9610 ha        1 FPX      0.129000
     45 HN6         6.3450    0.1960    0.4490 hn        1 FPX      0.319500
     46 H10         8.2290    1.2370   -0.6450 ha        1 FPX      0.147000
     47 H11        10.7040    1.0240   -0.5190 ha        1 FPX      0.149000
     48 H12        11.8100   -1.1510   -1.0680 ha        1 FPX      0.156000
     49 H14         7.9330   -2.9010   -1.9090 ha        1 FPX      0.173000
     50 H19         3.9180   -0.1410   -2.3180 ha        1 FPX      0.168000
     51 H22         1.7280   -1.8730   -2.7100 ha        1 FPX      0.153000
     52 H24         0.7100   -3.1420   -4.6480 h4        1 FPX      0.035100
     53 HN27       -2.5540   -0.3040   -7.7380 hn        1 FPX      0.446800
     54 H29        -4.5110   -1.7180   -8.1390 ha        1 FPX      0.143500
     55 H30        -5.3040   -3.7120   -9.3670 ha        1 FPX      0.135000
     56 H31        -3.6820   -5.4300  -10.1730 ha        1 FPX      0.135000
     57 H32        -1.2410   -5.1250   -9.7530 ha        1 FPX      0.135000
     58 H33        -0.4080   -3.1330   -8.5470 ha        1 FPX      0.143500
     59 H37        -2.0040    2.3390   -4.3940 h1        1 FPX      0.063033
     60 H37A       -0.6630    3.3850   -3.7210 h1        1 FPX      0.063033
     61 H37B       -0.5660    2.7670   -5.4390 h1        1 FPX      0.063033
@<TRIPOS>BOND
     1    1    2 1   
     2    1   40 1   
     3    1   41 1   
     4    1   42 1   
     5    2    3 ar  
     6    2   20 ar  
     7    3    4 ar  
     8    3   43 1   
     9    4    5 ar  
    10    4   44 1   
    11    5    6 1   
    12    5   19 ar  
    13    6    7 1   
    14    6   45 1   
    15    7    8 2   
    16    7    9 1   
    17    9   10 ar  
    18    9   14 ar  
    19   10   11 ar  
    20   10   46 1   
    21   11   12 ar  
    22   11   47 1   
    23   12   13 ar  
    24   12   48 1   
    25   13   14 ar  
    26   13   15 1   
    27   14   49 1   
    28   15   16 1   
    29   15   17 1   
    30   15   18 1   
    31   19   20 ar  
    32   19   50 1   
    33   20   21 1   
    34   21   22 2   
    35   21   38 1   
    36   22   23 1   
    37   22   51 1   
    38   23   24 ar  
    39   23   35 ar  
    40   24   25 ar  
    41   24   52 1   
    42   25   26 ar  
    43   26   27 1   
    44   26   34 ar  
    45   27   28 1   
    46   27   53 1   
    47   28   29 ar  
    48   28   33 ar  
    49   29   30 ar  
    50   29   54 1   
    51   30   31 ar  
    52   30   55 1   
    53   31   32 ar  
    54   31   56 1   
    55   32   33 ar  
    56   32   57 1   
    57   33   58 1   
    58   34   35 ar  
    59   35   36 1   
    60   36   37 1   
    61   36   38 1   
    62   37   59 1   
    63   37   60 1   
    64   37   61 1   
    65   38   39 2   
@<TRIPOS>SUBSTRUCTURE
     1 FPX         1 TEMP              0 ****  ****    0 ROOT
