@<TRIPOS>MOLECULE
FPY
   14    14     1     0     0
SMALL
bcc


@<TRIPOS>ATOM
      1 N1         -0.9880    1.2400   -0.3800 n         1 FPY     -0.475100
      2 C2         -1.5640   -0.0100   -0.0550 c         1 FPY      0.791500
      3 O2         -2.7840   -0.1940   -0.2590 o         1 FPY     -0.645500
      4 N3         -0.7600   -0.9930    0.5310 n         1 FPY     -0.569900
      5 C4          0.6890   -0.9080    0.5580 c3        1 FPY      0.336700
      6 O4          1.2880   -1.8430   -0.3300 oh        1 FPY     -0.602800
      7 C5          1.1860    0.5010    0.2870 c2        1 FPY     -0.047700
      8 F5          2.5030    0.7150    0.4960 f         1 FPY     -0.148500
      9 C6          0.3490    1.4920   -0.1380 c2        1 FPY     -0.022400
     10 HN1        -1.6060    1.9800   -0.6210 hn        1 FPY      0.351500
     11 HN3        -1.1490   -1.9110    0.5520 hn        1 FPY      0.340500
     12 H4          1.0370   -1.2620    1.5800 h2        1 FPY      0.110700
     13 HO4         1.2650   -1.4890   -1.2280 ho        1 FPY      0.411000
     14 H6          0.6990    2.5220   -0.3280 h4        1 FPY      0.170000
@<TRIPOS>BOND
     1    1    2 1   
     2    1    9 1   
     3    1   10 1   
     4    2    3 2   
     5    2    4 1   
     6    4    5 1   
     7    4   11 1   
     8    5    6 1   
     9    5    7 1   
    10    5   12 1   
    11    6   13 1   
    12    7    8 1   
    13    7    9 2   
    14    9   14 1   
@<TRIPOS>SUBSTRUCTURE
     1 FPY         1 TEMP              0 ****  ****    0 ROOT
