@<TRIPOS>MOLECULE
FPY
   14    14     1     0     0
SMALL
bcc


@<TRIPOS>ATOM
      1 N1         -0.0430    0.0610   -0.0200 n         1 FPY     -0.473100
      2 C2          1.3640    0.0020    0.0150 c         1 FPY      0.794500
      3 O2          2.0130    0.0980   -1.0500 o         1 FPY     -0.649500
      4 N3          2.0060   -0.2400    1.2430 n         1 FPY     -0.552900
      5 C4          1.3210   -0.0420    2.5090 c3        1 FPY      0.326700
      6 O4          1.6570    1.2130    3.1030 oh        1 FPY     -0.601800
      7 C5         -0.1920   -0.0500    2.3640 c2        1 FPY      0.005300
      8 F5         -0.8960   -0.0980    3.5140 f         1 FPY     -0.149500
      9 C6         -0.7920    0.0050    1.1410 c2        1 FPY     -0.023400
     10 HN1        -0.4830    0.1160   -0.9080 hn        1 FPY      0.353500
     11 HN3         2.9790   -0.0230    1.2380 hn        1 FPY      0.323500
     12 H4          1.6390   -0.8870    3.1950 h2        1 FPY      0.071700
     13 HO4         2.4960    1.1080    3.5660 ho        1 FPY      0.408000
     14 H6         -1.8900    0.0040    1.0180 h4        1 FPY      0.169000
@<TRIPOS>BOND
     1    1    2 1   
     2    1    9 1   
     3    1   10 1   
     4    2    3 2   
     5    2    4 1   
     6    4    5 1   
     7    4   11 1   
     8    5    6 1   
     9    5    7 1   
    10    5   12 1   
    11    6   13 1   
    12    7    8 1   
    13    7    9 2   
    14    9   14 1   
@<TRIPOS>SUBSTRUCTURE
     1 FPY         1 TEMP              0 ****  ****    0 ROOT
