@<TRIPOS>MOLECULE
FPY
   14    14     1     0     0
SMALL
bcc


@<TRIPOS>ATOM
      1 N1         -1.0030    0.3880   -1.5270 n         1 FPY     -0.473100
      2 C2          0.4720    0.3880   -1.5270 c         1 FPY      0.794500
      3 O2          1.0810    0.0880   -2.5370 o         1 FPY     -0.649500
      4 N3          1.1170    0.3880   -0.3070 n         1 FPY     -0.552900
      5 C4          0.5650   -0.4050    0.7560 c3        1 FPY      0.326700
      6 O4          1.3790   -0.2470    1.9940 oh        1 FPY     -0.601800
      7 C5         -0.8540   -0.1180    1.0000 c2        1 FPY      0.005300
      8 F5         -1.2670    0.2260    2.2300 f         1 FPY     -0.149500
      9 C6         -1.7090    0.2210   -0.2120 c2        1 FPY     -0.023400
     10 HN1        -1.4590    0.6980   -2.2530 hn        1 FPY      0.353500
     11 HN3         1.9670    0.7110   -0.2410 hn        1 FPY      0.323500
     12 H4          0.6870   -1.3570    0.5750 h2        1 FPY      0.071700
     13 HO4         1.6950   -1.0380    2.2430 ho        1 FPY      0.408000
     14 H6         -2.6710    0.0580   -0.1920 h4        1 FPY      0.169000
@<TRIPOS>BOND
     1    1    2 1   
     2    1    9 1   
     3    1   10 1   
     4    2    3 2   
     5    2    4 1   
     6    4    5 1   
     7    4   11 1   
     8    5    6 1   
     9    5    7 1   
    10    5   12 1   
    11    6   13 1   
    12    7    8 1   
    13    7    9 2   
    14    9   14 1   
@<TRIPOS>SUBSTRUCTURE
     1 FPY         1 TEMP              0 ****  ****    0 ROOT
