@<TRIPOS>MOLECULE
FPY
   14    14     1     0     0
SMALL
bcc


@<TRIPOS>ATOM
      1 N1         -0.0440    0.0530   -0.0290 ns        1 FPY     -0.473100
      2 C2          1.3620   -0.0170    0.0070 c         1 FPY      0.794500
      3 O2          2.0130    0.0680   -1.0580 o         1 FPY     -0.649500
      4 N3          2.0020   -0.2580    1.2370 ns        1 FPY     -0.552900
      5 C4          1.3180   -0.0480    2.5020 c3        1 FPY      0.326700
      6 O4          1.6640    1.2080    3.0890 oh        1 FPY     -0.601800
      7 C5         -0.1950   -0.0440    2.3560 c2        1 FPY      0.005300
      8 F5         -0.9000   -0.0810    3.5060 f         1 FPY     -0.149500
      9 C6         -0.7940    0.0090    1.1330 c2        1 FPY     -0.023400
     10 HN1        -0.4840    0.1070   -0.9170 hn        1 FPY      0.353500
     11 HN3         2.9770   -0.0490    1.2310 hn        1 FPY      0.323500
     12 H4          1.6290   -0.8910    3.1920 h2        1 FPY      0.071700
     13 HO4         2.5020    1.0980    3.5540 ho        1 FPY      0.408000
     14 H6         -1.8910    0.0170    1.0090 h4        1 FPY      0.169000
@<TRIPOS>BOND
     1    1    2 1   
     2    1    9 1   
     3    1   10 1   
     4    2    3 2   
     5    2    4 1   
     6    4    5 1   
     7    4   11 1   
     8    5    6 1   
     9    5    7 1   
    10    5   12 1   
    11    6   13 1   
    12    7    8 1   
    13    7    9 2   
    14    9   14 1   
@<TRIPOS>SUBSTRUCTURE
     1 FPY         1 TEMP              0 ****  ****    0 ROOT
