@<TRIPOS>MOLECULE
FQI
   14    14     1     0     0
SMALL
bcc


@<TRIPOS>ATOM
      1 CL          0.0790   -0.0050   -0.1300 cl        1 FQI      0.070600
      2 C4          1.7330   -0.0030   -0.0190 cc        1 FQI      0.061300
      3 C2          3.8480    0.0000    0.9440 cd        1 FQI      0.012000
      4 O           6.5530    0.0040   -0.2370 o         1 FQI     -0.417100
      5 N           5.7210    0.0010   -2.3860 n4        1 FQI     -0.767400
      6 C1          4.1510    0.0000   -0.4310 cc        1 FQI     -0.312700
      7 C3          2.4560   -0.0020    1.1750 cd        1 FQI     -0.169000
      8 S           2.7440   -0.0020   -1.3530 ss        1 FQI      0.097200
      9 H3          2.0050   -0.0020    2.1750 ha        1 FQI      0.207000
     10 H2          4.6050    0.0020    1.7400 ha        1 FQI      0.199000
     11 HN1         5.3000   -0.8340   -2.8010 hn        1 FQI      0.467133
     12 HN2         5.2960    0.8340   -2.8030 hn        1 FQI      0.467133
     13 C           5.5080    0.0020   -0.8710 c         1 FQI      0.618700
     14 HN3         6.7290    0.0030   -2.5870 hn        1 FQI      0.467133
@<TRIPOS>BOND
     1    1    2 1   
     2    2    7 2   
     3    2    8 1   
     4    3    6 2   
     5    3    7 1   
     6    3   10 1   
     7    4   13 2   
     8    5   11 1   
     9    5   12 1   
    10    5   13 1   
    11    5   14 1   
    12    6    8 1   
    13    6   13 1   
    14    7    9 1   
@<TRIPOS>SUBSTRUCTURE
     1 FQI         1 TEMP              0 ****  ****    0 ROOT
