@<TRIPOS>MOLECULE
FQI
   14    13     1     0     0
SMALL
bcc


@<TRIPOS>ATOM
      1 Cl          0.1320   -1.0330    0.3120 cl        1 FQI      0.197000
      2 C4          1.6960   -0.5030    0.2860 c2        1 FQI     -0.153000
      3 C2          3.6420    0.5060    1.1650 c1        1 FQI     -0.012000
      4 O           6.2900   -1.0430   -0.1330 o         1 FQI      0.102000
      5 N           5.8720    0.1140   -2.6290 n9        1 FQI     -0.458000
      6 C1          4.0490    0.2170   -0.2550 c3        1 FQI     -0.309000
      7 C3          2.3110    0.1560    1.3610 c2        1 FQI     -0.283000
      8 S           2.6910   -0.7190   -1.0520 ss        1 FQI      0.407000
      9 H3          4.1300    1.2250   -0.7810 h1        1 FQI      0.266000
     10 H2          1.7940    0.3700    2.3100 ha        1 FQI      0.225000
     11 HN1         5.2850   -0.3100   -3.3200 hn        1 FQI      0.168333
     12 HN2         6.8000   -0.2490   -2.7350 hn        1 FQI      0.168333
     13 C           5.2970   -0.4670   -0.2710 c1        1 FQI      0.515000
     14 HN3         5.8970    1.1010   -2.7930 hn        1 FQI      0.168333
@<TRIPOS>BOND
     1    1    2 1   
     2    2    7 1   
     3    2    8 1   
     4    3    6 1   
     5    3    7 1   
     6    4   13 1   
     7    5   11 1   
     8    5   12 1   
     9    5   14 1   
    10    6    8 1   
    11    6    9 1   
    12    6   13 1   
    13    7   10 1   
@<TRIPOS>SUBSTRUCTURE
     1 FQI         1 TEMP              0 ****  ****    0 ROOT
