@<TRIPOS>MOLECULE
FQW
   44    47     1     0     0
SMALL
bcc


@<TRIPOS>ATOM
      1 CAI         0.0350   -0.1920    0.0090 ca        1 FQW     -0.125500
      2 CAE         1.4270   -0.1580   -0.0620 ca        1 FQW     -0.125000
      3 CAC         2.1800    0.1080    1.0820 ca        1 FQW     -0.121000
      4 CAF         1.5380    0.3410    2.2970 ca        1 FQW     -0.125000
      5 CAJ         0.1460    0.3080    2.3720 ca        1 FQW     -0.125500
      6 CAR        -0.6140    0.0400    1.2280 ca        1 FQW     -0.096300
      7 CAM        -2.1010    0.0190    1.2970 c3        1 FQW     -0.024100
      8 CAN        -2.6330   -1.4010    1.1490 c3        1 FQW     -0.030100
      9 CAU        -4.1040   -1.4410    1.1660 cc        1 FQW     -0.044300
     10 CAY        -4.9590   -1.4290    0.0320 cc        1 FQW     -0.178600
     11 CAW        -4.7030   -1.4060   -1.3920 c         1 FQW      0.753100
     12 OAB        -3.6220   -1.3970   -1.9880 o         1 FQW     -0.549500
     13 NAP        -5.8800   -1.3990   -2.2110 ns        1 FQW     -0.502400
     14 CAS        -7.1480   -1.4210   -1.6190 cc        1 FQW      0.474800
     15 NAA        -8.3330   -1.4130   -2.5380 nz        1 FQW     -0.791600
     16 NAO        -7.4340   -1.4490   -0.3180 nd        1 FQW     -0.524100
     17 CAX        -6.3220   -1.4560    0.5080 cd        1 FQW      0.079100
     18 NAQ        -6.2900   -1.4900    1.9010 na        1 FQW     -0.113100
     19 CAV        -4.9550   -1.4860    2.3100 cd        1 FQW      0.023700
     20 CAT        -4.5950   -1.5280    3.7190 ca        1 FQW     -0.079000
     21 CAK        -5.1350   -0.5900    4.6110 ca        1 FQW     -0.101000
     22 CAG        -4.7810   -0.6290    5.9580 ca        1 FQW     -0.124500
     23 CAD        -3.8950   -1.6020    6.4230 ca        1 FQW     -0.095000
     24 CAH        -3.3610   -2.5390    5.5380 ca        1 FQW     -0.124500
     25 CAL        -3.7080   -2.5070    4.1880 ca        1 FQW     -0.101000
     26 HAI        -0.5580   -0.3990   -0.8940 ha        1 FQW      0.132000
     27 HAE         1.9310   -0.3410   -1.0220 ha        1 FQW      0.137000
     28 HAC         3.2780    0.1360    1.0240 ha        1 FQW      0.139000
     29 HAF         2.1300    0.5550    3.2000 ha        1 FQW      0.137000
     30 HAJ        -0.3550    0.4970    3.3330 ha        1 FQW      0.132000
     31 HAM1       -2.5190    0.6600    0.4760 hc        1 FQW      0.051200
     32 HAM2       -2.4510    0.4490    2.2730 hc        1 FQW      0.051200
     33 HAN1       -2.2640   -1.8290    0.1750 hc        1 FQW      0.075200
     34 HAN2       -2.2250   -2.0370    1.9810 hc        1 FQW      0.075200
     35 HAP        -5.7590   -1.3860   -3.2000 hn        1 FQW      0.345500
     36 HAA1       -9.2020   -1.4310   -1.9830 hn        1 FQW      0.478467
     37 HAA2       -8.3160   -0.5610   -3.1100 hn        1 FQW      0.478467
     38 HAQ        -7.0780   -1.5150    2.5010 hn        1 FQW      0.329700
     39 HAK        -5.8230    0.1880    4.2490 ha        1 FQW      0.140000
     40 HAL        -3.2900   -3.2530    3.4940 ha        1 FQW      0.140000
     41 HAG        -5.2000    0.1130    6.6560 ha        1 FQW      0.150500
     42 HAD        -3.6170   -1.6290    7.4880 ha        1 FQW      0.151000
     43 HAH        -2.6630   -3.3080    5.9040 ha        1 FQW      0.150500
     44 HAA3       -8.3020   -2.2420   -3.1420 hn        1 FQW      0.478467
@<TRIPOS>BOND
     1    1    2 ar  
     2    1    6 ar  
     3    1   26 1   
     4    2    3 ar  
     5    2   27 1   
     6    3    4 ar  
     7    3   28 1   
     8    4    5 ar  
     9    4   29 1   
    10    5    6 ar  
    11    5   30 1   
    12    6    7 1   
    13    7    8 1   
    14    7   31 1   
    15    7   32 1   
    16    8    9 1   
    17    8   33 1   
    18    8   34 1   
    19    9   10 1   
    20    9   19 2   
    21   10   11 1   
    22   10   17 2   
    23   11   12 2   
    24   11   13 1   
    25   13   14 1   
    26   13   35 1   
    27   14   15 1   
    28   14   16 2   
    29   15   36 1   
    30   15   37 1   
    31   15   44 1   
    32   16   17 1   
    33   17   18 1   
    34   18   19 1   
    35   18   38 1   
    36   19   20 1   
    37   20   21 ar  
    38   20   25 ar  
    39   21   22 ar  
    40   21   39 1   
    41   22   23 ar  
    42   22   41 1   
    43   23   24 ar  
    44   23   42 1   
    45   24   25 ar  
    46   24   43 1   
    47   25   40 1   
@<TRIPOS>SUBSTRUCTURE
     1 FQW         1 TEMP              0 ****  ****    0 ROOT
