@<TRIPOS>MOLECULE
FQW
   44    47     1     0     0
SMALL
bcc


@<TRIPOS>ATOM
      1 CAI         0.0320   -0.1820    0.0050 ca        1 FQW     -0.125500
      2 CAE         1.4230   -0.1450   -0.0680 ca        1 FQW     -0.125000
      3 CAC         2.1770    0.1220    1.0760 ca        1 FQW     -0.121000
      4 CAF         1.5360    0.3520    2.2920 ca        1 FQW     -0.125000
      5 CAJ         0.1440    0.3150    2.3680 ca        1 FQW     -0.125500
      6 CAR        -0.6170    0.0470    1.2250 ca        1 FQW     -0.096300
      7 CAM        -2.1030    0.0220    1.2960 c3        1 FQW     -0.024100
      8 CAN        -2.6330   -1.3980    1.1460 c3        1 FQW     -0.030100
      9 CAU        -4.1040   -1.4420    1.1660 cc        1 FQW     -0.044300
     10 CAY        -4.9610   -1.4300    0.0340 cc        1 FQW     -0.178600
     11 CAW        -4.7070   -1.4040   -1.3910 c         1 FQW      0.753100
     12 OAB        -3.6280   -1.3910   -1.9890 o         1 FQW     -0.549500
     13 NAP        -5.8860   -1.3970   -2.2070 n         1 FQW     -0.502400
     14 CAS        -7.1530   -1.4230   -1.6130 cc        1 FQW      0.474800
     15 NAA        -8.3390   -1.4170   -2.5300 n4        1 FQW     -0.791600
     16 NAO        -7.4370   -1.4540   -0.3110 nd        1 FQW     -0.524100
     17 CAX        -6.3230   -1.4610    0.5130 cd        1 FQW      0.078100
     18 NAQ        -6.2870   -1.4980    1.9050 na        1 FQW     -0.113100
     19 CAV        -4.9520   -1.4910    2.3110 cd        1 FQW      0.023700
     20 CAT        -4.5890   -1.5350    3.7200 ca        1 FQW     -0.079000
     21 CAK        -5.1300   -0.6000    4.6150 ca        1 FQW     -0.101000
     22 CAG        -4.7730   -0.6400    5.9610 ca        1 FQW     -0.124500
     23 CAD        -3.8840   -1.6120    6.4220 ca        1 FQW     -0.095000
     24 CAH        -3.3500   -2.5470    5.5340 ca        1 FQW     -0.124500
     25 CAL        -3.7000   -2.5130    4.1850 ca        1 FQW     -0.101000
     26 HAI        -0.5620   -0.3890   -0.8980 ha        1 FQW      0.131500
     27 HAE         1.9260   -0.3250   -1.0290 ha        1 FQW      0.137000
     28 HAC         3.2750    0.1520    1.0160 ha        1 FQW      0.139000
     29 HAF         2.1280    0.5660    3.1950 ha        1 FQW      0.137000
     30 HAJ        -0.3570    0.5010    3.3300 ha        1 FQW      0.131500
     31 HAM1       -2.5250    0.6640    0.4770 hc        1 FQW      0.051700
     32 HAM2       -2.4530    0.4500    2.2730 hc        1 FQW      0.051700
     33 HAN1       -2.2220   -2.0350    1.9760 hc        1 FQW      0.075200
     34 HAN2       -2.2650   -1.8240    0.1710 hc        1 FQW      0.075200
     35 HAP        -5.7670   -1.3820   -3.1970 hn        1 FQW      0.345500
     36 HAA1       -8.3260   -0.5630   -3.0990 hn        1 FQW      0.478467
     37 HAA2       -8.3080   -2.2440   -3.1360 hn        1 FQW      0.478467
     38 HAQ        -7.0750   -1.5260    2.5070 hn        1 FQW      0.329700
     39 HAK        -5.8210    0.1760    4.2550 ha        1 FQW      0.140000
     40 HAL        -3.2810   -3.2560    3.4890 ha        1 FQW      0.140000
     41 HAG        -5.1920    0.0990    6.6610 ha        1 FQW      0.150500
     42 HAD        -3.6030   -1.6410    7.4870 ha        1 FQW      0.151000
     43 HAH        -2.6490   -3.3150    5.8970 ha        1 FQW      0.150500
     44 HAA3       -9.2070   -1.4380   -1.9740 hn        1 FQW      0.478467
@<TRIPOS>BOND
     1    1    2 ar  
     2    1    6 ar  
     3    1   26 1   
     4    2    3 ar  
     5    2   27 1   
     6    3    4 ar  
     7    3   28 1   
     8    4    5 ar  
     9    4   29 1   
    10    5    6 ar  
    11    5   30 1   
    12    6    7 1   
    13    7    8 1   
    14    7   31 1   
    15    7   32 1   
    16    8    9 1   
    17    8   33 1   
    18    8   34 1   
    19    9   10 1   
    20    9   19 2   
    21   10   11 1   
    22   10   17 2   
    23   11   12 2   
    24   11   13 1   
    25   13   14 1   
    26   13   35 1   
    27   14   15 1   
    28   14   16 2   
    29   15   36 1   
    30   15   37 1   
    31   15   44 1   
    32   16   17 1   
    33   17   18 1   
    34   18   19 1   
    35   18   38 1   
    36   19   20 1   
    37   20   21 ar  
    38   20   25 ar  
    39   21   22 ar  
    40   21   39 1   
    41   22   23 ar  
    42   22   41 1   
    43   23   24 ar  
    44   23   42 1   
    45   24   25 ar  
    46   24   43 1   
    47   25   40 1   
@<TRIPOS>SUBSTRUCTURE
     1 FQW         1 TEMP              0 ****  ****    0 ROOT
