@<TRIPOS>MOLECULE
FQX
   20    16     1     0     0
SMALL
bcc


@<TRIPOS>ATOM
      1 OAA        -4.1880   -0.0030    0.7460 o         1 FQX     -0.264000
      2 CAJ        -2.9730   -0.0030    0.7460 c1        1 FQX      0.297000
      3 CAK        -2.2350   -0.0030    2.0240 c1        1 FQX      0.297000
      4 OAB        -2.8410    0.0510    3.0760 o         1 FQX     -0.271000
      5 NAH        -0.8350   -0.0030    2.0230 n3        1 FQX     -0.315000
      6 CAN        -0.1070   -0.0030    0.7570 c2        1 FQX      0.037000
      7 CAE         1.2950   -0.0030    0.7560 c1        1 FQX     -0.083000
      8 CAO         2.0020   -0.0030   -0.4690 c1        1 FQX     -0.204000
      9 NAP         3.3330   -0.0030   -0.7520 n1        1 FQX      0.395000
     10 OAC         4.6640    0.0040   -0.4460 os        1 FQX     -0.283000
     11 OAI         3.4770   -0.0030   -2.1260 os        1 FQX     -0.053000
     12 NAF         2.2160   -0.0030   -2.6880 n2        1 FQX     -0.039000
     13 CAL         1.3040   -0.0030   -1.6770 c1        1 FQX      0.000000
     14 CAD        -0.1100   -0.0030   -1.6770 c1        1 FQX     -0.171000
     15 CAM        -0.8110   -0.0030   -0.4640 c1        1 FQX      0.115000
     16 NAG        -2.2720   -0.0030   -0.4650 n2        1 FQX     -0.319000
     17 HNAH       -0.3790   -0.0030    2.8120 hn        1 FQX      0.259000
     18 HAE         1.7840   -0.0020    1.6010 ha        1 FQX      0.169000
     19 HAD        -0.5970   -0.0040   -2.5230 ha        1 FQX      0.171000
     20 HNAG       -2.7270   -0.0030   -1.2560 hn        1 FQX      0.260000
@<TRIPOS>BOND
     1    1    2 1   
     2    2   16 1   
     3    3    4 1   
     4    3    5 1   
     5    5    6 1   
     6    5   17 1   
     7    6    7 1   
     8    6   15 1   
     9    7   18 1   
    10    8   13 1   
    11    9   11 1   
    12   11   12 1   
    13   12   13 1   
    14   14   15 1   
    15   14   19 1   
    16   16   20 1   
@<TRIPOS>SUBSTRUCTURE
     1 FQX         1 TEMP              0 ****  ****    0 ROOT
