@<TRIPOS>MOLECULE
FQX
   20    22     1     0     0
SMALL
bcc


@<TRIPOS>ATOM
      1 OAA        -4.2050    1.1670   -0.0010 o         1 FQX     -0.539500
      2 CAJ        -3.0980    0.6180   -0.0010 c         1 FQX      0.639500
      3 CAK        -2.9550   -0.9000   -0.0010 c         1 FQX      0.639500
      4 OAB        -3.9460   -1.6410   -0.0010 o         1 FQX     -0.546500
      5 NAH        -1.6750   -1.4310   -0.0000 n         1 FQX     -0.461100
      6 CAN        -0.5170   -0.6420   -0.0000 ca        1 FQX      0.029600
      7 CAE         0.7280   -1.2370    0.0000 ca        1 FQX     -0.083000
      8 CAO         1.8620   -0.3930   -0.0000 ca        1 FQX     -0.204000
      9 NAP         3.2230   -0.6430    0.0000 na        1 FQX      0.265200
     10 OAC         3.9330   -1.5930    0.0010 o         1 FQX     -0.133000
     11 OAI         3.8630    0.5850   -0.0000 os        1 FQX      0.025300
     12 NAF         3.0010    1.5990   -0.0010 nc        1 FQX     -0.137500
     13 CAL         1.7520    1.0720   -0.0010 ca        1 FQX      0.000000
     14 CAD         0.4530    1.6540   -0.0010 ca        1 FQX     -0.171000
     15 CAM        -0.6540    0.8290   -0.0010 ca        1 FQX      0.107600
     16 NAG        -1.9360    1.3810   -0.0010 n         1 FQX     -0.465100
     17 HNAH       -1.5710   -2.4230    0.0000 hn        1 FQX      0.345500
     18 HAE         0.8650   -2.3300    0.0000 ha        1 FQX      0.169000
     19 HAD         0.3690    2.7520   -0.0010 ha        1 FQX      0.171000
     20 HNAG       -2.0230    2.3760   -0.0010 hn        1 FQX      0.346500
@<TRIPOS>BOND
     1    1    2 2   
     2    2    3 1   
     3    2   16 1   
     4    3    4 2   
     5    3    5 1   
     6    5    6 1   
     7    5   17 1   
     8    6    7 ar  
     9    6   15 ar  
    10    7    8 ar  
    11    7   18 1   
    12    8    9 2   
    13    8   13 ar  
    14    9   10 1   
    15    9   11 1   
    16   11   12 1   
    17   12   13 2   
    18   13   14 ar  
    19   14   15 ar  
    20   14   19 1   
    21   15   16 1   
    22   16   20 1   
@<TRIPOS>SUBSTRUCTURE
     1 FQX         1 TEMP              0 ****  ****    0 ROOT
