@<TRIPOS>MOLECULE
FR0
   40    43     1     0     0
SMALL
bcc


@<TRIPOS>ATOM
      1 N1         -0.3440    1.3250   -4.9960 nc        1 FR0     -0.604100
      2 C2         -0.2290    0.8760   -6.3260 ca        1 FR0      0.088400
      3 C3          0.2900   -0.4800   -6.3460 ca        1 FR0     -0.084200
      4 N4          0.4460   -0.8670   -5.0060 na        1 FR0     -0.287300
      5 C5          0.1100    0.2910   -4.2290 cd        1 FR0      0.582700
      6 C6         -0.5340    1.5120   -7.5350 ca        1 FR0     -0.082000
      7 C7         -0.3200    0.8140   -8.7170 ca        1 FR0     -0.146000
      8 C8          0.1840   -0.4950   -8.7250 ca        1 FR0     -0.123000
      9 C9          0.4940   -1.1650   -7.5460 ca        1 FR0     -0.129000
     10 N10         0.3010    0.3210   -2.8260 nh        1 FR0     -0.764200
     11 C11        -0.1010   -0.8840   -2.1110 c3        1 FR0      0.253100
     12 C12        -0.3190   -0.6440   -0.6650 cc        1 FR0     -0.161400
     13 S15         0.9230   -0.4580    0.4410 ss        1 FR0      0.064200
     14 C16        -0.1180   -0.2850    1.7520 cc        1 FR0     -0.135600
     15 C17        -1.4430   -0.3680    1.3520 cd        1 FR0     -0.134000
     16 C18        -1.5580   -0.5750   -0.0520 cd        1 FR0     -0.140000
     17 C19         0.3610   -0.0780    3.0950 cc        1 FR0      0.449800
     18 N20        -0.5020   -0.0830    4.1870 nc        1 FR0     -0.725000
     19 C21         0.1980    0.1320    5.3230 cd        1 FR0      0.661400
     20 S22         1.9160    0.3430    5.0470 ss        1 FR0     -0.049300
     21 C23         1.7020    0.1440    3.4140 cd        1 FR0     -0.301400
     22 N26        -0.2110    0.1970    6.6380 nf        1 FR0     -0.806700
     23 C27        -1.4830    0.0690    7.0430 c2        1 FR0      0.847100
     24 N28        -1.6940   -0.0490    8.4460 nh        1 FR0     -0.919300
     25 N29        -2.6310    0.0580    6.2410 nh        1 FR0     -0.919300
     26 HN4         1.0440   -1.5880   -4.6990 hn        1 FR0      0.298700
     27 H6         -0.9330    2.5360   -7.5400 ha        1 FR0      0.147000
     28 H7         -0.5530    1.3000   -9.6770 ha        1 FR0      0.131000
     29 H8          0.3370   -1.0040   -9.6880 ha        1 FR0      0.131000
     30 H9          0.8830   -2.1910   -7.5610 ha        1 FR0      0.134000
     31 H10        -0.0840    1.1580   -2.4250 hn        1 FR0      0.421800
     32 H111        0.7280   -1.6390   -2.2480 h1        1 FR0      0.053200
     33 H112       -1.0430   -1.3360   -2.5460 h1        1 FR0      0.053200
     34 H17        -2.3020   -0.2850    2.0230 ha        1 FR0      0.165000
     35 H18        -2.5170   -0.6690   -0.5680 ha        1 FR0      0.156000
     36 H23         2.5120    0.1870    2.6880 h4        1 FR0      0.179000
     37 H281       -2.4930    0.4400    8.7870 hn        1 FR0      0.423550
     38 H282       -0.8760    0.1090    8.9970 hn        1 FR0      0.423550
     39 H291       -2.5160   -0.0950    5.2650 hn        1 FR0      0.423550
     40 H292       -3.4700   -0.3000    6.6320 hn        1 FR0      0.423550
@<TRIPOS>BOND
     1    1    2 1   
     2    1    5 2   
     3    2    3 ar  
     4    2    6 ar  
     5    3    4 1   
     6    3    9 ar  
     7    4    5 1   
     8    4   26 1   
     9    5   10 1   
    10    6    7 ar  
    11    6   27 1   
    12    7    8 ar  
    13    7   28 1   
    14    8    9 ar  
    15    8   29 1   
    16    9   30 1   
    17   10   11 1   
    18   10   31 1   
    19   11   12 1   
    20   11   32 1   
    21   11   33 1   
    22   12   13 1   
    23   12   16 2   
    24   13   14 1   
    25   14   15 2   
    26   14   17 1   
    27   15   16 1   
    28   15   34 1   
    29   16   35 1   
    30   17   18 1   
    31   17   21 2   
    32   18   19 2   
    33   19   20 1   
    34   19   22 1   
    35   20   21 1   
    36   21   36 1   
    37   22   23 2   
    38   23   24 1   
    39   23   25 1   
    40   24   37 1   
    41   24   38 1   
    42   25   39 1   
    43   25   40 1   
@<TRIPOS>SUBSTRUCTURE
     1 FR0         1 TEMP              0 ****  ****    0 ROOT
