@<TRIPOS>MOLECULE
FR0
   40    32     1     0     0
SMALL
bcc


@<TRIPOS>ATOM
      1 N1          4.4280   -0.5400   -1.4560 n2        1 FR0     -0.181000
      2 C2          5.7300   -0.9450   -1.4280 c1        1 FR0     -0.046000
      3 C3          5.8980   -1.7490   -0.3380 c1        1 FR0     -0.046000
      4 N4          4.7010   -1.8390    0.3040 n1        1 FR0     -0.244000
      5 C5          3.7930   -1.0920   -0.3880 c1        1 FR0      0.109000
      6 C6          6.8280   -0.6520   -2.2650 c1        1 FR0     -0.086000
      7 C7          8.0790   -1.1820   -1.9800 c1        1 FR0     -0.134500
      8 C8          8.2510   -1.9990   -0.8730 c1        1 FR0     -0.134500
      9 C9          7.1700   -2.2870   -0.0480 c1        1 FR0     -0.125000
     10 N10         2.4450   -0.7710    0.0350 n2        1 FR0     -0.251000
     11 C11         1.3500   -0.8680   -0.9060 c3        1 FR0      0.020000
     12 C12         0.0110   -0.6830   -0.1580 c2        1 FR0     -0.416000
     13 S15        -0.9430    0.5460   -0.2740 ss        1 FR0      0.576000
     14 C16        -2.1890    0.2610    0.6200 c2        1 FR0     -0.295000
     15 C17        -2.0080   -1.0440    1.2350 c1        1 FR0     -0.134000
     16 C18        -0.6070   -1.6440    0.7390 c1        1 FR0     -0.140000
     17 C19        -3.3470    1.0760    0.7210 c2        1 FR0      0.016000
     18 N20        -4.6200    0.9890   -0.2030 n2        1 FR0     -0.200000
     19 C21        -5.5770    1.9590    0.2480 c1        1 FR0     -0.136000
     20 S22        -4.9660    2.6970    1.4610 ss        1 FR0      0.534000
     21 C23        -3.5750    2.1040    1.7100 c1        1 FR0     -0.507000
     22 N26        -6.8230    2.2920   -0.4100 n1        1 FR0     -0.299000
     23 C27        -7.9210    2.4720    0.3030 c1        1 FR0      0.254000
     24 N28        -7.8800    2.3380    1.7170 n2        1 FR0     -0.382000
     25 N29        -9.1620    2.8040   -0.3530 n3        1 FR0     -0.332000
     26 HN4         4.5350   -2.3160    1.0640 DU        1 FR0      0.186000
     27 H6          6.7070   -0.0760   -3.0460 ha        1 FR0      0.147000
     28 H7          8.8390   -0.9790   -2.5600 ha        1 FR0      0.131000
     29 H8          9.1330   -2.3720   -0.6720 ha        1 FR0      0.131000
     30 H9          7.2910   -2.8640    0.7330 ha        1 FR0      0.134000
     31 H10         2.2800   -0.5530    0.9090 hn        1 FR0      0.200000
     32 H111        1.3650   -1.7480   -1.3350 h1        1 FR0      0.109000
     33 H112        1.4420   -0.1680   -1.5900 h1        1 FR0      0.109000
     34 H17        -2.6340   -1.4810    1.8460 DU        1 FR0      0.186000
     35 H18        -0.2330   -2.5070    0.9950 DU        1 FR0      0.186000
     36 H23        -2.9510    2.3740    2.4140 DU        1 FR0      0.186000
     37 H281       -7.0970    2.1310    2.1310 hn        1 FR0      0.231000
     38 H282       -8.6320    2.4970    2.2130 hn        1 FR0      0.231000
     39 H291       -9.9560    2.7050    0.0920 hn        1 FR0      0.205500
     40 H292       -9.1550    3.1130   -1.2090 hn        1 FR0      0.205500
@<TRIPOS>BOND
     1    1    2 1   
     2    1    5 1   
     3    2    6 1   
     4    3    9 1   
     5    4    5 1   
     6    6   27 1   
     7    7    8 1   
     8    7   28 1   
     9    8   29 1   
    10    9   30 1   
    11   10   11 1   
    12   10   31 1   
    13   11   12 1   
    14   11   32 1   
    15   11   33 1   
    16   12   13 1   
    17   12   16 1   
    18   13   14 1   
    19   14   15 1   
    20   14   17 1   
    21   15   16 1   
    22   17   18 1   
    23   17   21 1   
    24   18   19 1   
    25   19   20 1   
    26   20   21 1   
    27   22   23 1   
    28   23   25 1   
    29   24   37 1   
    30   24   38 1   
    31   25   39 1   
    32   25   40 1   
@<TRIPOS>SUBSTRUCTURE
     1 FR0         1 TEMP              0 ****  ****    0 ROOT
