@<TRIPOS>MOLECULE
FR0
   42    45     1     0     0
SMALL
bcc


@<TRIPOS>ATOM
      1 N1          0.0000    0.0000    0.0000 nc        1 FR0     -0.527100
      2 C2          1.3590    0.0000    0.0000 ca        1 FR0      0.092400
      3 C3          1.7720    0.0000    1.3420 ca        1 FR0     -0.251200
      4 N4          0.6120    0.0030    2.1010 na        1 FR0      0.222700
      5 C5         -0.4410    0.0060    1.2330 cd        1 FR0      0.308700
      6 C6          2.3190   -0.0030   -1.0140 ca        1 FR0     -0.021000
      7 C7          3.6560   -0.0090   -0.6900 ca        1 FR0     -0.104000
      8 C8          4.0590   -0.0090    0.6360 ca        1 FR0     -0.038000
      9 C9          3.1230   -0.0060    1.6500 ca        1 FR0     -0.084000
     10 N10        -1.7700    0.0110    1.6000 nu        1 FR0     -0.421200
     11 C11        -2.1390    0.0110    3.0170 c3        1 FR0      0.259100
     12 C12        -3.6410    0.0160    3.1450 cc        1 FR0      0.094600
     13 S15        -4.7540    1.4070    3.2410 ss        1 FR0     -0.209800
     14 C16        -6.2840    0.4970    3.3730 cc        1 FR0     -0.100600
     15 C17        -5.8450   -0.7990    3.3410 cd        1 FR0     -0.064000
     16 C18        -4.4920   -1.0370    3.2180 cd        1 FR0     -0.146000
     17 C19        -7.6660    1.0100    3.4910 cc        1 FR0      0.471800
     18 N20        -8.6850    0.1700    3.5850 nc        1 FR0     -0.682000
     19 C21        -9.9320    0.6130    3.6860 cd        1 FR0      0.464400
     20 S22        -9.6840    2.3830    3.6650 ss        1 FR0     -0.099300
     21 C23        -7.9020    2.3580    3.5120 cd        1 FR0      0.119600
     22 N26       -11.0890   -0.0910    3.7860 nf        1 FR0     -0.228700
     23 C27       -11.0700   -1.4050    3.7060 c2        1 FR0     -0.292900
     24 N28       -12.2120   -2.1240    3.9470 nz        1 FR0      0.246400
     25 N29        -9.9060   -2.0540    3.3820 nz        1 FR0      0.246400
     26 HN4         0.5570    0.0070    3.1010 hn        1 FR0      0.134700
     27 H6          2.0110   -0.0030   -2.0530 ha        1 FR0      0.121000
     28 H7          4.4000   -0.0110   -1.4780 ha        1 FR0      0.122000
     29 H8          5.1150   -0.0140    0.8780 ha        1 FR0      0.118000
     30 H9          3.4430    0.0600    2.6830 ha        1 FR0      0.111000
     31 H10        -2.4820    0.0250    0.8970 hn        1 FR0      0.317800
     32 H111       -1.7390   -0.8760    3.4940 h1        1 FR0      0.035700
     33 H112       -1.7320    0.8930    3.4960 h1        1 FR0      0.035700
     34 H17        -6.5470   -1.6210    3.4020 ha        1 FR0      0.091000
     35 H18        -4.1140   -2.0520    3.1890 ha        1 FR0      0.138000
     36 H23        -7.2930    3.1180    3.0390 h4        1 FR0      0.206000
     37 H281      -12.9440   -1.5020    4.2290 hn        1 FR0      0.219467
     38 H282      -12.0410   -2.7880    4.6750 hn        1 FR0      0.219467
     39 H291       -9.2550   -1.9700    4.1370 hn        1 FR0      0.219467
     40 H292      -10.1000   -3.0220    3.2150 hn        1 FR0      0.219467
     41 H283      -12.4850   -2.6050    3.1140 hn        1 FR0      0.219467
     42 H293       -9.5160   -1.6470    2.5550 hn        1 FR0      0.219467
@<TRIPOS>BOND
     1    1    2 1   
     2    1    5 2   
     3    2    3 ar  
     4    2    6 ar  
     5    3    4 1   
     6    3    9 ar  
     7    4    5 1   
     8    4   26 1   
     9    5   10 1   
    10    6    7 ar  
    11    6   27 1   
    12    7    8 ar  
    13    7   28 1   
    14    8    9 ar  
    15    8   29 1   
    16    9   30 1   
    17   10   11 1   
    18   10   31 1   
    19   11   12 1   
    20   11   32 1   
    21   11   33 1   
    22   12   13 1   
    23   12   16 2   
    24   13   14 1   
    25   14   15 2   
    26   14   17 1   
    27   15   16 1   
    28   15   34 1   
    29   16   35 1   
    30   17   18 1   
    31   17   21 2   
    32   18   19 2   
    33   19   20 1   
    34   19   22 1   
    35   20   21 1   
    36   21   36 1   
    37   22   23 2   
    38   23   24 1   
    39   23   25 1   
    40   24   37 1   
    41   24   38 1   
    42   24   41 1   
    43   25   39 1   
    44   25   40 1   
    45   25   42 1   
@<TRIPOS>SUBSTRUCTURE
     1 FR0         1 TEMP              0 ****  ****    0 ROOT
