@<TRIPOS>MOLECULE
FR1
   75    76     1     0     0
SMALL
bcc


@<TRIPOS>ATOM
      1 C1         -0.2040   -2.2230   -0.8920 ca        1 FR1     -0.062500
      2 C2          1.1750   -2.0110   -0.8720 ca        1 FR1     -0.064000
      3 C3          1.7630   -1.5410    0.3110 ca        1 FR1     -0.134600
      4 C4          3.0150   -0.7690    0.2220 c         1 FR1      0.566700
      5 N5          2.7560    0.7250    0.3630 n4        1 FR1     -0.669800
      6 O6          4.1680   -1.1120    0.0400 o         1 FR1     -0.370100
      7 C7          1.0730   -1.5910    1.5300 ca        1 FR1     -0.064000
      8 C8         -0.3030   -1.8140    1.5120 ca        1 FR1     -0.062500
      9 C9         -0.9400   -1.9740    0.2730 ca        1 FR1     -0.143600
     10 C10        -2.3670   -1.6100    0.1660 c         1 FR1      0.585700
     11 O11        -3.3810   -2.2760    0.2960 o         1 FR1     -0.424100
     12 N12        -2.5000   -0.1360   -0.1340 n4        1 FR1     -0.703800
     13 C13        -3.8790    0.4120    0.0380 c3        1 FR1      0.082500
     14 C14        -3.8420    1.9500    0.2170 c3        1 FR1     -0.072700
     15 C15        -3.2540    2.6620   -0.9800 c3        1 FR1     -0.115600
     16 C16        -5.2260    2.4670    0.5450 c3        1 FR1     -0.115600
     17 C17        -4.7500    0.0100   -1.1710 c         1 FR1      0.669100
     18 O18        -4.2870    0.0970   -2.3330 o         1 FR1     -0.652100
     19 N19        -6.0430   -0.4140   -0.9860 n         1 FR1     -0.445800
     20 C20        -6.8230   -0.9600   -2.0870 c3        1 FR1      0.049700
     21 C21        -8.0440   -1.6900   -1.4740 c3        1 FR1     -0.087400
     22 C22        -7.9740   -1.4560    0.0310 c3        1 FR1     -0.091400
     23 C23        -6.6510   -0.7280    0.3050 c3        1 FR1      0.077000
     24 C24        -7.3120    0.1510   -3.0340 c         1 FR1      0.520100
     25 O25        -8.3370    0.8030   -2.9530 o         1 FR1     -0.379100
     26 N26        -6.4060    0.4680   -4.2020 n4        1 FR1     -0.681800
     27 C27        -6.9460   -0.0340   -5.5170 c3        1 FR1      0.026500
     28 C28        -6.2400    0.6780   -6.7000 c3        1 FR1     -0.070700
     29 C29        -4.7470    0.4410   -6.6980 c3        1 FR1     -0.123100
     30 C30        -6.8650    0.2360   -8.0070 c3        1 FR1     -0.123100
     31 C31        -6.7890   -1.5480   -5.6130 c         1 FR1      0.503100
     32 O32        -5.8480   -2.1490   -5.1090 o         1 FR1     -0.433100
     33 C33        -7.9240   -2.3480   -6.3460 c3        1 FR1      0.574900
     34 F34        -8.4500   -3.3110   -5.5280 f         1 FR1     -0.195633
     35 F35        -8.9850   -1.5760   -6.7330 f         1 FR1     -0.195633
     36 F36        -7.4790   -2.9850   -7.4670 f         1 FR1     -0.195633
     37 C37         1.9280    1.2770   -0.7510 c3        1 FR1     -0.001200
     38 C38         0.4140    1.1130   -0.5050 c         1 FR1      0.905600
     39 O39        -0.0170    1.0700    0.6900 o         1 FR1     -0.821300
     40 O40        -0.3500    0.9890   -1.4970 o         1 FR1     -0.821300
     41 HC1        -0.7020   -2.5130   -1.8320 ha        1 FR1      0.176000
     42 HC2         1.7720   -2.1400   -1.7900 ha        1 FR1      0.179000
     43 HN5         3.6530    1.2220    0.4090 hn        1 FR1      0.472300
     44 HC7         1.5850   -1.3920    2.4850 ha        1 FR1      0.179000
     45 HC8        -0.8800   -1.7890    2.4500 ha        1 FR1      0.176000
     46 H12        -1.8250    0.4030    0.4790 hn        1 FR1      0.520800
     47 H13        -4.2990   -0.0400    0.9890 hx        1 FR1      0.116700
     48 H14        -3.1800    2.1610    1.1110 hc        1 FR1      0.091700
     49 H151       -3.3230    3.7680   -0.8260 hc        1 FR1      0.061533
     50 H152       -3.8070    2.4020   -1.9140 hc        1 FR1      0.061533
     51 H153       -2.1730    2.4020   -1.1210 hc        1 FR1      0.061533
     52 H161       -5.6360    1.9660    1.4550 hc        1 FR1      0.061533
     53 H162       -5.1690    3.5660    0.7520 hc        1 FR1      0.061533
     54 H163       -5.9300    2.3120   -0.3070 hc        1 FR1      0.061533
     55 H20        -6.1910   -1.6850   -2.6880 h1        1 FR1      0.109700
     56 H211       -7.9730   -2.7810   -1.7150 hc        1 FR1      0.096700
     57 H212       -9.0070   -1.3020   -1.8920 hc        1 FR1      0.096700
     58 H221       -8.8380   -0.8340    0.3780 hc        1 FR1      0.093700
     59 H222       -8.0070   -2.4260    0.5890 hc        1 FR1      0.093700
     60 H231       -6.8240    0.2300    0.8690 h1        1 FR1      0.076200
     61 H232       -5.9570   -1.3890    0.8990 h1        1 FR1      0.076200
     62 H26        -6.2980    1.4890   -4.2790 hn        1 FR1      0.483300
     63 H27        -8.0500    0.2320   -5.5510 hx        1 FR1      0.148700
     64 H28        -6.4360    1.7860   -6.5870 hc        1 FR1      0.081700
     65 H291       -4.2450    0.9820   -5.8610 hc        1 FR1      0.068200
     66 H292       -4.5090   -0.6490   -6.6190 hc        1 FR1      0.068200
     67 H293       -4.3090    0.8190   -7.6570 hc        1 FR1      0.068200
     68 H301       -7.9750    0.3680   -7.9870 hc        1 FR1      0.068200
     69 H302       -6.4520    0.8550   -8.8420 hc        1 FR1      0.068200
     70 H303       -6.6350   -0.8370   -8.2210 hc        1 FR1      0.068200
     71 H371        2.2130    0.7710   -1.7140 hx        1 FR1      0.118700
     72 H372        2.1450    2.3800   -0.8380 hx        1 FR1      0.118700
     73 H52         2.2250    0.8820    1.2380 hn        1 FR1      0.472300
     74 H122       -2.1560    0.0560   -1.1060 hn        1 FR1      0.520800
     75 H262       -5.4680    0.0550   -4.0390 hn        1 FR1      0.483300
@<TRIPOS>BOND
     1    1    2 ar  
     2    1    9 ar  
     3    1   41 1   
     4    2    3 ar  
     5    2   42 1   
     6    3    4 1   
     7    3    7 ar  
     8    4    5 1   
     9    4    6 2   
    10    5   37 1   
    11    5   43 1   
    12    5   73 1   
    13    7    8 ar  
    14    7   44 1   
    15    8    9 ar  
    16    8   45 1   
    17    9   10 1   
    18   10   11 2   
    19   10   12 1   
    20   12   13 1   
    21   12   46 1   
    22   12   74 1   
    23   13   14 1   
    24   13   17 1   
    25   13   47 1   
    26   14   15 1   
    27   14   16 1   
    28   14   48 1   
    29   15   49 1   
    30   15   50 1   
    31   15   51 1   
    32   16   52 1   
    33   16   53 1   
    34   16   54 1   
    35   17   18 2   
    36   17   19 1   
    37   19   20 1   
    38   19   23 1   
    39   20   21 1   
    40   20   24 1   
    41   20   55 1   
    42   21   22 1   
    43   21   56 1   
    44   21   57 1   
    45   22   23 1   
    46   22   58 1   
    47   22   59 1   
    48   23   60 1   
    49   23   61 1   
    50   24   25 2   
    51   24   26 1   
    52   26   27 1   
    53   26   62 1   
    54   26   75 1   
    55   27   28 1   
    56   27   31 1   
    57   27   63 1   
    58   28   29 1   
    59   28   30 1   
    60   28   64 1   
    61   29   65 1   
    62   29   66 1   
    63   29   67 1   
    64   30   68 1   
    65   30   69 1   
    66   30   70 1   
    67   31   32 2   
    68   31   33 1   
    69   33   34 1   
    70   33   35 1   
    71   33   36 1   
    72   37   38 1   
    73   37   71 1   
    74   37   72 1   
    75   38   39 1   
    76   38   40 1   
@<TRIPOS>SUBSTRUCTURE
     1 FR1         1 TEMP              0 ****  ****    0 ROOT
