@<TRIPOS>MOLECULE
FR1
   72    70     1     0     0
SMALL
bcc


@<TRIPOS>ATOM
      1 C1          0.7880    3.9600   -2.5980 c1        1 FR1     -0.115000
      2 C2          0.5960    4.9260   -3.5410 c1        1 FR1     -0.107000
      3 C3          1.1860    4.7940   -4.8240 c1        1 FR1     -0.097000
      4 C4          0.8750    5.8550   -5.9330 c1        1 FR1      0.317000
      5 N5          0.0100    6.9350   -5.6470 n3        1 FR1     -0.292000
      6 O6          1.3760    5.7620   -7.0070 o         1 FR1     -0.367000
      7 C7          1.9440    3.7010   -5.1130 c2        1 FR1     -0.102000
      8 C8          2.1400    2.7050   -4.1370 c1        1 FR1     -0.102000
      9 C9          1.5660    2.8370   -2.8950 c1        1 FR1     -0.128000
     10 C10         1.6790    1.7110   -1.8900 c2        1 FR1      0.360000
     11 O11         2.3480    0.7440   -2.1440 o         1 FR1     -0.395000
     12 N12         0.9260    1.7600   -0.6760 n         1 FR1     -0.375000
     13 C13         1.3540    0.9850    0.4670 c3        1 FR1      0.032000
     14 C14         1.2440    1.8160    1.7030 c3        1 FR1     -0.105000
     15 C15         2.1900    3.0150    1.5990 c3        1 FR1     -0.219000
     16 C16        -0.2120    2.3200    1.8610 c3        1 FR1     -0.219000
     17 C17         0.4710   -0.2470    0.6050 c2        1 FR1      0.285000
     18 O18        -0.7160   -0.1350    0.5900 o         1 FR1     -0.395000
     19 N19         1.0880   -1.5920    0.7130 n         1 FR1     -0.314000
     20 C20         0.3500   -2.9560    0.8150 c3        1 FR1      0.007000
     21 C21         1.5250   -4.0000    0.5820 c3        1 FR1     -0.165000
     22 C22         2.5150   -3.3170    0.1590 c3        1 FR1     -0.167000
     23 C23         2.3510   -1.8680    0.7410 c3        1 FR1     -0.045000
     24 C24        -0.3750   -3.1530    2.0390 c2        1 FR1      0.305000
     25 O25        -0.4430   -2.2670    2.8490 o         1 FR1     -0.371000
     26 N26        -1.0260   -4.4210    2.2950 n         1 FR1     -0.375000
     27 C27        -2.0630   -4.5050    3.2670 c3        1 FR1      0.005000
     28 C28        -2.9560   -5.7590    2.9820 c3        1 FR1     -0.112000
     29 C29        -4.4120   -5.4460    3.3660 c3        1 FR1     -0.227500
     30 C30        -2.4750   -6.9080    3.7930 c3        1 FR1     -0.227500
     31 C31        -1.4620   -4.6200    4.6240 c2        1 FR1      0.197000
     32 O32        -0.3500   -5.0300    4.7480 o         1 FR1     -0.206000
     33 C33        -2.2110   -4.0840    5.8320 c3        1 FR1      0.361000
     34 F34        -1.3790   -3.3030    6.5690 f         1 FR1     -0.159333
     35 F35        -2.6410   -5.1060    6.5780 f         1 FR1     -0.159333
     36 F36        -3.2660   -3.3530    5.4200 f         1 FR1     -0.159333
     37 C37        -0.8750    7.4340   -6.6550 c3        1 FR1     -0.149000
     38 C38        -0.2890    8.7160   -7.2610 c2        1 FR1      0.317000
     39 O39         0.4820    8.6490   -8.2630 o         1 FR1     -0.574500
     40 O40        -0.6190    9.8300   -6.8020 o         1 FR1     -0.574500
     41 HC1         0.4430    4.0980   -1.6650 ha        1 FR1      0.134000
     42 HC2         0.0320    5.7390   -3.3240 ha        1 FR1      0.220000
     43 HN5        -0.0140    7.2850   -4.8100 hn        1 FR1      0.202000
     44 HC7         2.4180    3.6430   -5.9780 ha        1 FR1      0.149000
     45 HC8         2.6920    1.9080   -4.3450 ha        1 FR1      0.141000
     46 H12         0.0930    2.2000   -0.6600 hn        1 FR1      0.246000
     47 H13         2.2860    0.7050    0.3430 h1        1 FR1      0.136000
     48 H14         1.4810    1.2910    2.4580 hc        1 FR1      0.091000
     49 H151        3.1210    2.6920    1.4200 hc        1 FR1      0.083500
     50 H152        2.1740    3.5330    2.4680 hc        1 FR1      0.083500
     51 H153        1.9040    3.5900    0.8780 hc        1 FR1      0.083500
     52 H161       -0.3660    3.0550    1.2600 hc        1 FR1      0.083500
     53 H162       -0.8440    1.5810    1.6510 hc        1 FR1      0.083500
     54 H163       -0.3550    2.6170    2.7770 hc        1 FR1      0.083500
     55 H20        -0.3690   -3.0440    0.1390 h1        1 FR1      0.125000
     56 H211        1.7620   -4.4530    1.4490 hc        1 FR1      0.110000
     57 H212        1.2520   -4.6860   -0.1090 hc        1 FR1      0.110000
     58 H221        2.5070   -3.2880   -0.8140 hc        1 FR1      0.095500
     59 H222        3.3570   -3.7110    0.4770 hc        1 FR1      0.095500
     60 H231        2.6800   -1.8350    1.6580 h1        1 FR1      0.109000
     61 H232        2.8470   -1.2280    0.1840 h1        1 FR1      0.109000
     62 H26        -0.7960   -5.1410    1.8260 hn        1 FR1      0.268000
     63 H27        -2.6170   -3.6940    3.2230 h1        1 FR1      0.154000
     64 H28        -2.9080   -5.9890    2.0210 hc        1 FR1      0.106000
     65 H291       -5.0120   -6.1720    3.0240 hc        1 FR1      0.087000
     66 H292       -4.6700   -4.6150    2.9830 hc        1 FR1      0.087000
     67 H293       -4.4870   -5.3930    4.3340 hc        1 FR1      0.087000
     68 H301       -2.6740   -7.7410    3.3260 hc        1 FR1      0.087000
     69 H302       -1.5120   -6.8320    3.9270 hc        1 FR1      0.087000
     70 H303       -2.9310   -6.9040    4.6670 hc        1 FR1      0.087000
     71 H371       -1.7490    7.6320   -6.2540 h1        1 FR1      0.094000
     72 H372       -0.9810    6.7760   -7.3440 h1        1 FR1      0.094000
@<TRIPOS>BOND
     1    1    9 1   
     2    1   41 1   
     3    2    3 1   
     4    2   42 1   
     5    3    7 1   
     6    4    5 1   
     7    4    6 1   
     8    5   37 1   
     9    5   43 1   
    10    7    8 1   
    11    7   44 1   
    12    8   45 1   
    13    9   10 1   
    14   10   11 1   
    15   10   12 1   
    16   12   13 1   
    17   12   46 1   
    18   13   14 1   
    19   13   17 1   
    20   13   47 1   
    21   14   15 1   
    22   14   16 1   
    23   14   48 1   
    24   15   49 1   
    25   15   50 1   
    26   15   51 1   
    27   16   52 1   
    28   16   53 1   
    29   16   54 1   
    30   17   18 1   
    31   17   19 1   
    32   19   20 1   
    33   19   23 1   
    34   20   21 1   
    35   20   24 1   
    36   20   55 1   
    37   21   22 1   
    38   21   56 1   
    39   21   57 1   
    40   22   23 1   
    41   22   58 1   
    42   22   59 1   
    43   23   60 1   
    44   23   61 1   
    45   24   25 1   
    46   24   26 1   
    47   26   27 1   
    48   26   62 1   
    49   27   28 1   
    50   27   31 1   
    51   27   63 1   
    52   28   29 1   
    53   28   30 1   
    54   28   64 1   
    55   29   65 1   
    56   29   66 1   
    57   29   67 1   
    58   30   68 1   
    59   30   69 1   
    60   30   70 1   
    61   31   32 1   
    62   31   33 1   
    63   33   34 1   
    64   33   35 1   
    65   33   36 1   
    66   37   38 1   
    67   37   71 1   
    68   37   72 1   
    69   38   39 1   
    70   38   40 1   
@<TRIPOS>SUBSTRUCTURE
     1 FR1         1 TEMP              0 ****  ****    0 ROOT
