@<TRIPOS>MOLECULE
FR1
   75    76     1     0     0
SMALL
bcc


@<TRIPOS>ATOM
      1 C1         -0.2730   -2.3310   -0.8690 ca        1 FR1     -0.062500
      2 C2          1.1130   -2.1650   -0.8560 ca        1 FR1     -0.064000
      3 C3          1.7200   -1.6970    0.3170 ca        1 FR1     -0.134600
      4 C4          2.9980   -0.9700    0.2120 c         1 FR1      0.566700
      5 N5          2.7910    0.5350    0.3280 n4        1 FR1     -0.669800
      6 O6          4.1380   -1.3550    0.0320 o         1 FR1     -0.370100
      7 C7          1.0330   -1.7020    1.5390 ca        1 FR1     -0.064000
      8 C8         -0.3490   -1.8790    1.5280 ca        1 FR1     -0.062500
      9 C9         -0.9960   -2.0380    0.2940 ca        1 FR1     -0.143600
     10 C10        -2.4100   -1.6270    0.1860 c         1 FR1      0.585700
     11 O11        -3.4450   -2.2560    0.3300 o         1 FR1     -0.424100
     12 N12        -2.4930   -0.1540   -0.1370 n4        1 FR1     -0.703800
     13 C13        -3.8530    0.4440    0.0310 c3        1 FR1      0.082500
     14 C14        -3.7620    1.9820    0.1850 c3        1 FR1     -0.072700
     15 C15        -3.1550    2.6550   -1.0250 c3        1 FR1     -0.115600
     16 C16        -5.1260    2.5510    0.5090 c3        1 FR1     -0.115600
     17 C17        -4.7410    0.0530   -1.1690 c         1 FR1      0.669100
     18 O18        -4.2800    0.1060   -2.3340 o         1 FR1     -0.652100
     19 N19        -6.0480   -0.3240   -0.9730 n         1 FR1     -0.445800
     20 C20        -6.8500   -0.8600   -2.0620 c3        1 FR1      0.049700
     21 C21        -8.0920   -1.5390   -1.4340 c3        1 FR1     -0.087400
     22 C22        -8.0090   -1.2840    0.0670 c3        1 FR1     -0.091400
     23 C23        -6.6600   -0.5980    0.3250 c3        1 FR1      0.077000
     24 C24        -7.3050    0.2530   -3.0250 c         1 FR1      0.520100
     25 O25        -8.3080    0.9400   -2.9500 o         1 FR1     -0.379100
     26 N26        -6.3940    0.5210   -4.2010 n4        1 FR1     -0.681800
     27 C27        -6.9550    0.0180   -5.5060 c3        1 FR1      0.026500
     28 C28        -6.2300    0.6880   -6.7020 c3        1 FR1     -0.070700
     29 C29        -4.7460    0.4010   -6.7010 c3        1 FR1     -0.123100
     30 C30        -6.8730    0.2460   -8.0000 c3        1 FR1     -0.123100
     31 C31        -6.8500   -1.5020   -5.5790 c         1 FR1      0.503100
     32 O32        -5.9280   -2.1270   -5.0690 o         1 FR1     -0.433100
     33 C33        -8.0140   -2.2740   -6.2960 c3        1 FR1      0.574900
     34 F34        -8.5690   -3.2070   -5.4620 f         1 FR1     -0.195633
     35 F35        -9.0500   -1.4730   -6.6910 f         1 FR1     -0.195633
     36 F36        -7.5960   -2.9430   -7.4090 f         1 FR1     -0.195633
     37 C37         1.9780    1.0970   -0.7920 c3        1 FR1     -0.001200
     38 C38         0.4600    0.9880   -0.5380 c         1 FR1      0.905600
     39 O39         0.0320    0.9800    0.6580 o         1 FR1     -0.821300
     40 O40        -0.3120    0.8750   -1.5260 o         1 FR1     -0.821300
     41 HC1        -0.7840   -2.6190   -1.8020 ha        1 FR1      0.176000
     42 HC2         1.7010   -2.3290   -1.7740 ha        1 FR1      0.179000
     43 HN5         3.7040    1.0010    0.3630 hn        1 FR1      0.472300
     44 HC7         1.5560   -1.5060    2.4890 ha        1 FR1      0.179000
     45 HC8        -0.9210   -1.8190    2.4680 ha        1 FR1      0.176000
     46 H12        -1.7980    0.3710    0.4640 hn        1 FR1      0.520800
     47 H13        -4.2840    0.0210    0.9900 hx        1 FR1      0.116700
     48 H14        -3.0900    2.1840    1.0740 hc        1 FR1      0.091700
     49 H151       -3.7190    2.3990   -1.9530 hc        1 FR1      0.061533
     50 H152       -2.0840    2.3560   -1.1660 hc        1 FR1      0.061533
     51 H153       -3.1850    3.7650   -0.8880 hc        1 FR1      0.061533
     52 H161       -5.5510    2.0780    1.4280 hc        1 FR1      0.061533
     53 H162       -5.8380    2.4070   -0.3380 hc        1 FR1      0.061533
     54 H163       -5.0310    3.6500    0.6990 hc        1 FR1      0.061533
     55 H20        -6.2450   -1.6150   -2.6550 h1        1 FR1      0.109700
     56 H211       -9.0430   -1.1260   -1.8550 hc        1 FR1      0.096700
     57 H212       -8.0590   -2.6360   -1.6580 hc        1 FR1      0.096700
     58 H221       -8.0720   -2.2440    0.6390 hc        1 FR1      0.093700
     59 H222       -8.8500   -0.6280    0.4070 hc        1 FR1      0.093700
     60 H231       -6.7990    0.3740    0.8750 h1        1 FR1      0.076200
     61 H232       -5.9870   -1.2720    0.9260 h1        1 FR1      0.076200
     62 H26        -6.2520    1.5360   -4.2930 hn        1 FR1      0.483300
     63 H27        -8.0500    0.3200   -5.5410 hx        1 FR1      0.148700
     64 H28        -6.3890    1.8020   -6.6060 hc        1 FR1      0.081700
     65 H291       -4.2990    0.7490   -7.6670 hc        1 FR1      0.068367
     66 H292       -4.5430   -0.6940   -6.6040 hc        1 FR1      0.068367
     67 H293       -4.2240    0.9400   -5.8730 hc        1 FR1      0.068367
     68 H301       -6.4430    0.8380   -8.8460 hc        1 FR1      0.068367
     69 H302       -6.6790   -0.8370   -8.1980 hc        1 FR1      0.068367
     70 H303       -7.9780    0.4150   -7.9790 hc        1 FR1      0.068367
     71 H371        2.2410    0.5660   -1.7480 hx        1 FR1      0.118700
     72 H372        2.2320    2.1900   -0.8970 hx        1 FR1      0.118700
     73 H52         2.2680    0.7240    1.2020 hn        1 FR1      0.472300
     74 H122       -2.1480    0.0100   -1.1130 hn        1 FR1      0.520800
     75 H262       -5.4700    0.0790   -4.0350 hn        1 FR1      0.483300
@<TRIPOS>BOND
     1    1    2 ar  
     2    1    9 ar  
     3    1   41 1   
     4    2    3 ar  
     5    2   42 1   
     6    3    4 1   
     7    3    7 ar  
     8    4    5 1   
     9    4    6 2   
    10    5   37 1   
    11    5   43 1   
    12    5   73 1   
    13    7    8 ar  
    14    7   44 1   
    15    8    9 ar  
    16    8   45 1   
    17    9   10 1   
    18   10   11 2   
    19   10   12 1   
    20   12   13 1   
    21   12   46 1   
    22   12   74 1   
    23   13   14 1   
    24   13   17 1   
    25   13   47 1   
    26   14   15 1   
    27   14   16 1   
    28   14   48 1   
    29   15   49 1   
    30   15   50 1   
    31   15   51 1   
    32   16   52 1   
    33   16   53 1   
    34   16   54 1   
    35   17   18 2   
    36   17   19 1   
    37   19   20 1   
    38   19   23 1   
    39   20   21 1   
    40   20   24 1   
    41   20   55 1   
    42   21   22 1   
    43   21   56 1   
    44   21   57 1   
    45   22   23 1   
    46   22   58 1   
    47   22   59 1   
    48   23   60 1   
    49   23   61 1   
    50   24   25 2   
    51   24   26 1   
    52   26   27 1   
    53   26   62 1   
    54   26   75 1   
    55   27   28 1   
    56   27   31 1   
    57   27   63 1   
    58   28   29 1   
    59   28   30 1   
    60   28   64 1   
    61   29   65 1   
    62   29   66 1   
    63   29   67 1   
    64   30   68 1   
    65   30   69 1   
    66   30   70 1   
    67   31   32 2   
    68   31   33 1   
    69   33   34 1   
    70   33   35 1   
    71   33   36 1   
    72   37   38 1   
    73   37   71 1   
    74   37   72 1   
    75   38   39 1   
    76   38   40 1   
@<TRIPOS>SUBSTRUCTURE
     1 FR1         1 TEMP              0 ****  ****    0 ROOT
