@<TRIPOS>MOLECULE
FR1
   75    76     1     0     0
SMALL
bcc


@<TRIPOS>ATOM
      1 C1         -0.1700   -2.2260   -0.8380 ca        1 FR1     -0.062500
      2 C2          1.2090   -2.0110   -0.8300 ca        1 FR1     -0.064000
      3 C3          1.8020   -1.5170    0.3400 ca        1 FR1     -0.134600
      4 C4          3.0530   -0.7450    0.2280 c         1 FR1      0.566700
      5 N5          2.7920    0.7520    0.3380 ny        1 FR1     -0.669800
      6 O6          4.2060   -1.0890    0.0450 o         1 FR1     -0.370100
      7 C7          1.1190   -1.5420    1.5640 ca        1 FR1     -0.064000
      8 C8         -0.2560   -1.7680    1.5580 ca        1 FR1     -0.062500
      9 C9         -0.9000   -1.9540    0.3260 ca        1 FR1     -0.143600
     10 C10        -2.3280   -1.5950    0.2210 c         1 FR1      0.585700
     11 O11        -3.3400   -2.2590    0.3710 o         1 FR1     -0.424100
     12 N12        -2.4650   -0.1270   -0.1100 ny        1 FR1     -0.703800
     13 C13        -3.8450    0.4220    0.0590 c3        1 FR1      0.082500
     14 C14        -3.8090    1.9640    0.2070 c3        1 FR1     -0.072700
     15 C15        -3.2280    2.6530   -1.0070 c3        1 FR1     -0.115100
     16 C16        -5.1920    2.4840    0.5310 c3        1 FR1     -0.115100
     17 C17        -4.7210   -0.0060   -1.1380 c         1 FR1      0.668100
     18 O18        -4.2630    0.0600   -2.3040 o         1 FR1     -0.652100
     19 N19        -6.0130   -0.4280   -0.9380 n         1 FR1     -0.445800
     20 C20        -6.7950   -1.0030   -2.0220 c3        1 FR1      0.048700
     21 C21        -8.0040   -1.7330   -1.3850 c3        1 FR1     -0.087400
     22 C22        -7.9300   -1.4620    0.1130 c3        1 FR1     -0.092400
     23 C23        -6.6100   -0.7210    0.3630 c3        1 FR1      0.076000
     24 C24        -7.3040    0.0850   -2.9870 c         1 FR1      0.521100
     25 O25        -8.3450    0.7120   -2.9210 o         1 FR1     -0.381100
     26 N26        -6.3970    0.4080   -4.1540 ny        1 FR1     -0.681800
     27 C27        -6.9470   -0.0740   -5.4730 c3        1 FR1      0.024500
     28 C28        -6.2510    0.6460   -6.6590 c3        1 FR1     -0.068700
     29 C29        -4.9890   -0.0750   -7.0760 c3        1 FR1     -0.119600
     30 C30        -7.2190    0.7780   -7.8170 c3        1 FR1     -0.119600
     31 C31        -6.7910   -1.5880   -5.5910 c         1 FR1      0.508100
     32 O32        -5.9460   -2.2200   -4.9670 o         1 FR1     -0.443100
     33 C33        -7.8010   -2.3440   -6.5250 c3        1 FR1      0.575900
     34 F34        -8.1520   -3.5570   -6.0040 f         1 FR1     -0.194300
     35 F35        -8.9750   -1.6670   -6.7130 f         1 FR1     -0.194300
     36 F36        -7.2880   -2.5860   -7.7670 f         1 FR1     -0.194300
     37 C37         1.9570    1.2800   -0.7820 c3        1 FR1     -0.001200
     38 C38         0.4450    1.1180   -0.5230 c         1 FR1      0.905600
     39 O39         0.0200    1.0990    0.6740 o         1 FR1     -0.821300
     40 O40        -0.3260    0.9730   -1.5080 o         1 FR1     -0.821300
     41 HC1        -0.6730   -2.5360   -1.7680 ha        1 FR1      0.176000
     42 HC2         1.8000   -2.1580   -1.7490 ha        1 FR1      0.179000
     43 HN5         3.6890    1.2510    0.3690 hn        1 FR1      0.472300
     44 HC7         1.6380   -1.3230    2.5110 ha        1 FR1      0.179000
     45 HC8        -0.8270   -1.7240    2.4990 ha        1 FR1      0.176000
     46 H12        -2.1280    0.0440   -1.0870 hn        1 FR1      0.520800
     47 H13        -4.2580   -0.0120    1.0200 hx        1 FR1      0.116700
     48 H14        -3.1430    2.1930    1.0930 hc        1 FR1      0.091700
     49 H151       -3.2980    3.7610   -0.8740 hc        1 FR1      0.061533
     50 H152       -3.7850    2.3730   -1.9330 hc        1 FR1      0.061533
     51 H153       -2.1470    2.3910   -1.1490 hc        1 FR1      0.061533
     52 H161       -5.5980    2.0000    1.4520 hc        1 FR1      0.061533
     53 H162       -5.1360    3.5870    0.7160 hc        1 FR1      0.061533
     54 H163       -5.9000    2.3120   -0.3150 hc        1 FR1      0.061533
     55 H20        -6.1610   -1.7330   -2.6150 h1        1 FR1      0.114700
     56 H211       -8.9730   -1.3700   -1.8090 hc        1 FR1      0.096700
     57 H212       -7.9180   -2.8290   -1.6000 hc        1 FR1      0.096700
     58 H221       -7.9560   -2.4180    0.6950 hc        1 FR1      0.093700
     59 H222       -8.7960   -0.8360    0.4480 hc        1 FR1      0.093700
     60 H231       -6.7850    0.2470    0.9100 h1        1 FR1      0.076200
     61 H232       -5.9080   -1.3650    0.9650 h1        1 FR1      0.076200
     62 H26        -6.2820    1.4290   -4.2120 hn        1 FR1      0.482300
     63 H27        -8.0530    0.1870   -5.4870 hx        1 FR1      0.151700
     64 H28        -5.9780    1.6940   -6.3360 hc        1 FR1      0.072700
     65 H291       -4.3150   -0.2470   -6.2020 hc        1 FR1      0.068700
     66 H292       -5.2300   -1.0620   -7.5450 hc        1 FR1      0.068700
     67 H293       -4.4390    0.5380   -7.8330 hc        1 FR1      0.068700
     68 H301       -6.7120    1.3080   -8.6620 hc        1 FR1      0.068700
     69 H302       -7.5510   -0.2250   -8.1840 hc        1 FR1      0.068700
     70 H303       -8.1210    1.3680   -7.5210 hc        1 FR1      0.068700
     71 H371        2.1720    2.3810   -0.8920 hx        1 FR1      0.118700
     72 H372        2.2370    0.7540   -1.7360 hx        1 FR1      0.118700
     73 H52         2.2660    0.9260    1.2130 hn        1 FR1      0.472300
     74 H122       -1.7870    0.4250    0.4880 hn        1 FR1      0.520800
     75 H262       -5.4650   -0.0170   -3.9940 hn        1 FR1      0.482300
@<TRIPOS>BOND
     1    1    2 ar  
     2    1    9 ar  
     3    1   41 1   
     4    2    3 ar  
     5    2   42 1   
     6    3    4 1   
     7    3    7 ar  
     8    4    5 1   
     9    4    6 2   
    10    5   37 1   
    11    5   43 1   
    12    5   73 1   
    13    7    8 ar  
    14    7   44 1   
    15    8    9 ar  
    16    8   45 1   
    17    9   10 1   
    18   10   11 2   
    19   10   12 1   
    20   12   13 1   
    21   12   46 1   
    22   12   74 1   
    23   13   14 1   
    24   13   17 1   
    25   13   47 1   
    26   14   15 1   
    27   14   16 1   
    28   14   48 1   
    29   15   49 1   
    30   15   50 1   
    31   15   51 1   
    32   16   52 1   
    33   16   53 1   
    34   16   54 1   
    35   17   18 2   
    36   17   19 1   
    37   19   20 1   
    38   19   23 1   
    39   20   21 1   
    40   20   24 1   
    41   20   55 1   
    42   21   22 1   
    43   21   56 1   
    44   21   57 1   
    45   22   23 1   
    46   22   58 1   
    47   22   59 1   
    48   23   60 1   
    49   23   61 1   
    50   24   25 2   
    51   24   26 1   
    52   26   27 1   
    53   26   62 1   
    54   26   75 1   
    55   27   28 1   
    56   27   31 1   
    57   27   63 1   
    58   28   29 1   
    59   28   30 1   
    60   28   64 1   
    61   29   65 1   
    62   29   66 1   
    63   29   67 1   
    64   30   68 1   
    65   30   69 1   
    66   30   70 1   
    67   31   32 2   
    68   31   33 1   
    69   33   34 1   
    70   33   35 1   
    71   33   36 1   
    72   37   38 1   
    73   37   71 1   
    74   37   72 1   
    75   38   39 1   
    76   38   40 1   
@<TRIPOS>SUBSTRUCTURE
     1 FR1         1 TEMP              0 ****  ****    0 ROOT
