@<TRIPOS>MOLECULE
FR1
   72    73     1     0     0
SMALL
bcc


@<TRIPOS>ATOM
      1 C1         -3.9670   -0.3030    0.4490 ca        1 FR1     -0.108500
      2 C2         -5.2870    0.0820    0.6860 ca        1 FR1     -0.104500
      3 C3         -6.3210   -0.8450    0.5010 ca        1 FR1     -0.116600
      4 C4         -7.7340   -0.4240    0.7840 c         1 FR1      0.643700
      5 N5         -8.1620    0.7610    0.1870 n         1 FR1     -0.482900
      6 O6         -8.4840   -1.1600    1.4570 o         1 FR1     -0.605100
      7 C7         -6.0370   -2.1520    0.1020 ca        1 FR1     -0.104500
      8 C8         -4.7190   -2.5330   -0.1400 ca        1 FR1     -0.108500
      9 C9         -3.6820   -1.6040    0.0210 ca        1 FR1     -0.149600
     10 C10        -2.2970   -2.0620   -0.2630 c         1 FR1      0.685700
     11 O11        -1.9270   -3.2400   -0.0660 o         1 FR1     -0.635100
     12 N12        -1.4150   -1.1410   -0.8080 n         1 FR1     -0.567900
     13 C13        -0.0590   -1.4790   -1.1350 c3        1 FR1      0.056700
     14 C14         0.3900   -0.9610   -2.5240 c3        1 FR1     -0.065700
     15 C15         0.1100    0.5080   -2.7460 c3        1 FR1     -0.102600
     16 C16         1.8600   -1.2630   -2.7240 c3        1 FR1     -0.102600
     17 C17         0.9040   -0.9430   -0.0420 c         1 FR1      0.646100
     18 O18         1.0620    0.2860    0.1260 o         1 FR1     -0.634100
     19 N19         1.6280   -1.8440    0.7190 n         1 FR1     -0.456800
     20 C20         2.4410   -1.4000    1.8470 c3        1 FR1      0.034700
     21 C21         2.5300   -2.5720    2.8460 c3        1 FR1     -0.086400
     22 C22         1.8220   -3.7530    2.1940 c3        1 FR1     -0.088400
     23 C23         1.2760   -3.2500    0.8490 c3        1 FR1      0.072000
     24 C24         3.8520   -0.9660    1.3830 c         1 FR1      0.660100
     25 O25         4.8690   -1.6510    1.5980 o         1 FR1     -0.610100
     26 N26         3.9210    0.2470    0.7300 n         1 FR1     -0.566900
     27 C27         5.1310    0.7380    0.1320 c3        1 FR1      0.032700
     28 C28         4.9510    1.1380   -1.3570 c3        1 FR1     -0.073700
     29 C29         3.8360    2.1410   -1.5590 c3        1 FR1     -0.110100
     30 C30         6.2590    1.6580   -1.9110 c3        1 FR1     -0.110100
     31 C31         5.6780    1.9370    0.9080 c         1 FR1      0.535100
     32 O32         5.0230    2.8880    1.3090 o         1 FR1     -0.444100
     33 C33         7.2200    1.9310    1.2210 c3        1 FR1      0.524900
     34 F34         7.4920    1.8700    2.5620 f         1 FR1     -0.230633
     35 F35         7.9340    0.9000    0.6710 f         1 FR1     -0.230633
     36 F36         7.8570    3.0630    0.7780 f         1 FR1     -0.230633
     37 C37        -8.9420    1.6950    0.9760 c3        1 FR1     -0.083000
     38 C38        -8.0950    2.8710    1.5510 c         1 FR1      0.898600
     39 O39        -6.8430    2.8640    1.3470 o         1 FR1     -0.839300
     40 O40        -8.7190    3.7630    2.1790 o         1 FR1     -0.839300
     41 HC1        -3.1640    0.4290    0.6230 ha        1 FR1      0.140000
     42 HC2        -5.5220    1.1160    1.0280 ha        1 FR1      0.184500
     43 HN5        -7.4120    1.2530   -0.2720 hn        1 FR1      0.288500
     44 HC7        -6.8580   -2.8770   -0.0060 ha        1 FR1      0.184500
     45 HC8        -4.4800   -3.5620   -0.4480 ha        1 FR1      0.140000
     46 H12        -1.6810   -0.1880   -0.8960 hn        1 FR1      0.331500
     47 H13         0.0120   -2.6110   -1.1840 h1        1 FR1      0.095700
     48 H14        -0.1990   -1.5490   -3.2860 hc        1 FR1      0.058700
     49 H151        0.6110    0.8500   -3.6840 hc        1 FR1      0.043367
     50 H152       -0.9850    0.6960   -2.8530 hc        1 FR1      0.043367
     51 H153        0.4970    1.1210   -1.8940 hc        1 FR1      0.043367
     52 H161        2.4860   -0.6210   -2.0550 hc        1 FR1      0.043367
     53 H162        2.0790   -2.3350   -2.4970 hc        1 FR1      0.043367
     54 H163        2.1500   -1.0580   -3.7820 hc        1 FR1      0.043367
     55 H20         1.9500   -0.5070    2.3400 h1        1 FR1      0.087700
     56 H211        2.0270   -2.2820    3.8010 hc        1 FR1      0.071700
     57 H212        3.5970   -2.8200    3.0740 hc        1 FR1      0.071700
     58 H221        0.9850   -4.1240    2.8350 hc        1 FR1      0.057200
     59 H222        2.5310   -4.6010    2.0280 hc        1 FR1      0.057200
     60 H231        0.1580   -3.3910    0.8000 h1        1 FR1      0.068700
     61 H232        1.7430   -3.8170   -0.0030 h1        1 FR1      0.068700
     62 H26         3.0850    0.7710    0.5690 hn        1 FR1      0.354500
     63 H27         5.9090   -0.0890    0.1770 h1        1 FR1      0.114700
     64 H28         4.6830    0.1930   -1.9120 hc        1 FR1      0.066700
     65 H291        3.9240    2.9870   -0.8350 hc        1 FR1      0.047700
     66 H292        3.8810    2.5560   -2.5950 hc        1 FR1      0.047700
     67 H293        2.8330    1.6610   -1.4220 hc        1 FR1      0.047700
     68 H301        7.0790    0.9160   -1.7460 hc        1 FR1      0.047700
     69 H302        6.1610    1.8450   -3.0080 hc        1 FR1      0.047700
     70 H303        6.5500    2.6160   -1.4150 hc        1 FR1      0.047700
     71 H371       -9.7330    2.1240    0.3030 h1        1 FR1      0.054700
     72 H372       -9.4470    1.1630    1.8260 h1        1 FR1      0.054700
@<TRIPOS>BOND
     1    1    2 ar  
     2    1    9 ar  
     3    1   41 1   
     4    2    3 ar  
     5    2   42 1   
     6    3    4 1   
     7    3    7 ar  
     8    4    5 1   
     9    4    6 2   
    10    5   37 1   
    11    5   43 1   
    12    7    8 ar  
    13    7   44 1   
    14    8    9 ar  
    15    8   45 1   
    16    9   10 1   
    17   10   11 2   
    18   10   12 1   
    19   12   13 1   
    20   12   46 1   
    21   13   14 1   
    22   13   17 1   
    23   13   47 1   
    24   14   15 1   
    25   14   16 1   
    26   14   48 1   
    27   15   49 1   
    28   15   50 1   
    29   15   51 1   
    30   16   52 1   
    31   16   53 1   
    32   16   54 1   
    33   17   18 2   
    34   17   19 1   
    35   19   20 1   
    36   19   23 1   
    37   20   21 1   
    38   20   24 1   
    39   20   55 1   
    40   21   22 1   
    41   21   56 1   
    42   21   57 1   
    43   22   23 1   
    44   22   58 1   
    45   22   59 1   
    46   23   60 1   
    47   23   61 1   
    48   24   25 2   
    49   24   26 1   
    50   26   27 1   
    51   26   62 1   
    52   27   28 1   
    53   27   31 1   
    54   27   63 1   
    55   28   29 1   
    56   28   30 1   
    57   28   64 1   
    58   29   65 1   
    59   29   66 1   
    60   29   67 1   
    61   30   68 1   
    62   30   69 1   
    63   30   70 1   
    64   31   32 2   
    65   31   33 1   
    66   33   34 1   
    67   33   35 1   
    68   33   36 1   
    69   37   38 1   
    70   37   71 1   
    71   37   72 1   
    72   38   39 1   
    73   38   40 1   
@<TRIPOS>SUBSTRUCTURE
     1 FR1         1 TEMP              0 ****  ****    0 ROOT
