@<TRIPOS>MOLECULE
FR2
   37    38     1     0     0
SMALL
bcc


@<TRIPOS>ATOM
      1 C1          0.1020   -0.1200   -0.0990 cc        1 FR2     -0.068600
      2 N2          1.4410    0.1700    0.0310 na        1 FR2     -0.175900
      3 C3          1.6950    0.3820    1.4130 cc        1 FR2      0.476400
      4 N4          0.5820    0.2470    2.1430 nd        1 FR2     -0.680000
      5 C5         -0.4410   -0.0700    1.2180 cd        1 FR2      0.125800
      6 C8         -1.8070   -0.3020    1.5700 c         1 FR2      0.511600
      7 O9         -2.7760   -0.5740    0.8730 o         1 FR2     -0.445100
      8 N10        -2.1060   -0.1940    3.0580 nz        1 FR2     -0.747400
      9 C13         2.4260    0.1880   -1.0400 c3        1 FR2      0.036000
     10 C14         3.2950    1.4660   -1.0130 c3        1 FR2      0.119400
     11 O15         4.0210    1.4900    0.2030 oh        1 FR2     -0.620800
     12 C18         3.3210   -1.0640   -1.0330 c3        1 FR2     -0.097400
     13 C19         3.8870   -1.3290   -2.4170 c3        1 FR2     -0.030100
     14 C22         4.7270   -2.5580   -2.4200 ca        1 FR2     -0.102300
     15 C25         4.2790   -3.7200   -3.0580 ca        1 FR2     -0.124500
     16 C26         5.0780   -4.8630   -3.0730 ca        1 FR2     -0.122000
     17 C27         6.3260   -4.8540   -2.4510 ca        1 FR2     -0.117000
     18 C28         6.7770   -3.6970   -1.8150 ca        1 FR2     -0.122000
     19 C29         5.9820   -2.5530   -1.8000 ca        1 FR2     -0.124500
     20 H1         -0.3940   -0.3350   -1.0520 h4        1 FR2      0.217000
     21 H3          2.7030    0.6410    1.7800 h5        1 FR2      0.120100
     22 H101       -3.0990   -0.3740    3.2330 hn        1 FR2      0.469467
     23 H102       -1.5350   -0.8750    3.5700 hn        1 FR2      0.469467
     24 H13         1.8410    0.2140   -2.0110 h1        1 FR2      0.083700
     25 H141        2.6530    2.3850   -1.0820 h1        1 FR2      0.057200
     26 H142        3.9890    1.4280   -1.8950 h1        1 FR2      0.057200
     27 HO          4.7460    2.1190    0.0900 ho        1 FR2      0.433000
     28 H181        2.7380   -1.9640   -0.7040 hc        1 FR2      0.073700
     29 H182        4.1570   -0.9130   -0.3000 hc        1 FR2      0.073700
     30 H191        3.0460   -1.4360   -3.1550 hc        1 FR2      0.050200
     31 H192        4.5110   -0.4560   -2.7480 hc        1 FR2      0.050200
     32 H25         3.2990   -3.7320   -3.5570 ha        1 FR2      0.129000
     33 H26         4.7220   -5.7730   -3.5800 ha        1 FR2      0.141000
     34 H27         6.9560   -5.7560   -2.4660 ha        1 FR2      0.143000
     35 H28         7.7640   -3.6850   -1.3290 ha        1 FR2      0.141000
     36 H29         6.3430   -1.6400   -1.3040 ha        1 FR2      0.129000
     37 H103       -1.8600    0.7450    3.3880 hn        1 FR2      0.469467
@<TRIPOS>BOND
     1    1    2 1   
     2    1    5 2   
     3    1   20 1   
     4    2    3 1   
     5    2    9 1   
     6    3    4 2   
     7    3   21 1   
     8    4    5 1   
     9    5    6 1   
    10    6    7 2   
    11    6    8 1   
    12    8   22 1   
    13    8   23 1   
    14    8   37 1   
    15    9   10 1   
    16    9   12 1   
    17    9   24 1   
    18   10   11 1   
    19   10   25 1   
    20   10   26 1   
    21   11   27 1   
    22   12   13 1   
    23   12   28 1   
    24   12   29 1   
    25   13   14 1   
    26   13   30 1   
    27   13   31 1   
    28   14   15 ar  
    29   14   19 ar  
    30   15   16 ar  
    31   15   32 1   
    32   16   17 ar  
    33   16   33 1   
    34   17   18 ar  
    35   17   34 1   
    36   18   19 ar  
    37   18   35 1   
    38   19   36 1   
@<TRIPOS>SUBSTRUCTURE
     1 FR2         1 TEMP              0 ****  ****    0 ROOT
