@<TRIPOS>MOLECULE
FR2
   37    38     1     0     0
SMALL
bcc


@<TRIPOS>ATOM
      1 C1          0.0930   -0.1430   -0.0970 cc        1 FR2     -0.068600
      2 N2          1.4290    0.1650    0.0190 na        1 FR2     -0.175900
      3 C3          1.6900    0.4030    1.3950 cc        1 FR2      0.476400
      4 N4          0.5850    0.2670    2.1350 nd        1 FR2     -0.680000
      5 C5         -0.4400   -0.0780    1.2230 cd        1 FR2      0.125800
      6 C8         -1.8020   -0.3230    1.5880 c         1 FR2      0.511600
      7 O9         -2.7720   -0.6190    0.9020 o         1 FR2     -0.445100
      8 N10        -2.0910   -0.1940    3.0760 n4        1 FR2     -0.747400
      9 C13         2.4070    0.1780   -1.0600 c3        1 FR2      0.036000
     10 C14         3.2600    1.4670   -1.0590 c3        1 FR2      0.119400
     11 O15         3.9940    1.5200    0.1510 oh        1 FR2     -0.620800
     12 C18         3.3170   -1.0620   -1.0380 c3        1 FR2     -0.097400
     13 C19         3.8780   -1.3420   -2.4210 c3        1 FR2     -0.030100
     14 C22         4.7320   -2.5620   -2.4110 ca        1 FR2     -0.102300
     15 C25         4.2950   -3.7380   -3.0290 ca        1 FR2     -0.124500
     16 C26         5.1060   -4.8720   -3.0300 ca        1 FR2     -0.122000
     17 C27         6.3580   -4.8390   -2.4160 ca        1 FR2     -0.117000
     18 C28         6.7990   -3.6670   -1.8000 ca        1 FR2     -0.122000
     19 C29         5.9900   -2.5330   -1.7980 ca        1 FR2     -0.124500
     20 H1         -0.4060   -0.3810   -1.0420 h4        1 FR2      0.217000
     21 H3          2.6980    0.6820    1.7510 h5        1 FR2      0.120100
     22 H101       -1.8560    0.7530    3.3890 hn        1 FR2      0.469467
     23 H102       -3.0820   -0.3830    3.2600 hn        1 FR2      0.469467
     24 H13         1.8150    0.1810   -2.0270 h1        1 FR2      0.083700
     25 H141        3.9480    1.4230   -1.9460 h1        1 FR2      0.057200
     26 H142        2.6060    2.3770   -1.1390 h1        1 FR2      0.057200
     27 HO          4.7100    2.1560    0.0230 ho        1 FR2      0.433000
     28 H181        4.1570   -0.8900   -0.3130 hc        1 FR2      0.073700
     29 H182        2.7480   -1.9650   -0.6910 hc        1 FR2      0.073700
     30 H191        3.0340   -1.4710   -3.1520 hc        1 FR2      0.050200
     31 H192        4.4900   -0.4680   -2.7700 hc        1 FR2      0.050200
     32 H25         3.3120   -3.7700   -3.5220 ha        1 FR2      0.129000
     33 H26         4.7590   -5.7940   -3.5220 ha        1 FR2      0.141000
     34 H27         6.9990   -5.7340   -2.4210 ha        1 FR2      0.143000
     35 H28         7.7880   -3.6370   -1.3190 ha        1 FR2      0.141000
     36 H29         6.3430   -1.6080   -1.3170 ha        1 FR2      0.129000
     37 H103       -1.5090   -0.8580    3.5950 hn        1 FR2      0.469467
@<TRIPOS>BOND
     1    1    2 1   
     2    1    5 2   
     3    1   20 1   
     4    2    3 1   
     5    2    9 1   
     6    3    4 2   
     7    3   21 1   
     8    4    5 1   
     9    5    6 1   
    10    6    7 2   
    11    6    8 1   
    12    8   22 1   
    13    8   23 1   
    14    8   37 1   
    15    9   10 1   
    16    9   12 1   
    17    9   24 1   
    18   10   11 1   
    19   10   25 1   
    20   10   26 1   
    21   11   27 1   
    22   12   13 1   
    23   12   28 1   
    24   12   29 1   
    25   13   14 1   
    26   13   30 1   
    27   13   31 1   
    28   14   15 ar  
    29   14   19 ar  
    30   15   16 ar  
    31   15   32 1   
    32   16   17 ar  
    33   16   33 1   
    34   17   18 ar  
    35   17   34 1   
    36   18   19 ar  
    37   18   35 1   
    38   19   36 1   
@<TRIPOS>SUBSTRUCTURE
     1 FR2         1 TEMP              0 ****  ****    0 ROOT
