@<TRIPOS>MOLECULE
FR2
   37    38     1     0     0
SMALL
bcc


@<TRIPOS>ATOM
      1 C1          0.0960   -0.1320   -0.1000 cc        1 FR2     -0.068600
      2 N2          1.4340    0.1670    0.0260 na        1 FR2     -0.175900
      3 C3          1.6890    0.3880    1.4050 cc        1 FR2      0.476400
      4 N4          0.5790    0.2520    2.1390 nd        1 FR2     -0.680000
      5 C5         -0.4430   -0.0770    1.2180 cd        1 FR2      0.125800
      6 C8         -1.8080   -0.3160    1.5730 c         1 FR2      0.511600
      7 O9         -2.7760   -0.5980    0.8790 o         1 FR2     -0.445100
      8 N10        -2.1040   -0.2010    3.0620 n4        1 FR2     -0.747400
      9 C13         2.4170    0.1840   -1.0480 c3        1 FR2      0.036000
     10 C14         3.2790    1.4680   -1.0300 c3        1 FR2      0.119400
     11 O15         4.0070    1.5030    0.1840 oh        1 FR2     -0.620800
     12 C18         3.3200   -1.0620   -1.0350 c3        1 FR2     -0.097400
     13 C19         3.8830   -1.3330   -2.4180 c3        1 FR2     -0.030100
     14 C22         4.7320   -2.5570   -2.4150 ca        1 FR2     -0.102300
     15 C25         4.2900   -3.7260   -3.0420 ca        1 FR2     -0.124500
     16 C26         5.0950   -4.8650   -3.0510 ca        1 FR2     -0.122000
     17 C27         6.3460   -4.8420   -2.4350 ca        1 FR2     -0.117000
     18 C28         6.7920   -3.6770   -1.8090 ca        1 FR2     -0.122000
     19 C29         5.9890   -2.5380   -1.8000 ca        1 FR2     -0.124500
     20 H1         -0.3990   -0.3560   -1.0510 h4        1 FR2      0.217000
     21 H3          2.6970    0.6560    1.7690 h5        1 FR2      0.120100
     22 H101       -1.5290   -0.8750    3.5760 hn        1 FR2      0.469467
     23 H102       -3.0970   -0.3860    3.2390 hn        1 FR2      0.469467
     24 H13         1.8300    0.2000   -2.0180 h1        1 FR2      0.083700
     25 H141        3.9710    1.4280   -1.9130 h1        1 FR2      0.057200
     26 H142        2.6310    2.3820   -1.1040 h1        1 FR2      0.057200
     27 HO          4.7270    2.1360    0.0670 ho        1 FR2      0.433000
     28 H181        4.1570   -0.9020   -0.3040 hc        1 FR2      0.073700
     29 H182        2.7430   -1.9640   -0.6980 hc        1 FR2      0.073700
     30 H191        3.0420   -1.4510   -3.1530 hc        1 FR2      0.050200
     31 H192        4.5020   -0.4580   -2.7570 hc        1 FR2      0.050200
     32 H25         3.3080   -3.7490   -3.5380 ha        1 FR2      0.129000
     33 H26         4.7440   -5.7800   -3.5500 ha        1 FR2      0.141000
     34 H27         6.9820   -5.7400   -2.4450 ha        1 FR2      0.143000
     35 H28         7.7800   -3.6560   -1.3270 ha        1 FR2      0.141000
     36 H29         6.3460   -1.6190   -1.3120 ha        1 FR2      0.129000
     37 H103       -1.8640    0.7410    3.3850 hn        1 FR2      0.469467
@<TRIPOS>BOND
     1    1    2 1   
     2    1    5 2   
     3    1   20 1   
     4    2    3 1   
     5    2    9 1   
     6    3    4 2   
     7    3   21 1   
     8    4    5 1   
     9    5    6 1   
    10    6    7 2   
    11    6    8 1   
    12    8   22 1   
    13    8   23 1   
    14    8   37 1   
    15    9   10 1   
    16    9   12 1   
    17    9   24 1   
    18   10   11 1   
    19   10   25 1   
    20   10   26 1   
    21   11   27 1   
    22   12   13 1   
    23   12   28 1   
    24   12   29 1   
    25   13   14 1   
    26   13   30 1   
    27   13   31 1   
    28   14   15 ar  
    29   14   19 ar  
    30   15   16 ar  
    31   15   32 1   
    32   16   17 ar  
    33   16   33 1   
    34   17   18 ar  
    35   17   34 1   
    36   18   19 ar  
    37   18   35 1   
    38   19   36 1   
@<TRIPOS>SUBSTRUCTURE
     1 FR2         1 TEMP              0 ****  ****    0 ROOT
