@<TRIPOS>MOLECULE
FR2
   36    31     1     0     0
SMALL
bcc


@<TRIPOS>ATOM
      1 C1         -2.2630    1.5090    0.7400 c1        1 FR2     -0.135000
      2 N2         -0.9330    1.3840    0.7340 n2        1 FR2     -0.146500
      3 C3         -0.5170    1.2700    2.0190 c1        1 FR2     -0.097000
      4 N4         -1.6090    1.3260    2.8200 n2        1 FR2     -0.146500
      5 C5         -2.6850    1.4720    2.0410 c1        1 FR2     -0.135000
      6 C8         -4.1200    1.5490    2.5140 c1        1 FR2      0.387000
      7 O9         -5.0210    1.6540    1.7050 o         1 FR2     -0.394000
      8 N10        -4.4180    1.4420    3.8960 n3        1 FR2     -0.420000
      9 C13        -0.1000    1.3840   -0.4160 c2        1 FR2     -0.014000
     10 C14         0.6800    2.6780   -0.4730 c3        1 FR2     -0.036000
     11 O15        -0.2160    3.7670   -0.4870 oh        1 FR2     -0.319000
     12 C18         0.8620    0.2190   -0.3420 c3        1 FR2     -0.167000
     13 C19         0.9910   -0.4160   -1.7100 c3        1 FR2     -0.121000
     14 C22         1.6150   -1.7870   -1.5730 c2        1 FR2     -0.081000
     15 C25         2.9740   -1.9530   -1.7900 c2        1 FR2     -0.125000
     16 C26         3.5310   -3.2220   -1.7560 c1        1 FR2     -0.127000
     17 C27         2.7300   -4.3250   -1.5070 c1        1 FR2     -0.126500
     18 C28         1.3710   -4.1590   -1.2900 c1        1 FR2     -0.126500
     19 C29         0.8130   -2.8900   -1.3240 c1        1 FR2     -0.126000
     20 H1         -2.8340    1.6080   -0.0450 DU        1 FR2      0.203000
     21 H3          0.4070    1.1660    2.3150 DU        1 FR2      0.203000
     22 H101       -5.2140    1.7560    4.2180 hn        1 FR2      0.232500
     23 H102       -3.8250    1.0360    4.4610 hn        1 FR2      0.232500
     24 H13        -0.6520    1.3010   -1.2180 ha        1 FR2      0.125000
     25 H141        1.2270    2.6950   -1.2860 h1        1 FR2      0.100500
     26 H142        1.2620    2.7440    0.3120 h1        1 FR2      0.100500
     27 HO          0.2080    4.4960   -0.7690 ho        1 FR2      0.209000
     28 H181        1.7380    0.5370   -0.0470 hc        1 FR2      0.099500
     29 H182        0.5240   -0.4430    0.2930 hc        1 FR2      0.099500
     30 H191        0.1050   -0.5000   -2.1160 hc        1 FR2      0.093000
     31 H192        1.5570    0.1450   -2.2770 hc        1 FR2      0.093000
     32 H25         3.5390   -1.1770   -1.9660 ha        1 FR2      0.131000
     33 H26         4.4880   -3.3390   -1.9090 ha        1 FR2      0.134000
     34 H27         3.1220   -5.2180   -1.4830 ha        1 FR2      0.134000
     35 H28         0.8070   -4.9360   -1.1140 ha        1 FR2      0.134000
     36 H29        -0.1440   -2.7740   -1.1710 ha        1 FR2      0.132000
@<TRIPOS>BOND
     1    1    2 1   
     2    1    5 1   
     3    2    3 1   
     4    3    4 1   
     5    4    5 1   
     6    6    7 1   
     7    6    8 1   
     8    8   22 1   
     9    8   23 1   
    10    9   10 1   
    11    9   12 1   
    12    9   24 1   
    13   10   11 1   
    14   10   25 1   
    15   10   26 1   
    16   11   27 1   
    17   12   13 1   
    18   12   28 1   
    19   12   29 1   
    20   13   14 1   
    21   13   30 1   
    22   13   31 1   
    23   14   15 1   
    24   14   19 1   
    25   15   16 1   
    26   15   32 1   
    27   16   33 1   
    28   17   18 1   
    29   17   34 1   
    30   18   35 1   
    31   19   36 1   
@<TRIPOS>SUBSTRUCTURE
     1 FR2         1 TEMP              0 ****  ****    0 ROOT
