@<TRIPOS>MOLECULE
FR2
   36    37     1     0     0
SMALL
bcc


@<TRIPOS>ATOM
      1 C1         -0.2420    0.7770    2.4190 cc        1 FR2     -0.172600
      2 N2          0.6200    0.1990    1.4900 na        1 FR2     -0.209900
      3 C3          0.9430   -1.0830    1.9780 cc        1 FR2      0.413400
      4 N4          0.3430   -1.3280    3.1560 nd        1 FR2     -0.664000
      5 C5         -0.4040   -0.1750    3.4480 cd        1 FR2      0.231800
      6 C8         -1.2380    0.0370    4.6450 c         1 FR2      0.604600
      7 O9         -1.8530    1.1140    4.8180 o         1 FR2     -0.639100
      8 N10        -1.3330   -0.9690    5.5710 n         1 FR2     -0.661000
      9 C13         1.0430    0.7870    0.2410 c3        1 FR2      0.057000
     10 C14         2.5800    0.7790    0.0780 c3        1 FR2      0.116400
     11 O15         3.0140   -0.5650   -0.0410 oh        1 FR2     -0.605800
     12 C18         0.3800    0.1310   -0.9840 c3        1 FR2     -0.095400
     13 C19         0.3510    1.0880   -2.1610 c3        1 FR2     -0.034100
     14 C22        -0.2840    0.4600   -3.3520 ca        1 FR2     -0.084300
     15 C25        -1.5490    0.8720   -3.7830 ca        1 FR2     -0.125000
     16 C26        -2.1330    0.2880   -4.9070 ca        1 FR2     -0.127000
     17 C27        -1.4590   -0.7110   -5.6070 ca        1 FR2     -0.128000
     18 C28        -0.1970   -1.1260   -5.1820 ca        1 FR2     -0.127000
     19 C29         0.3890   -0.5440   -4.0590 ca        1 FR2     -0.125000
     20 H1         -0.6710    1.7740    2.3160 h4        1 FR2      0.196000
     21 H3          1.6230   -1.7520    1.4330 h5        1 FR2      0.082100
     22 H101       -1.8940   -0.8330    6.3740 hn        1 FR2      0.318000
     23 H102       -0.8590   -1.8270    5.4520 hn        1 FR2      0.318000
     24 H13         0.7330    1.8770    0.2750 h1        1 FR2      0.070700
     25 H141        2.8410    1.3460   -0.8560 h1        1 FR2      0.040700
     26 H142        3.0720    1.2700    0.9600 h1        1 FR2      0.040700
     27 HO          3.9790   -0.5450   -0.0490 ho        1 FR2      0.412000
     28 H181        0.9480   -0.7970   -1.2570 hc        1 FR2      0.071200
     29 H182       -0.6710   -0.1760   -0.7400 hc        1 FR2      0.071200
     30 H191       -0.2090    2.0190   -1.8750 hc        1 FR2      0.046700
     31 H192        1.3980    1.3980   -2.4260 hc        1 FR2      0.046700
     32 H25        -2.0870    1.6600   -3.2340 ha        1 FR2      0.132000
     33 H26        -3.1290    0.6180   -5.2390 ha        1 FR2      0.132500
     34 H27        -1.9210   -1.1710   -6.4930 ha        1 FR2      0.133000
     35 H28         0.3370   -1.9150   -5.7320 ha        1 FR2      0.132500
     36 H29         1.3840   -0.8730   -3.7240 ha        1 FR2      0.132000
@<TRIPOS>BOND
     1    1    2 1   
     2    1    5 2   
     3    1   20 1   
     4    2    3 1   
     5    2    9 1   
     6    3    4 2   
     7    3   21 1   
     8    4    5 1   
     9    5    6 1   
    10    6    7 2   
    11    6    8 1   
    12    8   22 1   
    13    8   23 1   
    14    9   10 1   
    15    9   12 1   
    16    9   24 1   
    17   10   11 1   
    18   10   25 1   
    19   10   26 1   
    20   11   27 1   
    21   12   13 1   
    22   12   28 1   
    23   12   29 1   
    24   13   14 1   
    25   13   30 1   
    26   13   31 1   
    27   14   15 ar  
    28   14   19 ar  
    29   15   16 ar  
    30   15   32 1   
    31   16   17 ar  
    32   16   33 1   
    33   17   18 ar  
    34   17   34 1   
    35   18   19 ar  
    36   18   35 1   
    37   19   36 1   
@<TRIPOS>SUBSTRUCTURE
     1 FR2         1 TEMP              0 ****  ****    0 ROOT
