@<TRIPOS>MOLECULE
FR3
   43    45     1     0     0
SMALL
bcc


@<TRIPOS>ATOM
      1 C1          0.1350   -0.1460   -0.0950 cc        1 FR3     -0.069600
      2 N2          1.4500    0.2190    0.0860 na        1 FR3     -0.175900
      3 C3          1.6070    0.5640    1.4550 cc        1 FR3      0.470400
      4 N4          0.4570    0.4410    2.1280 nd        1 FR3     -0.677000
      5 C5         -0.4910   -0.0060    1.1770 cd        1 FR3      0.126800
      6 C8         -1.8670   -0.2700    1.4680 c         1 FR3      0.511600
      7 O9         -2.7750   -0.6560    0.7440 o         1 FR3     -0.445100
      8 N10        -2.2650   -0.0310    2.9170 n4        1 FR3     -0.747400
      9 C13         2.4870    0.1990   -0.9350 c3        1 FR3     -0.003000
     10 C14         3.4940    1.3630   -0.7650 c3        1 FR3      0.118400
     11 O15         4.2020    1.2860    0.4500 oh        1 FR3     -0.601800
     12 C18         3.2250   -1.1490   -0.9980 c3        1 FR3     -0.101400
     13 C19         3.8210   -1.3730   -2.3770 c3        1 FR3     -0.032100
     14 C22         4.7370   -2.5490   -2.3750 ca        1 FR3     -0.095300
     15 C25         4.2980   -3.7510   -2.8920 ca        1 FR3     -0.109000
     16 C26         5.1400   -4.8860   -2.9100 ca        1 FR3     -0.130000
     17 C27         6.4150   -4.8070   -2.4100 ca        1 FR3     -0.098000
     18 C28         6.9040   -3.5830   -1.8750 ca        1 FR3     -0.038000
     19 C29         6.0630   -2.4390   -1.8570 ca        1 FR3     -0.023000
     20 C2          8.2270   -3.4900   -1.3620 ca        1 FR3     -0.102000
     21 C4          6.5870   -1.2260   -1.3280 ca        1 FR3     -0.147000
     22 C6          8.7010   -2.3050   -0.8560 ca        1 FR3     -0.126000
     23 C7          7.8700   -1.1590   -0.8430 ca        1 FR3     -0.110000
     24 H1         -0.2890   -0.4660   -1.0520 h4        1 FR3      0.217000
     25 H3          2.5780    0.9020    1.8620 h5        1 FR3      0.122100
     26 H101       -1.7010   -0.6300    3.5290 hn        1 FR3      0.469467
     27 H102       -2.0810    0.9460    3.1650 hn        1 FR3      0.469467
     28 H13         1.9600    0.3640   -1.9250 h1        1 FR3      0.085700
     29 H141        4.1860    1.3500   -1.6480 h1        1 FR3      0.077700
     30 H142        2.9550    2.3490   -0.7250 h1        1 FR3      0.077700
     31 H15         4.9540    0.6910    0.3270 ho        1 FR3      0.423000
     32 H181        4.0340   -1.1730   -0.2210 hc        1 FR3      0.067700
     33 H182        2.5260   -1.9960   -0.7700 hc        1 FR3      0.067700
     34 H191        4.3800   -0.4610   -2.7190 hc        1 FR3      0.053700
     35 H192        2.9900   -1.5370   -3.1160 hc        1 FR3      0.053700
     36 H25         3.2820   -3.8420   -3.3050 ha        1 FR3      0.131000
     37 H26         4.7580   -5.8270   -3.3330 ha        1 FR3      0.143000
     38 H27         7.0820   -5.6830   -2.4180 ha        1 FR3      0.144000
     39 H2          8.8640   -4.3880   -1.3840 ha        1 FR3      0.144000
     40 H4          5.9540   -0.3260   -1.3250 ha        1 FR3      0.106000
     41 H6          9.7250   -2.2290   -0.4620 ha        1 FR3      0.145000
     42 H7          8.2710   -0.2160   -0.4430 ha        1 FR3      0.136000
     43 H103       -3.2600   -0.2400    3.0480 hn        1 FR3      0.469467
@<TRIPOS>BOND
     1    1    2 1   
     2    1    5 2   
     3    1   24 1   
     4    2    3 1   
     5    2    9 1   
     6    3    4 2   
     7    3   25 1   
     8    4    5 1   
     9    5    6 1   
    10    6    7 2   
    11    6    8 1   
    12    8   26 1   
    13    8   27 1   
    14    8   43 1   
    15    9   10 1   
    16    9   12 1   
    17    9   28 1   
    18   10   11 1   
    19   10   29 1   
    20   10   30 1   
    21   11   31 1   
    22   12   13 1   
    23   12   32 1   
    24   12   33 1   
    25   13   14 1   
    26   13   34 1   
    27   13   35 1   
    28   14   15 ar  
    29   14   19 ar  
    30   15   16 ar  
    31   15   36 1   
    32   16   17 ar  
    33   16   37 1   
    34   17   18 ar  
    35   17   38 1   
    36   18   19 ar  
    37   18   20 ar  
    38   19   21 ar  
    39   20   22 ar  
    40   20   39 1   
    41   21   23 ar  
    42   21   40 1   
    43   22   23 ar  
    44   22   41 1   
    45   23   42 1   
@<TRIPOS>SUBSTRUCTURE
     1 FR3         1 TEMP              0 ****  ****    0 ROOT
