@<TRIPOS>MOLECULE
FR3
   42    36     1     0     0
SMALL
bcc


@<TRIPOS>ATOM
      1 C1         -2.4810    1.6330    0.4710 c1        1 FR3     -0.135500
      2 N2         -1.3330    1.5690    1.1530 n2        1 FR3     -0.147000
      3 C3         -1.5960    1.0040    2.3650 c1        1 FR3     -0.096000
      4 N4         -2.9150    0.7220    2.4190 n2        1 FR3     -0.147000
      5 C5         -3.4710    1.1040    1.2620 c1        1 FR3     -0.135500
      6 C8         -4.9220    1.0320    0.9230 c1        1 FR3      0.387000
      7 O9         -5.3140    1.4610   -0.1250 o         1 FR3     -0.394000
      8 N10        -5.8790    0.4620    1.8910 n3        1 FR3     -0.420000
      9 C13        -0.0720    2.0840    0.7220 c2        1 FR3     -0.014000
     10 C14         0.3340    3.2390    1.6090 c3        1 FR3     -0.036000
     11 O15        -0.7070    4.2480    1.6020 oh        1 FR3     -0.319000
     12 C18         0.9760    0.9930    0.8050 c3        1 FR3     -0.169000
     13 C19         1.6070    0.7780   -0.6000 c3        1 FR3     -0.122000
     14 C22         2.1180   -0.6470   -0.7150 c2        1 FR3     -0.068000
     15 C25         3.2900   -0.7760    0.0030 c2        1 FR3     -0.122000
     16 C26         4.0140   -1.9670   -0.0500 c1        1 FR3     -0.128000
     17 C27         3.5550   -3.0260   -0.8290 c1        1 FR3     -0.114500
     18 C28         2.3510   -2.8930   -1.5680 c1        1 FR3     -0.037000
     19 C29         1.6470   -1.7310   -1.5140 c1        1 FR3     -0.026000
     20 C2          1.9170   -3.9370   -2.3980 c1        1 FR3     -0.114500
     21 C4          0.5030   -1.5820   -2.2800 c1        1 FR3     -0.126000
     22 C6          0.7900   -3.7870   -3.1490 c1        1 FR3     -0.124000
     23 C7          0.0780   -2.6120   -3.0950 c1        1 FR3     -0.124000
     24 H1         -2.6010    2.0070   -0.4660 DU        1 FR3      0.203500
     25 H3         -0.9210    0.8250    3.0970 DU        1 FR3      0.203500
     26 H101       -5.5690    0.0680    2.6730 hn        1 FR3      0.232500
     27 H102       -6.7880    0.5050    1.7230 hn        1 FR3      0.232500
     28 H13        -0.1480    2.3980   -0.2140 ha        1 FR3      0.124000
     29 H141        1.1660    3.6270    1.2750 h1        1 FR3      0.100000
     30 H142        0.4740    2.9060    2.5510 h1        1 FR3      0.100000
     31 H15        -0.3510    5.0500    1.8310 ho        1 FR3      0.209000
     32 H181        0.5560    0.1570    1.1090 hc        1 FR3      0.102000
     33 H182        1.6810    1.2610    1.4460 hc        1 FR3      0.102000
     34 H191        2.3690    1.4160   -0.7260 hc        1 FR3      0.094000
     35 H192        0.9070    0.9420   -1.3120 hc        1 FR3      0.094000
     36 H25         3.6110   -0.0350    0.5480 ha        1 FR3      0.131000
     37 H26         4.8450   -2.0570    0.4600 ha        1 FR3      0.135000
     38 H27         4.0680   -3.8700   -0.8680 ha        1 FR3      0.134500
     39 H2          2.4240   -4.7770   -2.4370 ha        1 FR3      0.134500
     40 H4          0.0090   -0.7720   -2.2440 ha        1 FR3      0.132000
     41 H6          0.4880   -4.5130   -3.7260 ha        1 FR3      0.135000
     42 H7         -0.7110   -2.5080   -3.6220 ha        1 FR3      0.135000
@<TRIPOS>BOND
     1    1    2 1   
     2    1    5 1   
     3    2    3 1   
     4    3    4 1   
     5    4    5 1   
     6    6    7 1   
     7    6    8 1   
     8    8   26 1   
     9    8   27 1   
    10    9   10 1   
    11    9   12 1   
    12    9   28 1   
    13   10   11 1   
    14   10   29 1   
    15   10   30 1   
    16   11   31 1   
    17   12   13 1   
    18   12   32 1   
    19   12   33 1   
    20   13   14 1   
    21   13   34 1   
    22   13   35 1   
    23   14   15 1   
    24   14   19 1   
    25   15   16 1   
    26   15   36 1   
    27   16   37 1   
    28   17   18 1   
    29   17   38 1   
    30   18   20 1   
    31   19   21 1   
    32   20   39 1   
    33   21   40 1   
    34   22   23 1   
    35   22   41 1   
    36   23   42 1   
@<TRIPOS>SUBSTRUCTURE
     1 FR3         1 TEMP              0 ****  ****    0 ROOT
