@<TRIPOS>MOLECULE
FR3
   42    44     1     0     0
SMALL
bcc


@<TRIPOS>ATOM
      1 C1         -0.4810    0.6290    3.4250 cc        1 FR3     -0.171600
      2 N2          0.3410    0.4580    2.3150 na        1 FR3     -0.210900
      3 C3          1.1620   -0.6570    2.5830 cc        1 FR3      0.410400
      4 N4          0.9040   -1.1790    3.7950 nd        1 FR3     -0.662000
      5 C5         -0.1220   -0.3880    4.3370 cd        1 FR3      0.231800
      6 C8         -0.7470   -0.5680    5.6600 c         1 FR3      0.604600
      7 O9         -1.6450    0.2100    6.0590 o         1 FR3     -0.638100
      8 N10        -0.3300   -1.6050    6.4530 n         1 FR3     -0.661000
      9 C13         0.3160    1.2420    1.1020 c3        1 FR3      0.057000
     10 C14         1.7110    1.8110    0.7520 c3        1 FR3      0.114400
     11 O15         2.5340    0.7420    0.3180 oh        1 FR3     -0.605800
     12 C18        -0.2580    0.4590   -0.0920 c3        1 FR3     -0.096400
     13 C19        -0.6800    1.3980   -1.2070 c3        1 FR3     -0.035100
     14 C22        -1.1040    0.6490   -2.4240 ca        1 FR3     -0.071300
     15 C25        -2.4470    0.5380   -2.7200 ca        1 FR3     -0.123000
     16 C26        -2.8830   -0.1400   -3.8810 ca        1 FR3     -0.127000
     17 C27        -1.9700   -0.6970   -4.7400 ca        1 FR3     -0.115000
     18 C28        -0.5780   -0.6040   -4.4670 ca        1 FR3     -0.037000
     19 C29        -0.1340    0.0680   -3.2970 ca        1 FR3     -0.027000
     20 C2          0.3780   -1.1770   -5.3520 ca        1 FR3     -0.117000
     21 C4          1.2660    0.1330   -3.0430 ca        1 FR3     -0.124000
     22 C6          1.7200   -1.0900   -5.0820 ca        1 FR3     -0.127000
     23 C7          2.1670   -0.4290   -3.9130 ca        1 FR3     -0.126000
     24 H1         -1.2320    1.4130    3.5140 h4        1 FR3      0.196000
     25 H3          1.9130   -1.0020    1.8610 h5        1 FR3      0.080100
     26 H101       -0.7490   -1.7320    7.3390 hn        1 FR3      0.318000
     27 H102        0.3730   -2.2320    6.1560 hn        1 FR3      0.318000
     28 H13        -0.3540    2.1340    1.3020 h1        1 FR3      0.070700
     29 H141        1.5960    2.5580   -0.0790 h1        1 FR3      0.041700
     30 H142        2.1650    2.3210    1.6430 h1        1 FR3      0.041700
     31 H15         3.4320    1.0890    0.2600 ho        1 FR3      0.411000
     32 H181        0.5160   -0.2630   -0.4650 hc        1 FR3      0.073200
     33 H182       -1.1490   -0.1410    0.2320 hc        1 FR3      0.073200
     34 H191       -1.5250    2.0440   -0.8440 hc        1 FR3      0.047700
     35 H192        0.1650    2.0880   -1.4780 hc        1 FR3      0.047700
     36 H25        -3.2020    0.9800   -2.0520 ha        1 FR3      0.132000
     37 H26        -3.9620   -0.2100   -4.0830 ha        1 FR3      0.134000
     38 H27        -2.2960   -1.2240   -5.6490 ha        1 FR3      0.134000
     39 H2          0.0150   -1.6910   -6.2540 ha        1 FR3      0.133000
     40 H4          1.6240    0.6320   -2.1270 ha        1 FR3      0.140000
     41 H6          2.4610   -1.5320   -5.7650 ha        1 FR3      0.133000
     42 H7          3.2470   -0.3770   -3.7100 ha        1 FR3      0.131000
@<TRIPOS>BOND
     1    1    2 1   
     2    1    5 2   
     3    1   24 1   
     4    2    3 1   
     5    2    9 1   
     6    3    4 2   
     7    3   25 1   
     8    4    5 1   
     9    5    6 1   
    10    6    7 2   
    11    6    8 1   
    12    8   26 1   
    13    8   27 1   
    14    9   10 1   
    15    9   12 1   
    16    9   28 1   
    17   10   11 1   
    18   10   29 1   
    19   10   30 1   
    20   11   31 1   
    21   12   13 1   
    22   12   32 1   
    23   12   33 1   
    24   13   14 1   
    25   13   34 1   
    26   13   35 1   
    27   14   15 ar  
    28   14   19 ar  
    29   15   16 ar  
    30   15   36 1   
    31   16   17 ar  
    32   16   37 1   
    33   17   18 ar  
    34   17   38 1   
    35   18   19 ar  
    36   18   20 ar  
    37   19   21 ar  
    38   20   22 ar  
    39   20   39 1   
    40   21   23 ar  
    41   21   40 1   
    42   22   23 ar  
    43   22   41 1   
    44   23   42 1   
@<TRIPOS>SUBSTRUCTURE
     1 FR3         1 TEMP              0 ****  ****    0 ROOT
