@<TRIPOS>MOLECULE
FR3
   43    45     1     0     0
SMALL
bcc


@<TRIPOS>ATOM
      1 C1          0.1340   -0.1610   -0.0930 cc        1 FR3     -0.069600
      2 N2          1.4480    0.2050    0.0880 na        1 FR3     -0.175900
      3 C3          1.6060    0.5480    1.4580 cc        1 FR3      0.470400
      4 N4          0.4570    0.4220    2.1310 nd        1 FR3     -0.677000
      5 C5         -0.4910   -0.0240    1.1810 cd        1 FR3      0.126800
      6 C8         -1.8670   -0.2900    1.4720 c         1 FR3      0.511600
      7 O9         -2.7750   -0.6760    0.7480 o         1 FR3     -0.445100
      8 N10        -2.2640   -0.0550    2.9220 nz        1 FR3     -0.747400
      9 C13         2.4850    0.1890   -0.9340 c3        1 FR3     -0.003000
     10 C14         3.4900    1.3540   -0.7620 c3        1 FR3      0.118400
     11 O15         4.1990    1.2750    0.4520 oh        1 FR3     -0.601800
     12 C18         3.2240   -1.1580   -0.9990 c3        1 FR3     -0.101400
     13 C19         3.8200   -1.3790   -2.3800 c3        1 FR3     -0.032100
     14 C22         4.7370   -2.5540   -2.3800 ca        1 FR3     -0.095300
     15 C25         4.3000   -3.7550   -2.8980 ca        1 FR3     -0.109000
     16 C26         5.1430   -4.8890   -2.9200 ca        1 FR3     -0.130000
     17 C27         6.4180   -4.8100   -2.4200 ca        1 FR3     -0.098000
     18 C28         6.9050   -3.5870   -1.8830 ca        1 FR3     -0.038000
     19 C29         6.0640   -2.4430   -1.8630 ca        1 FR3     -0.023000
     20 C2          8.2290   -3.4920   -1.3710 ca        1 FR3     -0.102000
     21 C4          6.5860   -1.2300   -1.3320 ca        1 FR3     -0.147000
     22 C6          8.7010   -2.3080   -0.8630 ca        1 FR3     -0.126000
     23 C7          7.8690   -1.1630   -0.8470 ca        1 FR3     -0.110000
     24 H1         -0.2910   -0.4800   -1.0500 h4        1 FR3      0.217000
     25 H3          2.5760    0.8860    1.8640 h5        1 FR3      0.122100
     26 H101       -1.6990   -0.6540    3.5320 hn        1 FR3      0.469467
     27 H102       -3.2580   -0.2660    3.0530 hn        1 FR3      0.469467
     28 H13         1.9560    0.3540   -1.9230 h1        1 FR3      0.085700
     29 H141        4.1810    1.3430   -1.6470 h1        1 FR3      0.077700
     30 H142        2.9490    2.3390   -0.7210 h1        1 FR3      0.077700
     31 H15         4.9520    0.6810    0.3270 ho        1 FR3      0.423000
     32 H181        2.5260   -2.0070   -0.7730 hc        1 FR3      0.067700
     33 H182        4.0340   -1.1830   -0.2230 hc        1 FR3      0.067700
     34 H191        2.9880   -1.5430   -3.1180 hc        1 FR3      0.053700
     35 H192        4.3770   -0.4660   -2.7210 hc        1 FR3      0.053700
     36 H25         3.2830   -3.8480   -3.3110 ha        1 FR3      0.131000
     37 H26         4.7610   -5.8310   -3.3440 ha        1 FR3      0.143000
     38 H27         7.0860   -5.6850   -2.4310 ha        1 FR3      0.144000
     39 H2          8.8670   -4.3900   -1.3950 ha        1 FR3      0.144000
     40 H4          5.9520   -0.3320   -1.3270 ha        1 FR3      0.106000
     41 H6          9.7260   -2.2310   -0.4690 ha        1 FR3      0.145000
     42 H7          8.2690   -0.2200   -0.4460 ha        1 FR3      0.136000
     43 H103       -2.0810    0.9220    3.1710 hn        1 FR3      0.469467
@<TRIPOS>BOND
     1    1    2 1   
     2    1    5 2   
     3    1   24 1   
     4    2    3 1   
     5    2    9 1   
     6    3    4 2   
     7    3   25 1   
     8    4    5 1   
     9    5    6 1   
    10    6    7 2   
    11    6    8 1   
    12    8   26 1   
    13    8   27 1   
    14    8   43 1   
    15    9   10 1   
    16    9   12 1   
    17    9   28 1   
    18   10   11 1   
    19   10   29 1   
    20   10   30 1   
    21   11   31 1   
    22   12   13 1   
    23   12   32 1   
    24   12   33 1   
    25   13   14 1   
    26   13   34 1   
    27   13   35 1   
    28   14   15 ar  
    29   14   19 ar  
    30   15   16 ar  
    31   15   36 1   
    32   16   17 ar  
    33   16   37 1   
    34   17   18 ar  
    35   17   38 1   
    36   18   19 ar  
    37   18   20 ar  
    38   19   21 ar  
    39   20   22 ar  
    40   20   39 1   
    41   21   23 ar  
    42   21   40 1   
    43   22   23 ar  
    44   22   41 1   
    45   23   42 1   
@<TRIPOS>SUBSTRUCTURE
     1 FR3         1 TEMP              0 ****  ****    0 ROOT
