@<TRIPOS>MOLECULE
FR4
   60    63     1     0     0
SMALL
bcc


@<TRIPOS>ATOM
      1 C1          0.9620    0.3470    6.0280 cc        1 FR4     -0.172600
      2 N2          1.0560    0.4580    4.6430 na        1 FR4     -0.214900
      3 C3          2.0380   -0.4640    4.2260 cc        1 FR4      0.412400
      4 N4          2.5630   -1.1300    5.2690 nd        1 FR4     -0.660000
      5 C5          1.9010   -0.6360    6.4050 cd        1 FR4      0.234800
      6 C8          2.1360   -1.0610    7.7990 c         1 FR4      0.604600
      7 O9          1.5080   -0.5330    8.7440 o         1 FR4     -0.637100
      8 N10         3.0550   -2.0470    8.0430 n         1 FR4     -0.660000
      9 C13         0.2620    1.3180    3.7990 c3        1 FR4      0.060000
     10 C14         1.1380    2.2380    2.9160 c3        1 FR4      0.115400
     11 O15         1.8020    1.4400    1.9520 oh        1 FR4     -0.605800
     12 C18        -0.7340    0.5320    2.9290 c3        1 FR4     -0.128400
     13 C19        -1.8460    1.4600    2.4280 c3        1 FR4      0.051300
     14 N22        -2.9010    0.8080    1.7150 na        1 FR4     -0.087400
     15 C27        -4.0770    0.2990    2.3020 cc        1 FR4     -0.115100
     16 C28        -4.7740   -0.4760    1.3860 cd        1 FR4     -0.168200
     17 C29        -3.9910   -0.5100    0.1690 ca        1 FR4     -0.116800
     18 C30        -2.8070    0.2790    0.4160 ca        1 FR4     -0.014200
     19 C31        -4.1570   -1.1050   -1.0780 ca        1 FR4     -0.059000
     20 C32        -3.1880   -0.9440   -2.0550 ca        1 FR4     -0.178000
     21 C33        -2.0150   -0.1770   -1.8140 ca        1 FR4      0.093600
     22 C34        -1.8220    0.4440   -0.5620 ca        1 FR4     -0.212000
     23 N1         -1.0100   -0.0090   -2.7820 n         1 FR4     -0.475100
     24 C2         -0.9990   -0.4540   -4.0980 c         1 FR4      0.664100
     25 O1         -1.9330   -1.0950   -4.6100 o         1 FR4     -0.585100
     26 C4          0.2520   -0.0980   -4.8890 c3        1 FR4     -0.151400
     27 C6          0.1770   -0.6640   -6.2950 c3        1 FR4     -0.031100
     28 C7          2.3980   -1.2140   -7.3190 ca        1 FR4     -0.127000
     29 C11         1.3770   -0.2850   -7.0890 ca        1 FR4     -0.085300
     30 C9          1.4880    1.0030   -7.6250 ca        1 FR4     -0.127000
     31 C12         2.6060    1.3580   -8.3780 ca        1 FR4     -0.128000
     32 C10         3.6220    0.4290   -8.6030 ca        1 FR4     -0.130000
     33 C15         3.5150   -0.8570   -8.0730 ca        1 FR4     -0.128000
     34 H1          0.2810    0.9340    6.6440 h4        1 FR4      0.197000
     35 H3          2.3120   -0.5720    3.1680 h5        1 FR4      0.080100
     36 H101        3.2110   -2.3400    8.9740 hn        1 FR4      0.318500
     37 H102        3.5550   -2.4810    7.3100 hn        1 FR4      0.318500
     38 H13        -0.3230    2.0020    4.4890 h1        1 FR4      0.069700
     39 H141        0.4700    2.9740    2.3920 h1        1 FR4      0.042700
     40 H142        1.8770    2.7990    3.5480 h1        1 FR4      0.042700
     41 H15         2.5370    1.9640    1.6130 ho        1 FR4      0.413000
     42 H181       -1.1840   -0.3070    3.5220 hc        1 FR4      0.079700
     43 H182       -0.1890    0.0810    2.0570 hc        1 FR4      0.079700
     44 H191       -1.3940    2.2310    1.7380 h1        1 FR4      0.055200
     45 H192       -2.3050    1.9960    3.3080 h1        1 FR4      0.055200
     46 H27        -4.3340    0.5630    3.3290 h4        1 FR4      0.164000
     47 H28        -5.7300   -0.9670    1.5390 ha        1 FR4      0.158000
     48 H31        -5.0560   -1.7030   -1.2880 ha        1 FR4      0.139000
     49 H32        -3.3380   -1.4250   -3.0350 ha        1 FR4      0.173000
     50 H34        -0.9240    1.0380   -0.3440 ha        1 FR4      0.131000
     51 HN1        -0.2120    0.5050   -2.4790 hn        1 FR4      0.311500
     52 H41         1.1550   -0.5060   -4.3640 hc        1 FR4      0.067200
     53 H42         0.3540    1.0190   -4.9370 hc        1 FR4      0.067200
     54 H61        -0.7530   -0.2820   -6.7980 hc        1 FR4      0.068700
     55 H62         0.0770   -1.7810   -6.2380 hc        1 FR4      0.068700
     56 H9          0.6840    1.7350   -7.4540 ha        1 FR4      0.132000
     57 H12         2.6840    2.3710   -8.7990 ha        1 FR4      0.132000
     58 H10         4.5020    0.7090   -9.1990 ha        1 FR4      0.132000
     59 H2          4.3130   -1.5930   -8.2520 ha        1 FR4      0.132000
     60 H7          2.3160   -2.2310   -6.9080 ha        1 FR4      0.132000
@<TRIPOS>BOND
     1    1    2 1   
     2    1    5 2   
     3    1   34 1   
     4    2    3 1   
     5    2    9 1   
     6    3    4 2   
     7    3   35 1   
     8    4    5 1   
     9    5    6 1   
    10    6    7 2   
    11    6    8 1   
    12    8   36 1   
    13    8   37 1   
    14    9   10 1   
    15    9   12 1   
    16    9   38 1   
    17   10   11 1   
    18   10   39 1   
    19   10   40 1   
    20   11   41 1   
    21   12   13 1   
    22   12   42 1   
    23   12   43 1   
    24   13   14 1   
    25   13   44 1   
    26   13   45 1   
    27   14   15 1   
    28   14   18 1   
    29   15   16 2   
    30   15   46 1   
    31   16   17 1   
    32   16   47 1   
    33   17   18 ar  
    34   17   19 ar  
    35   18   22 ar  
    36   19   20 ar  
    37   19   48 1   
    38   20   21 ar  
    39   20   49 1   
    40   21   22 ar  
    41   21   23 1   
    42   22   50 1   
    43   23   24 1   
    44   23   51 1   
    45   24   25 2   
    46   24   26 1   
    47   26   27 1   
    48   26   52 1   
    49   26   53 1   
    50   27   29 1   
    51   27   54 1   
    52   27   55 1   
    53   28   29 ar  
    54   28   33 ar  
    55   28   60 1   
    56   29   30 ar  
    57   30   31 ar  
    58   30   56 1   
    59   31   32 ar  
    60   31   57 1   
    61   32   33 ar  
    62   32   58 1   
    63   33   59 1   
@<TRIPOS>SUBSTRUCTURE
     1 FR4         1 TEMP              0 ****  ****    0 ROOT
