@<TRIPOS>MOLECULE
FR4
   61    64     1     0     0
SMALL
bcc


@<TRIPOS>ATOM
      1 C1          0.2440   -0.1530   -0.2450 cc        1 FR4     -0.068600
      2 N2          1.5520    0.2280   -0.0460 na        1 FR4     -0.179900
      3 C3          1.7420    0.3730    1.3540 cc        1 FR4      0.477400
      4 N4          0.6190    0.1130    2.0310 nd        1 FR4     -0.677000
      5 C5         -0.3440   -0.2240    1.0500 cd        1 FR4      0.128800
      6 C8         -1.7000   -0.5830    1.3360 c         1 FR4      0.511600
      7 O9         -2.6220   -0.8750    0.5850 o         1 FR4     -0.443100
      8 N10        -2.0500   -0.6090    2.8160 n4        1 FR4     -0.747400
      9 C13         2.5770    0.3710   -1.0710 c3        1 FR4      0.044000
     10 C14         3.3330    1.7140   -0.9540 c3        1 FR4      0.118400
     11 O15         4.0160    1.7340    0.2860 oh        1 FR4     -0.617800
     12 C18         3.5620   -0.8070   -1.0610 c3        1 FR4     -0.138400
     13 C19         4.3540   -0.8610   -2.3760 c3        1 FR4      0.047300
     14 N22         5.0850   -2.0710   -2.5930 na        1 FR4     -0.079400
     15 C27         4.4620   -3.2680   -3.0330 cc        1 FR4     -0.142100
     16 C28         5.2170   -4.3690   -2.6740 cd        1 FR4     -0.142200
     17 C29         6.3440   -3.8850   -1.8990 ca        1 FR4     -0.118800
     18 C30         6.2150   -2.4510   -1.8300 ca        1 FR4     -0.026200
     19 C31         7.4270   -4.5020   -1.2800 ca        1 FR4     -0.055000
     20 C32         8.3600   -3.7320   -0.6030 ca        1 FR4     -0.166000
     21 C33         8.2410   -2.3180   -0.5330 ca        1 FR4      0.099600
     22 C34         7.1520   -1.6680   -1.1540 ca        1 FR4     -0.211000
     23 N1          9.1940   -1.5250    0.1260 n         1 FR4     -0.481100
     24 C2         10.1130   -1.9410    1.0850 c         1 FR4      0.664100
     25 O1         10.1610   -3.1080    1.5080 o         1 FR4     -0.577100
     26 C4         11.0590   -0.8750    1.6130 c3        1 FR4     -0.154400
     27 C6         12.0650   -0.4560    0.5580 c3        1 FR4     -0.031100
     28 C7         14.0360    0.0270    2.0250 ca        1 FR4     -0.125500
     29 C11        13.0710    0.4870    1.1210 ca        1 FR4     -0.093300
     30 C9         13.0750    1.8330    0.7390 ca        1 FR4     -0.125500
     31 C12        14.0290    2.7080    1.2580 ca        1 FR4     -0.125000
     32 C10        14.9850    2.2450    2.1610 ca        1 FR4     -0.123000
     33 C15        14.9870    0.9030    2.5430 ca        1 FR4     -0.125000
     34 H1         -0.2000   -0.3460   -1.2270 h4        1 FR4      0.217000
     35 H3          2.7150    0.6830    1.7740 h5        1 FR4      0.120100
     36 H101       -3.0320   -0.8770    2.9410 hn        1 FR4      0.470133
     37 H102       -1.4440   -1.2800    3.2980 hn        1 FR4      0.470133
     38 H13         2.0340    0.3890   -2.0660 h1        1 FR4      0.082700
     39 H141        2.6170    2.5790   -1.0070 h1        1 FR4      0.055700
     40 H142        4.0570    1.7780   -1.8110 h1        1 FR4      0.055700
     41 H15         4.6190    2.4890    0.2660 ho        1 FR4      0.432000
     42 H181        3.0080   -1.7730   -0.9220 hc        1 FR4      0.080700
     43 H182        4.2720   -0.6920   -0.1990 hc        1 FR4      0.080700
     44 H191        3.6450   -0.7310   -3.2430 h1        1 FR4      0.059200
     45 H192        5.0950   -0.0090   -2.3890 h1        1 FR4      0.059200
     46 H27         3.5490   -3.2150   -3.6280 h4        1 FR4      0.162000
     47 H28         5.0280   -5.4080   -2.9300 ha        1 FR4      0.164000
     48 H31         7.5460   -5.5950   -1.3330 ha        1 FR4      0.147000
     49 H32         9.2100   -4.2350   -0.1090 ha        1 FR4      0.176000
     50 H34         7.0430   -0.5750   -1.1200 ha        1 FR4      0.125000
     51 HN1         9.1970   -0.5600   -0.1160 hn        1 FR4      0.314500
     52 H41        11.5970   -1.3150    2.4970 hc        1 FR4      0.078200
     53 H42        10.4790    0.0130    1.9750 hc        1 FR4      0.078200
     54 H61        11.5350    0.0210   -0.3090 hc        1 FR4      0.055700
     55 H62        12.5930   -1.3680    0.1650 hc        1 FR4      0.055700
     56 H9         12.3280    2.2030    0.0210 ha        1 FR4      0.130500
     57 H12        14.0280    3.7640    0.9500 ha        1 FR4      0.136000
     58 H10        15.7390    2.9350    2.5680 ha        1 FR4      0.137000
     59 H2         15.7430    0.5340    3.2520 ha        1 FR4      0.136000
     60 H103       -1.8900    0.3190    3.2210 hn        1 FR4      0.470133
     61 H7         14.0420   -1.0330    2.3230 ha        1 FR4      0.130500
@<TRIPOS>BOND
     1    1    2 1   
     2    1    5 2   
     3    1   34 1   
     4    2    3 1   
     5    2    9 1   
     6    3    4 2   
     7    3   35 1   
     8    4    5 1   
     9    5    6 1   
    10    6    7 2   
    11    6    8 1   
    12    8   36 1   
    13    8   37 1   
    14    8   60 1   
    15    9   10 1   
    16    9   12 1   
    17    9   38 1   
    18   10   11 1   
    19   10   39 1   
    20   10   40 1   
    21   11   41 1   
    22   12   13 1   
    23   12   42 1   
    24   12   43 1   
    25   13   14 1   
    26   13   44 1   
    27   13   45 1   
    28   14   15 1   
    29   14   18 1   
    30   15   16 2   
    31   15   46 1   
    32   16   17 1   
    33   16   47 1   
    34   17   18 ar  
    35   17   19 ar  
    36   18   22 ar  
    37   19   20 ar  
    38   19   48 1   
    39   20   21 ar  
    40   20   49 1   
    41   21   22 ar  
    42   21   23 1   
    43   22   50 1   
    44   23   24 1   
    45   23   51 1   
    46   24   25 2   
    47   24   26 1   
    48   26   27 1   
    49   26   52 1   
    50   26   53 1   
    51   27   29 1   
    52   27   54 1   
    53   27   55 1   
    54   28   29 ar  
    55   28   33 ar  
    56   28   61 1   
    57   29   30 ar  
    58   30   31 ar  
    59   30   56 1   
    60   31   32 ar  
    61   31   57 1   
    62   32   33 ar  
    63   32   58 1   
    64   33   59 1   
@<TRIPOS>SUBSTRUCTURE
     1 FR4         1 TEMP              0 ****  ****    0 ROOT
