@<TRIPOS>MOLECULE
FR4
   60    51     1     0     0
SMALL
bcc


@<TRIPOS>ATOM
      1 C1         -6.3760   -0.7350   -2.5390 c1        1 FR4     -0.131500
      2 N2         -5.8900   -0.5620   -1.3070 n2        1 FR4     -0.147500
      3 C3         -6.3760   -1.5770   -0.5150 c1        1 FR4     -0.103000
      4 N4         -7.1590   -2.3630   -1.2810 n2        1 FR4     -0.147500
      5 C5         -7.1680   -1.8560   -2.5310 c1        1 FR4     -0.131500
      6 C8         -7.9880   -2.3960   -3.7290 c1        1 FR4      0.387000
      7 O9         -7.9600   -1.7880   -4.8390 o         1 FR4     -0.393000
      8 N10        -8.7070   -3.5560   -3.6040 n3        1 FR4     -0.419000
      9 C13        -4.9520    0.4970   -0.8830 c2        1 FR4     -0.012000
     10 C14        -5.6240    1.4070    0.0510 c3        1 FR4     -0.032000
     11 O15        -6.8060    1.9480   -0.5690 oh        1 FR4     -0.315000
     12 C18        -3.7360   -0.1430   -0.1940 c3        1 FR4     -0.202000
     13 C19        -2.5020    0.1690   -0.9750 c3        1 FR4     -0.016000
     14 N22        -1.5620   -0.9480   -0.8730 n3        1 FR4     -0.175000
     15 C27        -1.9700   -2.1100   -1.4780 c1        1 FR4     -0.089000
     16 C28        -0.9140   -2.9920   -1.4670 c1        1 FR4     -0.181000
     17 C29         0.1600   -2.3710   -0.8490 c1        1 FR4     -0.104000
     18 C30        -0.2290   -1.1130   -0.4800 c1        1 FR4      0.026000
     19 C31         1.4700   -2.8190   -0.5760 c1        1 FR4     -0.059000
     20 C32         2.3760   -1.9840    0.0720 c1        1 FR4     -0.174000
     21 C33         1.9940   -0.7120    0.4490 c1        1 FR4      0.100000
     22 C34         0.6810   -0.2610    0.1750 c1        1 FR4     -0.212000
     23 N1          2.8070    0.3290    0.9630 n         1 FR4     -0.331000
     24 C2          4.2640    0.1410    1.0650 c2        1 FR4      0.308000
     25 O1          4.7810   -0.9330    0.7000 o         1 FR4     -0.346000
     26 C4          5.1610    1.2810    1.6460 c3        1 FR4     -0.180000
     27 C6          6.5790    0.9920    1.3530 c3        1 FR4     -0.116000
     28 C7          7.9730    1.6520    3.3760 c1        1 FR4     -0.127500
     29 C11         7.4740    1.9810    2.1170 c1        1 FR4     -0.079000
     30 C9          7.8580    3.2050    1.4990 c1        1 FR4     -0.129000
     31 C12         8.7230    4.0660    2.1440 c1        1 FR4     -0.127500
     32 C10         9.2230    3.7410    3.4010 c1        1 FR4     -0.127500
     33 C15         8.8450    2.5210    4.0240 c1        1 FR4     -0.127500
     34 H1         -6.2120   -0.2030   -3.2580 DU        1 FR4      0.182500
     35 H3         -6.1890   -1.7050    0.4240 DU        1 FR4      0.182500
     36 H101       -9.0550   -3.8260   -2.7250 hn        1 FR4      0.233000
     37 H102       -8.8040   -4.1090   -4.3210 hn        1 FR4      0.233000
     38 H13        -4.6460    1.0140   -1.6870 ha        1 FR4      0.126000
     39 H141       -5.0230    2.1260    0.2830 h1        1 FR4      0.100500
     40 H142       -5.8650    0.9400    0.8260 h1        1 FR4      0.100500
     41 H15        -7.1300    2.6580   -0.0580 ho        1 FR4      0.210000
     42 H181       -3.6440    0.2310    0.7510 hc        1 FR4      0.107000
     43 H182       -3.8540   -1.0780   -0.1530 hc        1 FR4      0.107000
     44 H191       -2.7520    0.3210   -1.9570 h1        1 FR4      0.105000
     45 H192       -2.0900    0.9640   -0.6220 h1        1 FR4      0.105000
     46 H27        -2.8720   -2.2930   -1.8320 DU        1 FR4      0.182500
     47 H28        -0.9180   -3.8600   -1.8170 DU        1 FR4      0.182500
     48 H31         1.7470   -3.7440   -0.8490 ha        1 FR4      0.140000
     49 H32         3.3270   -2.3120    0.2660 ha        1 FR4      0.172000
     50 H34         0.4030    0.6520    0.4430 ha        1 FR4      0.127000
     51 HN1         2.4400    1.1400    1.1520 hn        1 FR4      0.226000
     52 H41         4.9220    2.0960    1.2550 hc        1 FR4      0.107500
     53 H42         5.0320    1.3360    2.6200 hc        1 FR4      0.107500
     54 H61         6.7390    1.0910    0.3820 hc        1 FR4      0.108000
     55 H62         6.7840    0.1040    1.6190 hc        1 FR4      0.108000
     56 H7          7.6980    0.7720    3.8230 ha        1 FR4      0.132250
     57 H9          7.4940    3.4460    0.5810 ha        1 FR4      0.131000
     58 H12         8.9830    4.9030    1.7180 ha        1 FR4      0.132250
     59 H10         9.8240    4.3420    3.8470 ha        1 FR4      0.132250
     60 H2          9.2110    2.2830    4.9420 ha        1 FR4      0.132250
@<TRIPOS>BOND
     1    1    2 1   
     2    1    5 1   
     3    2    3 1   
     4    3    4 1   
     5    4    5 1   
     6    6    7 1   
     7    6    8 1   
     8    8   36 1   
     9    8   37 1   
    10    9   10 1   
    11    9   12 1   
    12    9   38 1   
    13   10   11 1   
    14   10   39 1   
    15   10   40 1   
    16   11   41 1   
    17   12   13 1   
    18   12   42 1   
    19   12   43 1   
    20   13   14 1   
    21   13   44 1   
    22   13   45 1   
    23   14   15 1   
    24   14   18 1   
    25   15   16 1   
    26   16   17 1   
    27   17   19 1   
    28   18   22 1   
    29   19   48 1   
    30   20   21 1   
    31   20   49 1   
    32   21   23 1   
    33   22   50 1   
    34   23   24 1   
    35   23   51 1   
    36   24   25 1   
    37   24   26 1   
    38   26   27 1   
    39   26   52 1   
    40   26   53 1   
    41   27   29 1   
    42   27   54 1   
    43   27   55 1   
    44   28   33 1   
    45   28   56 1   
    46   29   30 1   
    47   30   57 1   
    48   31   32 1   
    49   31   58 1   
    50   32   59 1   
    51   33   60 1   
@<TRIPOS>SUBSTRUCTURE
     1 FR4         1 TEMP              0 ****  ****    0 ROOT
