@<TRIPOS>MOLECULE
FR4
   62    65     1     0     0
SMALL
bcc


@<TRIPOS>ATOM
      1 C1          0.0180   -0.4810   -1.2460 cc        1 FR4     -0.074600
      2 N2          0.9880   -0.1100   -0.3350 na        1 FR4     -0.193900
      3 C3          0.3890   -0.1370    0.9520 cc        1 FR4      0.469400
      4 N4         -0.8970   -0.5010    0.8870 nd        1 FR4     -0.664000
      5 C5         -1.1580   -0.7240   -0.4840 cd        1 FR4      0.142800
      6 C8         -2.4290   -1.1290   -1.0160 c         1 FR4      0.506600
      7 O9         -2.7540   -1.3700   -2.1710 o         1 FR4     -0.427100
      8 N10        -3.5370   -1.2790    0.0100 n4        1 FR4     -0.744400
      9 C13         2.3650    0.2440   -0.6340 c3        1 FR4      0.047000
     10 C14         2.7510    1.6160   -0.0320 c3        1 FR4      0.115400
     11 O15         2.7650    1.4880    1.3770 oh        1 FR4     -0.619800
     12 C18         3.3520   -0.8430   -0.1720 c3        1 FR4     -0.122400
     13 C19         4.7260   -0.6190   -0.8180 c3        1 FR4      0.045300
     14 N22         5.6060   -1.7480   -0.7280 na        1 FR4     -0.076400
     15 C27         5.4110   -2.9690   -1.3940 cc        1 FR4     -0.070100
     16 C28         6.4370   -3.8580   -1.0930 cd        1 FR4     -0.164200
     17 C29         7.3330   -3.1800   -0.1910 ca        1 FR4     -0.049800
     18 C30         6.7810   -1.8510    0.0280 ca        1 FR4     -0.037200
     19 C31         8.5250   -3.5460    0.4310 ca        1 FR4     -0.046000
     20 C32         9.1750   -2.6360    1.2500 ca        1 FR4     -0.143000
     21 C33         8.6310   -1.3460    1.4540 ca        1 FR4     -0.048400
     22 C34         7.4330   -0.9310    0.8550 ca        1 FR4     -0.106000
     23 N1          9.3420   -0.4150    2.3390 n4        1 FR4     -0.550200
     24 C2          9.8630    0.8090    1.5880 c         1 FR4      0.566100
     25 O1          9.0250    1.6630    1.3500 o         1 FR4     -0.424100
     26 C4         11.3270    0.8150    1.2760 c3        1 FR4     -0.157400
     27 C6         11.6960   -0.2120    0.2150 c3        1 FR4     -0.023100
     28 C7         14.0110   -1.1280    0.5000 ca        1 FR4     -0.119500
     29 C11        13.1590   -0.1640   -0.0500 ca        1 FR4     -0.129300
     30 C9         13.6880    0.8380   -0.8730 ca        1 FR4     -0.119500
     31 C12        15.0560    0.8770   -1.1370 ca        1 FR4     -0.115500
     32 C10        15.9030   -0.0850   -0.5840 ca        1 FR4     -0.099000
     33 C15        15.3790   -1.0870    0.2330 ca        1 FR4     -0.115500
     34 H1          0.1800   -0.5500   -2.3260 h4        1 FR4      0.220000
     35 H3          0.9570    0.1390    1.8570 h5        1 FR4      0.115100
     36 H101       -3.2680   -1.9810    0.7070 hn        1 FR4      0.474133
     37 H102       -4.4070   -1.5670   -0.4510 hn        1 FR4      0.474133
     38 H13         2.4350    0.3500   -1.7610 h1        1 FR4      0.086700
     39 H141        2.0240    2.4100   -0.3520 h1        1 FR4      0.057200
     40 H142        3.7770    1.8850   -0.4040 h1        1 FR4      0.057200
     41 H15         2.8740    2.3760    1.7430 ho        1 FR4      0.436000
     42 H181        2.9630   -1.8570   -0.4540 hc        1 FR4      0.081700
     43 H182        3.4440   -0.8080    0.9460 hc        1 FR4      0.081700
     44 H191        4.5850   -0.3790   -1.9140 h1        1 FR4      0.069700
     45 H192        5.2270    0.2630   -0.3260 h1        1 FR4      0.069700
     46 H27         4.5480   -3.1070   -2.0520 h4        1 FR4      0.184000
     47 H28         6.5540   -4.8730   -1.4680 ha        1 FR4      0.189000
     48 H31         8.9480   -4.5520    0.2700 ha        1 FR4      0.177000
     49 H32        10.1180   -2.9350    1.7370 ha        1 FR4      0.154000
     50 H34         7.0270    0.0800    1.0160 ha        1 FR4      0.159000
     51 HN1         8.6900   -0.1090    3.0720 hn        1 FR4      0.460800
     52 H41        11.5850    1.8490    0.9020 hc        1 FR4      0.118200
     53 H42        11.9220    0.6380    2.2140 hc        1 FR4      0.118200
     54 H61        11.1330    0.0090   -0.7320 hc        1 FR4      0.058700
     55 H62        11.3970   -1.2400    0.5550 hc        1 FR4      0.058700
     56 H9         13.0220    1.5920   -1.3190 ha        1 FR4      0.127000
     57 H12        15.4670    1.6650   -1.7870 ha        1 FR4      0.151000
     58 H10        16.9830   -0.0540   -0.7950 ha        1 FR4      0.155000
     59 H2         16.0450   -1.8490    0.6660 ha        1 FR4      0.151000
     60 H103       -3.6810   -0.3850    0.4920 hn        1 FR4      0.474133
     61 H121       10.1310   -0.9060    2.7760 hn        1 FR4      0.460800
     62 H7         13.6050   -1.9270    1.1370 ha        1 FR4      0.127000
@<TRIPOS>BOND
     1    1    2 1   
     2    1    5 2   
     3    1   34 1   
     4    2    3 1   
     5    2    9 1   
     6    3    4 2   
     7    3   35 1   
     8    4    5 1   
     9    5    6 1   
    10    6    7 2   
    11    6    8 1   
    12    8   36 1   
    13    8   37 1   
    14    8   60 1   
    15    9   10 1   
    16    9   12 1   
    17    9   38 1   
    18   10   11 1   
    19   10   39 1   
    20   10   40 1   
    21   11   41 1   
    22   12   13 1   
    23   12   42 1   
    24   12   43 1   
    25   13   14 1   
    26   13   44 1   
    27   13   45 1   
    28   14   15 1   
    29   14   18 1   
    30   15   16 2   
    31   15   46 1   
    32   16   17 1   
    33   16   47 1   
    34   17   18 ar  
    35   17   19 ar  
    36   18   22 ar  
    37   19   20 ar  
    38   19   48 1   
    39   20   21 ar  
    40   20   49 1   
    41   21   22 ar  
    42   21   23 1   
    43   22   50 1   
    44   23   24 1   
    45   23   51 1   
    46   23   61 1   
    47   24   25 2   
    48   24   26 1   
    49   26   27 1   
    50   26   52 1   
    51   26   53 1   
    52   27   29 1   
    53   27   54 1   
    54   27   55 1   
    55   28   29 ar  
    56   28   33 ar  
    57   28   62 1   
    58   29   30 ar  
    59   30   31 ar  
    60   30   56 1   
    61   31   32 ar  
    62   31   57 1   
    63   32   33 ar  
    64   32   58 1   
    65   33   59 1   
@<TRIPOS>SUBSTRUCTURE
     1 FR4         1 TEMP              0 ****  ****    0 ROOT
