@<TRIPOS>MOLECULE
FR4
   61    64     1     0     0
SMALL
bcc


@<TRIPOS>ATOM
      1 C1          0.2280   -0.1560   -0.2700 cc        1 FR4     -0.068600
      2 N2          1.5350    0.2140   -0.0460 na        1 FR4     -0.179900
      3 C3          1.7040    0.3420    1.3590 cc        1 FR4      0.477400
      4 N4          0.5680    0.0810    2.0150 nd        1 FR4     -0.677000
      5 C5         -0.3810   -0.2370    1.0150 cd        1 FR4      0.128800
      6 C8         -1.7440   -0.5900    1.2750 c         1 FR4      0.511600
      7 O9         -2.6550   -0.8660    0.5070 o         1 FR4     -0.443100
      8 N10        -2.1180   -0.6300    2.7490 nz        1 FR4     -0.747400
      9 C13         2.5770    0.3620   -1.0530 c3        1 FR4      0.044000
     10 C14         3.3380    1.6990   -0.9100 c3        1 FR4      0.118400
     11 O15         4.0000    1.7040    0.3420 oh        1 FR4     -0.617800
     12 C18         3.5560   -0.8210   -1.0400 c3        1 FR4     -0.138400
     13 C19         4.3570   -0.8730   -2.3500 c3        1 FR4      0.047300
     14 N22         5.0900   -2.0830   -2.5630 na        1 FR4     -0.079400
     15 C27         4.4680   -3.2840   -2.9940 cc        1 FR4     -0.142100
     16 C28         5.2260   -4.3810   -2.6300 cd        1 FR4     -0.141200
     17 C29         6.3540   -3.8910   -1.8620 ca        1 FR4     -0.118800
     18 C30         6.2240   -2.4570   -1.8010 ca        1 FR4     -0.026200
     19 C31         7.4400   -4.5020   -1.2440 ca        1 FR4     -0.054000
     20 C32         8.3750   -3.7270   -0.5750 ca        1 FR4     -0.166000
     21 C33         8.2550   -2.3130   -0.5130 ca        1 FR4      0.100600
     22 C34         7.1620   -1.6680   -1.1340 ca        1 FR4     -0.211000
     23 N1          9.2090   -1.5140    0.1360 ns        1 FR4     -0.481100
     24 C2         10.1340   -1.9220    1.0930 c         1 FR4      0.665100
     25 O1         10.1860   -3.0870    1.5230 o         1 FR4     -0.576100
     26 C4         11.0820   -0.8520    1.6090 c3        1 FR4     -0.154400
     27 C6         12.0820   -0.4380    0.5460 c3        1 FR4     -0.031100
     28 C7         14.0590    0.0550    1.9990 ca        1 FR4     -0.125500
     29 C11        13.0890    0.5090    1.0970 ca        1 FR4     -0.093300
     30 C9         13.0900    1.8530    0.7070 ca        1 FR4     -0.125500
     31 C12        14.0460    2.7310    1.2150 ca        1 FR4     -0.125000
     32 C10        15.0080    2.2750    2.1160 ca        1 FR4     -0.123000
     33 C15        15.0130    0.9350    2.5060 ca        1 FR4     -0.125000
     34 H1         -0.2020   -0.3340   -1.2610 h4        1 FR4      0.217000
     35 H3          2.6730    0.6400    1.7980 h5        1 FR4      0.120100
     36 H101       -1.5240   -1.3110    3.2330 hn        1 FR4      0.470133
     37 H102       -1.9580    0.2920    3.1670 hn        1 FR4      0.470133
     38 H13         2.0500    0.3940   -2.0570 h1        1 FR4      0.082700
     39 H141        2.6280    2.5680   -0.9660 h1        1 FR4      0.055700
     40 H142        4.0770    1.7680   -1.7530 h1        1 FR4      0.055700
     41 H15         4.6090    2.4530    0.3390 ho        1 FR4      0.432000
     42 H181        4.2590   -0.7130   -0.1720 hc        1 FR4      0.081200
     43 H182        2.9960   -1.7850   -0.9110 hc        1 FR4      0.081200
     44 H191        5.0970   -0.0210   -2.3580 h1        1 FR4      0.059200
     45 H192        3.6540   -0.7440   -3.2220 h1        1 FR4      0.059200
     46 H27         3.5530   -3.2360   -3.5860 h4        1 FR4      0.162000
     47 H28         5.0370   -5.4220   -2.8790 ha        1 FR4      0.164000
     48 H31         7.5610   -5.5950   -1.2900 ha        1 FR4      0.147000
     49 H32         9.2270   -4.2250   -0.0810 ha        1 FR4      0.176000
     50 H34         7.0520   -0.5750   -1.1070 ha        1 FR4      0.125000
     51 HN1         9.2090   -0.5500   -0.1120 hn        1 FR4      0.314500
     52 H41        11.6250   -1.2850    2.4920 hc        1 FR4      0.078200
     53 H42        10.5020    0.0370    1.9690 hc        1 FR4      0.078200
     54 H61        12.6070   -1.3520    0.1550 hc        1 FR4      0.055700
     55 H62        11.5460    0.0330   -0.3210 hc        1 FR4      0.055700
     56 H9         12.3380    2.2180   -0.0080 ha        1 FR4      0.130500
     57 H12        14.0420    3.7860    0.9020 ha        1 FR4      0.136000
     58 H10        15.7630    2.9680    2.5150 ha        1 FR4      0.137000
     59 H2         15.7740    0.5710    3.2130 ha        1 FR4      0.136000
     60 H103       -3.1030   -0.8920    2.8560 hn        1 FR4      0.470133
     61 H7         14.0690   -1.0030    2.3030 ha        1 FR4      0.130500
@<TRIPOS>BOND
     1    1    2 1   
     2    1    5 2   
     3    1   34 1   
     4    2    3 1   
     5    2    9 1   
     6    3    4 2   
     7    3   35 1   
     8    4    5 1   
     9    5    6 1   
    10    6    7 2   
    11    6    8 1   
    12    8   36 1   
    13    8   37 1   
    14    8   60 1   
    15    9   10 1   
    16    9   12 1   
    17    9   38 1   
    18   10   11 1   
    19   10   39 1   
    20   10   40 1   
    21   11   41 1   
    22   12   13 1   
    23   12   42 1   
    24   12   43 1   
    25   13   14 1   
    26   13   44 1   
    27   13   45 1   
    28   14   15 1   
    29   14   18 1   
    30   15   16 2   
    31   15   46 1   
    32   16   17 1   
    33   16   47 1   
    34   17   18 ar  
    35   17   19 ar  
    36   18   22 ar  
    37   19   20 ar  
    38   19   48 1   
    39   20   21 ar  
    40   20   49 1   
    41   21   22 ar  
    42   21   23 1   
    43   22   50 1   
    44   23   24 1   
    45   23   51 1   
    46   24   25 2   
    47   24   26 1   
    48   26   27 1   
    49   26   52 1   
    50   26   53 1   
    51   27   29 1   
    52   27   54 1   
    53   27   55 1   
    54   28   29 ar  
    55   28   33 ar  
    56   28   61 1   
    57   29   30 ar  
    58   30   31 ar  
    59   30   56 1   
    60   31   32 ar  
    61   31   57 1   
    62   32   33 ar  
    63   32   58 1   
    64   33   59 1   
@<TRIPOS>SUBSTRUCTURE
     1 FR4         1 TEMP              0 ****  ****    0 ROOT
