@<TRIPOS>MOLECULE
FR5
   67    71     1     0     0
SMALL
bcc


@<TRIPOS>ATOM
      1 C1          0.1310    0.0900    0.7670 cc        1 FR5     -0.077600
      2 N2          1.4030   -0.1670    0.2950 na        1 FR5     -0.192900
      3 C3          2.2570   -0.2750    1.4260 cc        1 FR5      0.463400
      4 N4          1.5800   -0.1040    2.5660 nd        1 FR5     -0.658000
      5 C5          0.2370    0.1210    2.1850 cd        1 FR5      0.132800
      6 C8         -0.8300    0.3200    3.1250 c         1 FR5      0.506600
      7 O9         -2.0100    0.5900    2.9260 o         1 FR5     -0.456100
      8 N10        -0.4350    0.1530    4.5730 nz        1 FR5     -0.732400
      9 C13         1.7920   -0.2700   -1.1000 c3        1 FR5      0.035000
     10 C14         2.4820    1.0290   -1.5980 c3        1 FR5      0.119400
     11 O15         2.3880    0.9700   -3.0090 oh        1 FR5     -0.597800
     12 C18         2.7160   -1.4580   -1.3930 c3        1 FR5     -0.124400
     13 C19         1.9390   -2.7800   -1.4030 c3        1 FR5      0.052300
     14 N22         2.7560   -3.9490   -1.3220 na        1 FR5     -0.090400
     15 C27         3.1200   -4.7900   -2.3890 cc        1 FR5     -0.100100
     16 C28         3.9760   -5.7870   -1.9400 cd        1 FR5     -0.165200
     17 C29         4.1900   -5.5670   -0.5260 ca        1 FR5     -0.100800
     18 C30         3.4240   -4.3950   -0.1720 ca        1 FR5     -0.030200
     19 C31         4.9230   -6.2210    0.4630 ca        1 FR5     -0.050000
     20 C32         4.9100   -5.7340    1.7590 ca        1 FR5     -0.186000
     21 C33         4.1600   -4.5730    2.1060 ca        1 FR5      0.069600
     22 C34         3.4110   -3.8940    1.1350 ca        1 FR5     -0.168000
     23 N1          4.1510   -4.1490    3.4530 ns        1 FR5     -0.469100
     24 C2          4.0070   -2.8400    3.8710 c         1 FR5      0.672100
     25 O1          3.9860   -1.8830    3.0710 o         1 FR5     -0.628100
     26 C4          3.8360   -2.6310    5.3710 c3        1 FR5     -0.155400
     27 C6          3.6240   -1.1640    5.7030 c3        1 FR5     -0.103700
     28 C9         -0.6710   -0.3970    9.8630 ca        1 FR5     -0.123000
     29 C15        -0.4630   -0.3930    8.4940 ca        1 FR5     -0.100000
     30 C10         0.8310   -0.6480    8.0150 ca        1 FR5      0.058400
     31 C16         1.9000   -0.9100    8.9600 ca        1 FR5     -0.066200
     32 C11         1.6670   -0.9090   10.3420 ca        1 FR5     -0.113000
     33 C17         0.3750   -0.6500   10.7710 ca        1 FR5     -0.104000
     34 N11         1.3440   -0.7110    6.7070 nc        1 FR5     -0.691100
     35 C12         2.6620   -0.9990    6.8370 cd        1 FR5      0.444800
     36 N13         3.0490   -1.1430    8.1880 na        1 FR5     -0.148300
     37 C7          4.3730   -1.3450    8.6770 c3        1 FR5      0.023600
     38 H1         -0.7430    0.2280    0.1240 h4        1 FR5      0.216000
     39 H3          3.3340   -0.5090    1.3590 h5        1 FR5      0.121100
     40 H101       -1.2340    0.3120    5.1910 hn        1 FR5      0.476467
     41 H102       -0.0700   -0.7980    4.7250 hn        1 FR5      0.476467
     42 H13         0.8400   -0.3980   -1.7030 h1        1 FR5      0.097700
     43 H141        1.9530    1.9430   -1.2180 h1        1 FR5      0.044700
     44 H142        3.5550    1.0520   -1.2700 h1        1 FR5      0.044700
     45 H15O        2.8750    1.7290   -3.3550 ho        1 FR5      0.428000
     46 H181        3.5590   -1.4980   -0.6550 hc        1 FR5      0.086700
     47 H182        3.1650   -1.2820   -2.4090 hc        1 FR5      0.086700
     48 H191        1.3310   -2.8360   -2.3510 h1        1 FR5      0.059700
     49 H192        1.2260   -2.7980   -0.5270 h1        1 FR5      0.059700
     50 H27         2.7190   -4.6140   -3.3900 h4        1 FR5      0.173000
     51 H28         4.4090   -6.5900   -2.5310 ha        1 FR5      0.168000
     52 H31         5.5100   -7.1170    0.2120 ha        1 FR5      0.148000
     53 H32         5.4940   -6.2570    2.5320 ha        1 FR5      0.136000
     54 H34         2.8400   -2.9870    1.3810 ha        1 FR5      0.140000
     55 HN1         4.3270   -4.8520    4.1350 hn        1 FR5      0.326500
     56 H41         2.9570   -3.2390    5.7150 hc        1 FR5      0.076700
     57 H42         4.7460   -3.0160    5.9030 hc        1 FR5      0.076700
     58 H61         4.6060   -0.6880    5.9710 hc        1 FR5      0.093200
     59 H62         3.2290   -0.6160    4.8020 hc        1 FR5      0.093200
     60 H11         2.4770   -1.1070   11.0580 ha        1 FR5      0.149000
     61 H17         0.1550   -0.6400   11.8510 ha        1 FR5      0.150000
     62 H71         4.3290   -1.6980    9.7420 h1        1 FR5      0.062367
     63 H72         4.8910   -2.1200    8.0500 h1        1 FR5      0.062367
     64 H73         4.9600   -0.3870    8.6310 h1        1 FR5      0.062367
     65 H9         -1.6800   -0.1990   10.2600 ha        1 FR5      0.146000
     66 H103        0.3170    0.8110    4.8130 hn        1 FR5      0.476467
     67 H15        -1.2910   -0.2010    7.7980 ha        1 FR5      0.119000
@<TRIPOS>BOND
     1    1    2 1   
     2    1    5 2   
     3    1   38 1   
     4    2    3 1   
     5    2    9 1   
     6    3    4 2   
     7    3   39 1   
     8    4    5 1   
     9    5    6 1   
    10    6    7 2   
    11    6    8 1   
    12    8   40 1   
    13    8   41 1   
    14    8   66 1   
    15    9   10 1   
    16    9   12 1   
    17    9   42 1   
    18   10   11 1   
    19   10   43 1   
    20   10   44 1   
    21   11   45 1   
    22   12   13 1   
    23   12   46 1   
    24   12   47 1   
    25   13   14 1   
    26   13   48 1   
    27   13   49 1   
    28   14   15 1   
    29   14   18 1   
    30   15   16 2   
    31   15   50 1   
    32   16   17 1   
    33   16   51 1   
    34   17   18 ar  
    35   17   19 ar  
    36   18   22 ar  
    37   19   20 ar  
    38   19   52 1   
    39   20   21 ar  
    40   20   53 1   
    41   21   22 ar  
    42   21   23 1   
    43   22   54 1   
    44   23   24 1   
    45   23   55 1   
    46   24   25 2   
    47   24   26 1   
    48   26   27 1   
    49   26   56 1   
    50   26   57 1   
    51   27   35 1   
    52   27   58 1   
    53   27   59 1   
    54   28   29 ar  
    55   28   33 ar  
    56   28   65 1   
    57   29   30 ar  
    58   29   67 1   
    59   30   31 ar  
    60   30   34 1   
    61   31   32 ar  
    62   31   36 1   
    63   32   33 ar  
    64   32   60 1   
    65   33   61 1   
    66   34   35 2   
    67   35   36 1   
    68   36   37 1   
    69   37   62 1   
    70   37   63 1   
    71   37   64 1   
@<TRIPOS>SUBSTRUCTURE
     1 FR5         1 TEMP              0 ****  ****    0 ROOT
