@<TRIPOS>MOLECULE
FR5
   66    55     1     0     0
SMALL
bcc


@<TRIPOS>ATOM
      1 C1         -2.7160    4.2080   -4.0270 c1        1 FR5     -0.130000
      2 N2         -1.7250    3.4350   -3.6170 n2        1 FR5     -0.146500
      3 C3         -2.0480    2.1360   -3.9160 c1        1 FR5     -0.094000
      4 N4         -3.2560    2.1330   -4.5160 n2        1 FR5     -0.146500
      5 C5         -3.6820    3.3990   -4.5920 c1        1 FR5     -0.130000
      6 C8         -5.0000    3.8670   -5.1980 c1        1 FR5      0.387000
      7 O9         -5.7670    3.0630   -5.6630 o         1 FR5     -0.395000
      8 N10        -5.3780    5.2170   -5.0940 n3        1 FR5     -0.420000
      9 C13        -0.5430    3.8710   -3.0040 c2        1 FR5      0.028000
     10 C14        -0.5030    3.3670   -1.5440 c3        1 FR5     -0.040000
     11 O15        -0.1490    4.4290   -0.6920 oh        1 FR5     -0.335000
     12 C18         0.6430    3.3240   -3.7540 c3        1 FR5     -0.198000
     13 C19         1.9360    3.4660   -2.8680 c3        1 FR5     -0.018000
     14 N22         2.6590    2.2370   -2.8820 n3        1 FR5     -0.173000
     15 C27         3.1500    2.1080   -4.1550 c1        1 FR5     -0.089000
     16 C28         3.6690    0.8310   -4.2860 c1        1 FR5     -0.183000
     17 C29         3.4920    0.1650   -3.0670 c1        1 FR5     -0.104000
     18 C30         2.8750    1.0220   -2.2060 c1        1 FR5      0.028000
     19 C31         3.8520   -1.1520   -2.6290 c1        1 FR5     -0.061000
     20 C32         3.5670   -1.5560   -1.3150 c1        1 FR5     -0.175000
     21 C33         2.9400   -0.6840   -0.4420 c1        1 FR5      0.096000
     22 C34         2.5880    0.6080   -0.8710 c1        1 FR5     -0.208000
     23 N1          2.4930   -1.0120    0.8950 n         1 FR5     -0.327000
     24 C2          2.5650   -2.3690    1.3620 c2        1 FR5      0.307000
     25 O1          2.9960   -3.2290    0.6410 o         1 FR5     -0.357000
     26 C4          2.0730   -2.7250    2.7630 c3        1 FR5     -0.176000
     27 C6          0.7000   -3.4160    2.6600 c3        1 FR5     -0.089000
     28 C9         -1.5080   -6.0970    7.5560 c1        1 FR5     -0.133000
     29 C15        -0.5310   -6.0880    6.6000 c1        1 FR5     -0.102000
     30 C10        -0.4350   -5.0050    5.6920 c1        1 FR5     -0.047000
     31 C16        -1.3240   -3.9620    5.7710 c1        1 FR5     -0.047000
     32 C11        -2.3220   -3.9710    6.7470 c1        1 FR5     -0.102000
     33 C17        -2.4130   -5.0400    7.6400 c1        1 FR5     -0.133000
     34 N11         0.4180   -4.7520    4.6700 n1        1 FR5     -0.173500
     35 C12         0.0660   -3.5570    4.1110 c2        1 FR5      0.016000
     36 N13        -1.0110   -3.0720    4.7930 n1        1 FR5     -0.173500
     37 C7         -1.9580   -2.0540    4.4960 c2        1 FR5     -0.067000
     38 H1         -2.7590    5.2080   -3.9410 DU        1 FR5      0.182000
     39 H3         -1.5010    1.3540   -3.7280 DU        1 FR5      0.182000
     40 H101       -4.7530    5.8520   -4.8780 hn        1 FR5      0.232500
     41 H102       -6.2730    5.4550   -5.1660 hn        1 FR5      0.232500
     42 H13        -0.5120    4.8720   -3.0120 ha        1 FR5      0.131000
     43 H141       -1.3970    3.0210   -1.2870 h1        1 FR5      0.083000
     44 H142        0.1570    2.6520   -1.4650 h1        1 FR5      0.083000
     45 H15O       -0.2230    4.1650    0.1580 ho        1 FR5      0.214000
     46 H181        0.7660    3.8410   -4.6170 hc        1 FR5      0.104000
     47 H182        0.4970    2.4150   -3.9510 hc        1 FR5      0.104000
     48 H191        1.6790    3.6840   -1.9430 h1        1 FR5      0.113000
     49 H192        2.5070    4.1890   -3.2290 h1        1 FR5      0.113000
     50 H27         3.2230    2.8310   -4.8210 DU        1 FR5      0.182000
     51 H28         4.0840    0.4600   -5.0850 DU        1 FR5      0.182000
     52 H31         4.3020   -1.7780   -3.2540 ha        1 FR5      0.139000
     53 H32         3.8040   -2.4260   -1.0240 ha        1 FR5      0.170000
     54 H34         2.1500    1.2170   -0.2600 ha        1 FR5      0.130000
     55 HN1         2.2530   -0.3580    1.4570 hn        1 FR5      0.229000
     56 H41         2.7100   -3.3280    3.1850 hc        1 FR5      0.123000
     57 H42         1.9880   -1.8920    3.3120 hc        1 FR5      0.123000
     58 H61         0.1090   -2.8810    2.0960 hc        1 FR5      0.117000
     59 H62         0.8160   -4.3470    2.2450 hc        1 FR5      0.117000
     60 H9         -1.5730   -6.8450    8.1820 ha        1 FR5      0.132500
     61 H15         0.1060   -6.8330    6.5430 ha        1 FR5      0.139500
     62 H11        -2.9590   -3.2270    6.8050 ha        1 FR5      0.139500
     63 H17        -3.1220   -5.0480    8.3340 ha        1 FR5      0.132500
     64 H71        -1.7750   -1.6820    3.5750 ha        1 FR5      0.092667
     65 H72        -1.8820   -1.2980    5.1950 ha        1 FR5      0.092667
     66 H73        -2.8350   -2.4200    4.5210 ha        1 FR5      0.092667
@<TRIPOS>BOND
     1    1    2 1   
     2    1    5 1   
     3    2    3 1   
     4    3    4 1   
     5    4    5 1   
     6    6    7 1   
     7    6    8 1   
     8    8   40 1   
     9    8   41 1   
    10    9   10 1   
    11    9   12 1   
    12    9   42 1   
    13   10   11 1   
    14   10   43 1   
    15   10   44 1   
    16   11   45 1   
    17   12   13 1   
    18   12   46 1   
    19   12   47 1   
    20   13   14 1   
    21   13   48 1   
    22   13   49 1   
    23   14   15 1   
    24   14   18 1   
    25   15   16 1   
    26   16   17 1   
    27   17   19 1   
    28   18   22 1   
    29   19   52 1   
    30   20   21 1   
    31   20   53 1   
    32   21   23 1   
    33   22   54 1   
    34   23   24 1   
    35   23   55 1   
    36   24   25 1   
    37   24   26 1   
    38   26   27 1   
    39   26   56 1   
    40   26   57 1   
    41   27   35 1   
    42   27   58 1   
    43   27   59 1   
    44   28   33 1   
    45   28   60 1   
    46   29   30 1   
    47   29   61 1   
    48   31   32 1   
    49   32   62 1   
    50   33   63 1   
    51   34   35 1   
    52   35   36 1   
    53   37   64 1   
    54   37   65 1   
    55   37   66 1   
@<TRIPOS>SUBSTRUCTURE
     1 FR5         1 TEMP              0 ****  ****    0 ROOT
