@<TRIPOS>MOLECULE
FR5
   66    70     1     0     0
SMALL
bcc


@<TRIPOS>ATOM
      1 C1          2.8250   -3.6800   -0.5330 cc        1 FR5     -0.171600
      2 N2          2.7780   -2.3360   -0.9000 na        1 FR5     -0.217900
      3 C3          1.5030   -1.8570   -0.5290 cc        1 FR5      0.400400
      4 N4          0.7700   -2.8200    0.0570 nd        1 FR5     -0.662000
      5 C5          1.5790   -3.9670    0.0640 cd        1 FR5      0.230800
      6 C8          1.2100   -5.2870    0.6100 c         1 FR5      0.604600
      7 O9          1.9890   -6.2620    0.5180 o         1 FR5     -0.635100
      8 N10        -0.0090   -5.4310    1.2210 n         1 FR5     -0.662000
      9 C13         3.8210   -1.6360   -1.6100 c3        1 FR5      0.053000
     10 C14         3.5550   -1.6030   -3.1390 c3        1 FR5      0.112400
     11 O15         4.8000   -1.2780   -3.7340 oh        1 FR5     -0.603800
     12 C18         4.0510   -0.1970   -1.1360 c3        1 FR5     -0.122400
     13 C19         4.6140   -0.1570    0.2870 c3        1 FR5      0.044300
     14 N22         4.7800    1.1630    0.8190 na        1 FR5     -0.078400
     15 C27         5.9960    1.8510    0.9710 cc        1 FR5     -0.106100
     16 C28         5.7590    3.1740    1.3260 cd        1 FR5     -0.179200
     17 C29         4.3260    3.3580    1.3630 ca        1 FR5     -0.111800
     18 C30         3.7400    2.0830    1.0210 ca        1 FR5     -0.027200
     19 C31         3.4830    4.4350    1.6320 ca        1 FR5     -0.059000
     20 C32         2.1120    4.2710    1.5420 ca        1 FR5     -0.196000
     21 C33         1.5340    3.0150    1.1890 ca        1 FR5      0.072600
     22 C34         2.3520    1.9040    0.9480 ca        1 FR5     -0.164000
     23 N1          0.1300    2.9230    1.1100 n         1 FR5     -0.468100
     24 C2         -0.5850    1.9940    0.3720 c         1 FR5      0.670100
     25 O1         -0.0330    1.1050   -0.3080 o         1 FR5     -0.627100
     26 C4         -2.0990    2.1220    0.4320 c3        1 FR5     -0.145400
     27 C6         -2.7450    0.8940   -0.1750 c3        1 FR5     -0.086700
     28 C9         -8.7160    1.6600    0.0390 ca        1 FR5     -0.153000
     29 C15        -7.5250    2.2750    0.3940 ca        1 FR5     -0.071000
     30 C10        -6.3230    1.6210    0.0910 ca        1 FR5      0.068400
     31 C16        -6.3610    0.3310   -0.5780 ca        1 FR5     -0.069200
     32 C11        -7.5770   -0.2710   -0.9250 ca        1 FR5     -0.133000
     33 C17        -8.7420    0.4120   -0.6080 ca        1 FR5     -0.114000
     34 N11        -4.9840    1.9890    0.3220 nc        1 FR5     -0.579100
     35 C12        -4.2360    0.9830   -0.1760 cd        1 FR5      0.417800
     36 N13        -5.0260   -0.0630   -0.7280 na        1 FR5     -0.168300
     37 C7         -4.5420   -1.2260   -1.3880 c3        1 FR5      0.030600
     38 H1          3.6870   -4.3260   -0.6960 h4        1 FR5      0.199000
     39 H3          1.1780   -0.8180   -0.6930 h5        1 FR5      0.095100
     40 H101       -0.6290   -4.6700    1.3220 hn        1 FR5      0.317500
     41 H102       -0.2550   -6.3090    1.6020 hn        1 FR5      0.317500
     42 H13         4.7810   -2.2190   -1.4510 h1        1 FR5      0.084700
     43 H141        3.2050   -2.6040   -3.5080 h1        1 FR5      0.041700
     44 H142        2.7880   -0.8230   -3.3860 h1        1 FR5      0.041700
     45 H15O        4.6480   -1.2420   -4.6860 ho        1 FR5      0.413000
     46 H181        3.0960    0.3910   -1.1920 hc        1 FR5      0.080200
     47 H182        4.7810    0.2700   -1.8520 hc        1 FR5      0.080200
     48 H191        5.6160   -0.6720    0.3040 h1        1 FR5      0.064200
     49 H192        3.9150   -0.7150    0.9760 h1        1 FR5      0.064200
     50 H27         6.9440    1.3260    0.8350 h4        1 FR5      0.166000
     51 H28         6.5040    3.9340    1.5400 ha        1 FR5      0.157000
     52 H31         3.9080    5.4110    1.9090 ha        1 FR5      0.137000
     53 H32         1.4580    5.1320    1.7470 ha        1 FR5      0.129000
     54 H34         1.9300    0.9180    0.7000 ha        1 FR5      0.161000
     55 HN1        -0.3800    3.6530    1.5550 hn        1 FR5      0.321500
     56 H41        -2.4050    3.0410   -0.1350 hc        1 FR5      0.085700
     57 H42        -2.4380    2.2460    1.4940 hc        1 FR5      0.085700
     58 H61        -2.4300   -0.0200    0.4010 hc        1 FR5      0.078200
     59 H62        -2.3820    0.7600   -1.2310 hc        1 FR5      0.078200
     60 H15        -7.5140    3.2510    0.9010 ha        1 FR5      0.146000
     61 H11        -7.6060   -1.2460   -1.4300 ha        1 FR5      0.134000
     62 H17        -9.7140   -0.0330   -0.8680 ha        1 FR5      0.132000
     63 H71        -3.6750   -1.6550   -0.8150 h1        1 FR5      0.053700
     64 H72        -5.3610   -1.9920   -1.4510 h1        1 FR5      0.053700
     65 H73        -4.1960   -0.9750   -2.4290 h1        1 FR5      0.053700
     66 H9         -9.6710    2.1580    0.2680 ha        1 FR5      0.133000
@<TRIPOS>BOND
     1    1    2 1   
     2    1    5 2   
     3    1   38 1   
     4    2    3 1   
     5    2    9 1   
     6    3    4 2   
     7    3   39 1   
     8    4    5 1   
     9    5    6 1   
    10    6    7 2   
    11    6    8 1   
    12    8   40 1   
    13    8   41 1   
    14    9   10 1   
    15    9   12 1   
    16    9   42 1   
    17   10   11 1   
    18   10   43 1   
    19   10   44 1   
    20   11   45 1   
    21   12   13 1   
    22   12   46 1   
    23   12   47 1   
    24   13   14 1   
    25   13   48 1   
    26   13   49 1   
    27   14   15 1   
    28   14   18 1   
    29   15   16 2   
    30   15   50 1   
    31   16   17 1   
    32   16   51 1   
    33   17   18 ar  
    34   17   19 ar  
    35   18   22 ar  
    36   19   20 ar  
    37   19   52 1   
    38   20   21 ar  
    39   20   53 1   
    40   21   22 ar  
    41   21   23 1   
    42   22   54 1   
    43   23   24 1   
    44   23   55 1   
    45   24   25 2   
    46   24   26 1   
    47   26   27 1   
    48   26   56 1   
    49   26   57 1   
    50   27   35 1   
    51   27   58 1   
    52   27   59 1   
    53   28   29 ar  
    54   28   33 ar  
    55   28   66 1   
    56   29   30 ar  
    57   29   60 1   
    58   30   31 ar  
    59   30   34 1   
    60   31   32 ar  
    61   31   36 1   
    62   32   33 ar  
    63   32   61 1   
    64   33   62 1   
    65   34   35 2   
    66   35   36 1   
    67   36   37 1   
    68   37   63 1   
    69   37   64 1   
    70   37   65 1   
@<TRIPOS>SUBSTRUCTURE
     1 FR5         1 TEMP              0 ****  ****    0 ROOT
