@<TRIPOS>MOLECULE
FR5
   68    72     1     0     0
SMALL
bcc


@<TRIPOS>ATOM
      1 C1         -1.0850    0.4280   -2.1120 cc        1 FR5     -0.068600
      2 N2          0.2820    0.6200   -2.1650 na        1 FR5     -0.190900
      3 C3          0.4990    1.9950   -2.4410 cc        1 FR5      0.449400
      4 N4         -0.6540    2.6650   -2.5490 nd        1 FR5     -0.654000
      5 C5         -1.6690    1.7030   -2.3480 cd        1 FR5      0.140800
      6 C8         -3.0780    1.9840   -2.3890 c         1 FR5      0.507600
      7 O9         -4.0290    1.2460   -2.1730 o         1 FR5     -0.425100
      8 N10        -3.4380    3.4090   -2.7660 n4        1 FR5     -0.745400
      9 C13         1.2960   -0.4160   -2.0800 c3        1 FR5      0.026000
     10 C14         1.9620   -0.6660   -3.4620 c3        1 FR5      0.120400
     11 O15         2.6420   -1.8990   -3.3150 oh        1 FR5     -0.612800
     12 C18         2.3910   -0.1250   -1.0420 c3        1 FR5     -0.110400
     13 C19         2.0180   -0.5900    0.3670 c3        1 FR5      0.046300
     14 N22         2.3720   -1.9450    0.6830 na        1 FR5     -0.084400
     15 C27         2.5260   -3.0110   -0.2190 cc        1 FR5     -0.077100
     16 C28         2.8790   -4.1740    0.4590 cd        1 FR5     -0.171200
     17 C29         2.9700   -3.8400    1.8580 ca        1 FR5     -0.051800
     18 C30         2.6530   -2.4260    1.9700 ca        1 FR5     -0.044200
     19 C31         3.2840   -4.5710    3.0020 ca        1 FR5     -0.055000
     20 C32         3.2990   -3.9370    4.2340 ca        1 FR5     -0.139000
     21 C33         2.9960   -2.5580    4.3320 ca        1 FR5     -0.033400
     22 C34         2.6660   -1.7830    3.2120 ca        1 FR5     -0.118000
     23 N1          3.0150   -1.9300    5.6530 n4        1 FR5     -0.571200
     24 C2          4.2830   -1.1490    5.8870 c         1 FR5      0.562100
     25 O1          4.1910    0.0670    5.7870 o         1 FR5     -0.440100
     26 C4          5.5140   -1.9400    6.2310 c3        1 FR5     -0.138400
     27 C6          5.7390   -2.0170    7.7300 c3        1 FR5     -0.099700
     28 C9          1.5910   -5.6940   10.0930 ca        1 FR5     -0.119000
     29 C15         1.8460   -4.9170    8.9770 ca        1 FR5     -0.091000
     30 C10         3.0600   -4.2110    8.9250 ca        1 FR5      0.078400
     31 C16         3.9980   -4.3160   10.0270 ca        1 FR5     -0.064200
     32 C11         3.7160   -5.1110   11.1490 ca        1 FR5     -0.112000
     33 C17         2.5090   -5.7900   11.1600 ca        1 FR5     -0.094000
     34 N11         3.5990   -3.3570    7.9530 nc        1 FR5     -0.706100
     35 C12         4.8060   -2.9550    8.4250 cd        1 FR5      0.411800
     36 N13         5.0940   -3.5080    9.6860 na        1 FR5     -0.125300
     37 C7          6.2820   -3.3010   10.4490 c3        1 FR5      0.015600
     38 H1         -1.5630   -0.5390   -1.9220 h4        1 FR5      0.223000
     39 H3          1.5060    2.4260   -2.5470 h5        1 FR5      0.099100
     40 H101       -3.0300    4.0600   -2.0860 hn        1 FR5      0.474467
     41 H102       -3.0540    3.6270   -3.6920 hn        1 FR5      0.474467
     42 H13         0.7650   -1.3750   -1.7880 h1        1 FR5      0.101700
     43 H141        2.6870    0.1550   -3.7040 h1        1 FR5      0.052200
     44 H142        1.1910   -0.7430   -4.2740 h1        1 FR5      0.052200
     45 H15O        3.0310   -2.1150   -4.1740 ho        1 FR5      0.443000
     46 H181        3.3320   -0.6380   -1.3890 hc        1 FR5      0.092200
     47 H182        2.6140    0.9730   -0.9960 hc        1 FR5      0.092200
     48 H191        2.5420    0.0830    1.1090 h1        1 FR5      0.059200
     49 H192        0.9050   -0.4650    0.5210 h1        1 FR5      0.059200
     50 H27         2.3880   -2.8590   -1.2960 h4        1 FR5      0.199000
     51 H28         3.0590   -5.1540    0.0210 ha        1 FR5      0.186000
     52 H31         3.5180   -5.6460    2.9250 ha        1 FR5      0.172000
     53 H32         3.5420   -4.5210    5.1390 ha        1 FR5      0.164000
     54 H34         2.4290   -0.7110    3.2970 ha        1 FR5      0.150000
     55 HN1         2.2080   -1.3040    5.7400 hn        1 FR5      0.490300
     56 H41         5.4660   -2.9720    5.7860 hc        1 FR5      0.111700
     57 H42         6.3860   -1.4000    5.7620 hc        1 FR5      0.111700
     58 H61         6.8000   -2.3580    7.9000 hc        1 FR5      0.097700
     59 H62         5.6360   -0.9960    8.1930 hc        1 FR5      0.097700
     60 H11         4.4250   -5.1920   11.9850 ha        1 FR5      0.155000
     61 H17         2.2530   -6.4240   12.0250 ha        1 FR5      0.157000
     62 H71         6.4990   -2.2020   10.5290 h1        1 FR5      0.070367
     63 H72         6.1430   -3.7260   11.4790 h1        1 FR5      0.070367
     64 H73         7.1540   -3.8130    9.9560 h1        1 FR5      0.070367
     65 H9          0.6460   -6.2580   10.1580 ha        1 FR5      0.153000
     66 H103       -4.4590    3.5210   -2.7810 hn        1 FR5      0.474467
     67 H12         2.9660   -2.6760    6.4150 hn        1 FR5      0.490300
     68 H15         1.1230   -4.8520    8.1520 ha        1 FR5      0.141000
@<TRIPOS>BOND
     1    1    2 1   
     2    1    5 2   
     3    1   38 1   
     4    2    3 1   
     5    2    9 1   
     6    3    4 2   
     7    3   39 1   
     8    4    5 1   
     9    5    6 1   
    10    6    7 2   
    11    6    8 1   
    12    8   40 1   
    13    8   41 1   
    14    8   66 1   
    15    9   10 1   
    16    9   12 1   
    17    9   42 1   
    18   10   11 1   
    19   10   43 1   
    20   10   44 1   
    21   11   45 1   
    22   12   13 1   
    23   12   46 1   
    24   12   47 1   
    25   13   14 1   
    26   13   48 1   
    27   13   49 1   
    28   14   15 1   
    29   14   18 1   
    30   15   16 2   
    31   15   50 1   
    32   16   17 1   
    33   16   51 1   
    34   17   18 ar  
    35   17   19 ar  
    36   18   22 ar  
    37   19   20 ar  
    38   19   52 1   
    39   20   21 ar  
    40   20   53 1   
    41   21   22 ar  
    42   21   23 1   
    43   22   54 1   
    44   23   24 1   
    45   23   55 1   
    46   23   67 1   
    47   24   25 2   
    48   24   26 1   
    49   26   27 1   
    50   26   56 1   
    51   26   57 1   
    52   27   35 1   
    53   27   58 1   
    54   27   59 1   
    55   28   29 ar  
    56   28   33 ar  
    57   28   65 1   
    58   29   30 ar  
    59   29   68 1   
    60   30   31 ar  
    61   30   34 1   
    62   31   32 ar  
    63   31   36 1   
    64   32   33 ar  
    65   32   60 1   
    66   33   61 1   
    67   34   35 2   
    68   35   36 1   
    69   36   37 1   
    70   37   62 1   
    71   37   63 1   
    72   37   64 1   
@<TRIPOS>SUBSTRUCTURE
     1 FR5         1 TEMP              0 ****  ****    0 ROOT
