@<TRIPOS>MOLECULE
FR5
   67    71     1     0     0
SMALL
bcc


@<TRIPOS>ATOM
      1 C1          0.0950    0.0500    0.7660 cc        1 FR5     -0.077600
      2 N2          1.3700   -0.1870    0.2920 na        1 FR5     -0.192900
      3 C3          2.2270   -0.2780    1.4200 cc        1 FR5      0.463400
      4 N4          1.5510   -0.1140    2.5610 nd        1 FR5     -0.658000
      5 C5          0.2040    0.0870    2.1830 cd        1 FR5      0.132800
      6 C8         -0.8650    0.2710    3.1250 c         1 FR5      0.506600
      7 O9         -2.0490    0.5210    2.9280 o         1 FR5     -0.456100
      8 N10        -0.4630    0.1160    4.5730 n4        1 FR5     -0.732400
      9 C13         1.7560   -0.2890   -1.1040 c3        1 FR5      0.035000
     10 C14         2.4260    1.0180   -1.6080 c3        1 FR5      0.119400
     11 O15         2.3300    0.9520   -3.0190 oh        1 FR5     -0.597800
     12 C18         2.6980   -1.4640   -1.3950 c3        1 FR5     -0.124400
     13 C19         1.9410   -2.7980   -1.3980 c3        1 FR5      0.052300
     14 N22         2.7750   -3.9540   -1.3150 na        1 FR5     -0.090400
     15 C27         3.1490   -4.7950   -2.3800 cc        1 FR5     -0.100100
     16 C28         4.0210   -5.7770   -1.9300 cd        1 FR5     -0.165200
     17 C29         4.2360   -5.5480   -0.5180 ca        1 FR5     -0.100800
     18 C30         3.4530   -4.3860   -0.1660 ca        1 FR5     -0.030200
     19 C31         4.9820   -6.1860    0.4720 ca        1 FR5     -0.050000
     20 C32         4.9650   -5.6940    1.7660 ca        1 FR5     -0.186000
     21 C33         4.1990   -4.5430    2.1110 ca        1 FR5      0.069600
     22 C34         3.4370   -3.8800    1.1390 ca        1 FR5     -0.168000
     23 N1          4.1880   -4.1140    3.4560 n         1 FR5     -0.469100
     24 C2          4.0250   -2.8060    3.8700 c         1 FR5      0.672100
     25 O1          3.9860   -1.8520    3.0660 o         1 FR5     -0.628100
     26 C4          3.8570   -2.5940    5.3690 c3        1 FR5     -0.155400
     27 C6          3.6200   -1.1300    5.6970 c3        1 FR5     -0.103700
     28 C9         -0.6770   -0.4210    9.8660 ca        1 FR5     -0.123000
     29 C15        -0.4720   -0.4180    8.4960 ca        1 FR5     -0.100000
     30 C10         0.8250   -0.6530    8.0140 ca        1 FR5      0.058400
     31 C16         1.9010   -0.8930    8.9570 ca        1 FR5     -0.066200
     32 C11         1.6710   -0.8910   10.3400 ca        1 FR5     -0.113000
     33 C17         0.3760   -0.6520   10.7720 ca        1 FR5     -0.104000
     34 N11         1.3350   -0.7110    6.7050 nc        1 FR5     -0.691100
     35 C12         2.6580   -0.9770    6.8320 cd        1 FR5      0.444800
     36 N13         3.0510   -1.1090    8.1830 na        1 FR5     -0.148300
     37 C7          4.3800   -1.2860    8.6690 c3        1 FR5      0.023600
     38 H1         -0.7840    0.1710    0.1240 h4        1 FR5      0.216000
     39 H3          3.3080   -0.4940    1.3520 h5        1 FR5      0.121100
     40 H101       -1.2640    0.2630    5.1930 hn        1 FR5      0.476467
     41 H102        0.2780    0.7870    4.8090 hn        1 FR5      0.476467
     42 H13         0.8050   -0.4340   -1.7040 h1        1 FR5      0.097700
     43 H141        3.4990    1.0580   -1.2820 h1        1 FR5      0.044700
     44 H142        1.8840    1.9250   -1.2310 h1        1 FR5      0.044700
     45 H15O        2.8050    1.7170   -3.3680 ho        1 FR5      0.428000
     46 H181        3.1420   -1.2850   -2.4130 hc        1 FR5      0.086700
     47 H182        3.5430   -1.4890   -0.6590 hc        1 FR5      0.086700
     48 H191        1.3310   -2.8670   -2.3450 h1        1 FR5      0.059700
     49 H192        1.2310   -2.8230   -0.5210 h1        1 FR5      0.059700
     50 H27         2.7420   -4.6290   -3.3800 h4        1 FR5      0.173000
     51 H28         4.4630   -6.5760   -2.5190 ha        1 FR5      0.168000
     52 H31         5.5810   -7.0750    0.2230 ha        1 FR5      0.148000
     53 H32         5.5590   -6.2060    2.5390 ha        1 FR5      0.136000
     54 H34         2.8540   -2.9800    1.3840 ha        1 FR5      0.140000
     55 HN1         4.3770   -4.8110    4.1400 hn        1 FR5      0.326500
     56 H41         4.7750   -2.9610    5.8990 hc        1 FR5      0.076700
     57 H42         2.9890   -3.2150    5.7200 hc        1 FR5      0.076700
     58 H61         3.2130   -0.5910    4.7940 hc        1 FR5      0.093200
     59 H62         4.5940   -0.6350    5.9600 hc        1 FR5      0.093200
     60 H11         2.4870   -1.0720   11.0540 ha        1 FR5      0.149000
     61 H17         0.1600   -0.6420   11.8520 ha        1 FR5      0.150000
     62 H71         4.9100   -2.0550    8.0440 h1        1 FR5      0.062367
     63 H72         4.9500   -0.3190    8.6180 h1        1 FR5      0.062367
     64 H73         4.3450   -1.6360    9.7350 h1        1 FR5      0.062367
     65 H9         -1.6880   -0.2390   10.2640 ha        1 FR5      0.146000
     66 H103       -0.0830   -0.8280    4.7270 hn        1 FR5      0.476467
     67 H15        -1.3050   -0.2430    7.8020 ha        1 FR5      0.119000
@<TRIPOS>BOND
     1    1    2 1   
     2    1    5 2   
     3    1   38 1   
     4    2    3 1   
     5    2    9 1   
     6    3    4 2   
     7    3   39 1   
     8    4    5 1   
     9    5    6 1   
    10    6    7 2   
    11    6    8 1   
    12    8   40 1   
    13    8   41 1   
    14    8   66 1   
    15    9   10 1   
    16    9   12 1   
    17    9   42 1   
    18   10   11 1   
    19   10   43 1   
    20   10   44 1   
    21   11   45 1   
    22   12   13 1   
    23   12   46 1   
    24   12   47 1   
    25   13   14 1   
    26   13   48 1   
    27   13   49 1   
    28   14   15 1   
    29   14   18 1   
    30   15   16 2   
    31   15   50 1   
    32   16   17 1   
    33   16   51 1   
    34   17   18 ar  
    35   17   19 ar  
    36   18   22 ar  
    37   19   20 ar  
    38   19   52 1   
    39   20   21 ar  
    40   20   53 1   
    41   21   22 ar  
    42   21   23 1   
    43   22   54 1   
    44   23   24 1   
    45   23   55 1   
    46   24   25 2   
    47   24   26 1   
    48   26   27 1   
    49   26   56 1   
    50   26   57 1   
    51   27   35 1   
    52   27   58 1   
    53   27   59 1   
    54   28   29 ar  
    55   28   33 ar  
    56   28   65 1   
    57   29   30 ar  
    58   29   67 1   
    59   30   31 ar  
    60   30   34 1   
    61   31   32 ar  
    62   31   36 1   
    63   32   33 ar  
    64   32   60 1   
    65   33   61 1   
    66   34   35 2   
    67   35   36 1   
    68   36   37 1   
    69   37   62 1   
    70   37   63 1   
    71   37   64 1   
@<TRIPOS>SUBSTRUCTURE
     1 FR5         1 TEMP              0 ****  ****    0 ROOT
