@<TRIPOS>MOLECULE
FR6
   45    39     1     0     0
SMALL
bcc


@<TRIPOS>ATOM
      1 C1         -1.1310    2.3120    2.6530 c1        1 FR6     -0.132500
      2 N2         -0.2630    1.9840    1.6920 n2        1 FR6     -0.145500
      3 C3          0.9560    2.4560    2.0490 c1        1 FR6     -0.094000
      4 N4          0.8300    3.0820    3.2440 n2        1 FR6     -0.145500
      5 C5         -0.4490    2.9980    3.6220 c1        1 FR6     -0.132500
      6 C8         -1.0280    3.5100    4.9220 c1        1 FR6      0.388000
      7 O9         -2.2000    3.3230    5.1810 o         1 FR6     -0.397000
      8 N10        -0.2010    4.2070    5.8400 n3        1 FR6     -0.420000
      9 C13        -0.5730    1.3070    0.4830 c2        1 FR6      0.031000
     10 C14        -0.1900    2.1760   -0.6930 c3        1 FR6      0.016000
     11 O15         0.5620    1.4190   -1.6110 oh        1 FR6     -0.334000
     12 C18         0.1970    0.0050    0.4210 c3        1 FR6     -0.159000
     13 C19        -0.7360   -1.1140    0.0130 c3        1 FR6     -0.124000
     14 C22         0.0600   -2.2210   -0.6440 c2        1 FR6     -0.061000
     15 C25         0.7220   -2.8750    0.3870 c2        1 FR6     -0.127000
     16 C26         1.5710   -3.9410    0.1040 c1        1 FR6     -0.126000
     17 C27         1.7560   -4.3520   -1.2100 c1        1 FR6     -0.119000
     18 C28         1.0860   -3.6900   -2.2560 c1        1 FR6     -0.037000
     19 C29         0.2470   -2.6370   -1.9760 c1        1 FR6     -0.028000
     20 C2          1.2470   -4.1270   -3.5850 c1        1 FR6     -0.119000
     21 C4         -0.4490   -1.9970   -3.0190 c1        1 FR6     -0.125000
     22 C6          0.5590   -3.4950   -4.6120 c1        1 FR6     -0.129000
     23 C7         -0.2890   -2.4290   -4.3290 c1        1 FR6     -0.129000
     24 C9         -1.4420    2.6890   -1.3690 c3        1 FR6     -0.258000
     25 H1         -2.0840    2.1010    2.6620 DU        1 FR6      0.201500
     26 H3          1.7810    2.3620    1.5350 DU        1 FR6      0.201500
     27 H101       -0.5340    4.4610    6.6540 hn        1 FR6      0.232500
     28 H102        0.6630    4.4070    5.6180 hn        1 FR6      0.232500
     29 H13        -1.5320    1.1200    0.4520 ha        1 FR6      0.120000
     30 H14         0.3440    2.9330   -0.3800 h1        1 FR6      0.087000
     31 HO          1.0750    1.9620   -2.0930 ho        1 FR6      0.211000
     32 H181        0.9180    0.0840   -0.2340 hc        1 FR6      0.101000
     33 H182        0.5760   -0.1910    1.3010 hc        1 FR6      0.101000
     34 H191       -1.4000   -0.7710   -0.6190 hc        1 FR6      0.099500
     35 H192       -1.1910   -1.4660    0.8050 hc        1 FR6      0.099500
     36 H25         0.5930   -2.5870    1.3100 ha        1 FR6      0.132000
     37 H26         2.0360   -4.4000    0.8290 ha        1 FR6      0.133000
     38 H27         2.3510   -5.1000   -1.4080 ha        1 FR6      0.132500
     39 H2          1.8420   -4.8750   -3.7830 ha        1 FR6      0.132500
     40 H4         -1.0440   -1.2490   -2.8210 ha        1 FR6      0.152000
     41 H6          0.6710   -3.7980   -5.5330 ha        1 FR6      0.131000
     42 H7         -0.7720   -1.9840   -5.0510 ha        1 FR6      0.131000
     43 H91        -1.2000    3.1400   -2.2050 hc        1 FR6      0.092333
     44 H92        -1.8970    3.3220   -0.7760 hc        1 FR6      0.092333
     45 H93        -2.0390    1.9370   -1.5650 hc        1 FR6      0.092333
@<TRIPOS>BOND
     1    1    2 1   
     2    1    5 1   
     3    2    3 1   
     4    3    4 1   
     5    4    5 1   
     6    6    7 1   
     7    6    8 1   
     8    8   27 1   
     9    8   28 1   
    10    9   10 1   
    11    9   12 1   
    12    9   29 1   
    13   10   11 1   
    14   10   24 1   
    15   10   30 1   
    16   11   31 1   
    17   12   13 1   
    18   12   32 1   
    19   12   33 1   
    20   13   14 1   
    21   13   34 1   
    22   13   35 1   
    23   14   15 1   
    24   14   19 1   
    25   15   16 1   
    26   15   36 1   
    27   16   37 1   
    28   17   18 1   
    29   17   38 1   
    30   18   20 1   
    31   19   21 1   
    32   20   39 1   
    33   21   40 1   
    34   22   23 1   
    35   22   41 1   
    36   23   42 1   
    37   24   43 1   
    38   24   44 1   
    39   24   45 1   
@<TRIPOS>SUBSTRUCTURE
     1 FR6         1 TEMP              0 ****  ****    0 ROOT
