@<TRIPOS>MOLECULE
FR6
   46    48     1     0     0
SMALL
bcc


@<TRIPOS>ATOM
      1 C1         -0.0790    0.2140   -0.0500 cc        1 FR6     -0.061600
      2 N2          1.2740   -0.0310   -0.0110 na        1 FR6     -0.168900
      3 C3          1.6120   -0.3040    1.3400 cc        1 FR6      0.452400
      4 N4          0.5410   -0.2390    2.1410 nd        1 FR6     -0.668000
      5 C5         -0.5420    0.0850    1.2930 cd        1 FR6      0.123800
      6 C8         -1.8960    0.2470    1.7290 c         1 FR6      0.511600
      7 O9         -2.9040    0.5430    1.1010 o         1 FR6     -0.441100
      8 N10        -2.1170    0.0110    3.2160 nz        1 FR6     -0.747400
      9 C13         2.1790   -0.0410   -1.1500 c3        1 FR6      0.030000
     10 C14         3.0930    1.2220   -1.1900 c3        1 FR6      0.134100
     11 O15         3.7280    1.1330   -2.4590 oh        1 FR6     -0.594800
     12 C18         3.0680   -1.2900   -1.1970 c3        1 FR6     -0.095400
     13 C19         2.2780   -2.5590   -1.4520 c3        1 FR6     -0.034100
     14 C22         3.1740   -3.7500   -1.4980 ca        1 FR6     -0.092300
     15 C25         3.5280   -4.2820   -2.7210 ca        1 FR6     -0.107000
     16 C26         4.3660   -5.4170   -2.8060 ca        1 FR6     -0.126000
     17 C27         4.8410   -6.0110   -1.6640 ca        1 FR6     -0.102000
     18 C28         4.4950   -5.4920   -0.3870 ca        1 FR6     -0.037000
     19 C29         3.6550   -4.3510   -0.2950 ca        1 FR6     -0.023000
     20 C2          4.9820   -6.1030    0.8020 ca        1 FR6     -0.101000
     21 C4          3.3290   -3.8570    0.9990 ca        1 FR6     -0.143000
     22 C6          4.6470   -5.6010    2.0350 ca        1 FR6     -0.129000
     23 C7          3.8100   -4.4650    2.1320 ca        1 FR6     -0.118000
     24 C9          2.3220    2.5210   -1.0630 c3        1 FR6     -0.141100
     25 H1         -0.6350    0.4530   -0.9630 h4        1 FR6      0.221000
     26 H3          2.6400   -0.5420    1.6520 h5        1 FR6      0.101100
     27 H101       -3.1060    0.1430    3.4490 hn        1 FR6      0.469800
     28 H102       -1.8290   -0.9420    3.4560 hn        1 FR6      0.469800
     29 H13         1.5360   -0.0210   -2.0830 h1        1 FR6      0.099700
     30 H14         3.8700    1.1470   -0.3780 h1        1 FR6      0.050700
     31 HO          4.2660    1.9280   -2.5650 ho        1 FR6      0.427000
     32 H181        3.8010   -1.1330   -2.0380 hc        1 FR6      0.084200
     33 H182        3.6630   -1.3880   -0.2520 hc        1 FR6      0.084200
     34 H191        1.5000   -2.7080   -0.6560 hc        1 FR6      0.047200
     35 H192        1.7300   -2.4600   -2.4290 hc        1 FR6      0.047200
     36 H25         3.1600   -3.8270   -3.6540 ha        1 FR6      0.135000
     37 H26         4.6280   -5.8140   -3.7990 ha        1 FR6      0.144000
     38 H27         5.4940   -6.8970   -1.7160 ha        1 FR6      0.144000
     39 H2          5.6330   -6.9870    0.7110 ha        1 FR6      0.143000
     40 H4          2.6780   -2.9740    1.0860 ha        1 FR6      0.107000
     41 H6          5.0220   -6.0720    2.9560 ha        1 FR6      0.142000
     42 H7          3.5510   -4.0790    3.1300 ha        1 FR6      0.128000
     43 H91         1.9290    2.6530   -0.0280 hc        1 FR6      0.054367
     44 H92         2.9950    3.3840   -1.2900 hc        1 FR6      0.054367
     45 H93         1.4710    2.5460   -1.7860 hc        1 FR6      0.054367
     46 H103       -1.5440    0.6680    3.7550 hn        1 FR6      0.469800
@<TRIPOS>BOND
     1    1    2 1   
     2    1    5 2   
     3    1   25 1   
     4    2    3 1   
     5    2    9 1   
     6    3    4 2   
     7    3   26 1   
     8    4    5 1   
     9    5    6 1   
    10    6    7 2   
    11    6    8 1   
    12    8   27 1   
    13    8   28 1   
    14    8   46 1   
    15    9   10 1   
    16    9   12 1   
    17    9   29 1   
    18   10   11 1   
    19   10   24 1   
    20   10   30 1   
    21   11   31 1   
    22   12   13 1   
    23   12   32 1   
    24   12   33 1   
    25   13   14 1   
    26   13   34 1   
    27   13   35 1   
    28   14   15 ar  
    29   14   19 ar  
    30   15   16 ar  
    31   15   36 1   
    32   16   17 ar  
    33   16   37 1   
    34   17   18 ar  
    35   17   38 1   
    36   18   19 ar  
    37   18   20 ar  
    38   19   21 ar  
    39   20   22 ar  
    40   20   39 1   
    41   21   23 ar  
    42   21   40 1   
    43   22   23 ar  
    44   22   41 1   
    45   23   42 1   
    46   24   43 1   
    47   24   44 1   
    48   24   45 1   
@<TRIPOS>SUBSTRUCTURE
     1 FR6         1 TEMP              0 ****  ****    0 ROOT
