@<TRIPOS>MOLECULE
FR6
   46    48     1     0     0
SMALL
bcc


@<TRIPOS>ATOM
      1 C1         -0.0790    0.2130   -0.0480 cc        1 FR6     -0.061600
      2 N2          1.2750   -0.0300   -0.0100 na        1 FR6     -0.168900
      3 C3          1.6140   -0.3010    1.3410 cc        1 FR6      0.452400
      4 N4          0.5440   -0.2380    2.1420 nd        1 FR6     -0.668000
      5 C5         -0.5410    0.0840    1.2950 cd        1 FR6      0.123800
      6 C8         -1.8940    0.2440    1.7320 c         1 FR6      0.511600
      7 O9         -2.9040    0.5380    1.1050 o         1 FR6     -0.441100
      8 N10        -2.1140    0.0080    3.2190 n4        1 FR6     -0.747400
      9 C13         2.1790   -0.0380   -1.1500 c3        1 FR6      0.030000
     10 C14         3.0910    1.2260   -1.1900 c3        1 FR6      0.134100
     11 O15         3.7250    1.1370   -2.4600 oh        1 FR6     -0.594800
     12 C18         3.0700   -1.2870   -1.1970 c3        1 FR6     -0.095400
     13 C19         2.2810   -2.5560   -1.4510 c3        1 FR6     -0.034100
     14 C22         3.1790   -3.7460   -1.4990 ca        1 FR6     -0.092300
     15 C25         3.5320   -4.2770   -2.7220 ca        1 FR6     -0.107000
     16 C26         4.3710   -5.4110   -2.8090 ca        1 FR6     -0.126000
     17 C27         4.8490   -6.0050   -1.6680 ca        1 FR6     -0.102000
     18 C28         4.5050   -5.4860   -0.3890 ca        1 FR6     -0.037000
     19 C29         3.6630   -4.3460   -0.2960 ca        1 FR6     -0.023000
     20 C2          4.9950   -6.0960    0.7990 ca        1 FR6     -0.101000
     21 C4          3.3380   -3.8530    0.9990 ca        1 FR6     -0.143000
     22 C6          4.6620   -5.5950    2.0330 ca        1 FR6     -0.129000
     23 C7          3.8220   -4.4600    2.1310 ca        1 FR6     -0.118000
     24 C9          2.3180    2.5230   -1.0630 c3        1 FR6     -0.141100
     25 H1         -0.6360    0.4520   -0.9610 h4        1 FR6      0.221000
     26 H3          2.6430   -0.5380    1.6520 h5        1 FR6      0.101100
     27 H101       -1.5410    0.6660    3.7580 hn        1 FR6      0.469800
     28 H102       -3.1040    0.1390    3.4530 hn        1 FR6      0.469800
     29 H13         1.5360   -0.0200   -2.0820 h1        1 FR6      0.099700
     30 H14         3.8690    1.1520   -0.3790 h1        1 FR6      0.050700
     31 HO          4.2620    1.9340   -2.5670 ho        1 FR6      0.427000
     32 H181        3.8010   -1.1280   -2.0390 hc        1 FR6      0.084200
     33 H182        3.6660   -1.3830   -0.2520 hc        1 FR6      0.084200
     34 H191        1.5050   -2.7070   -0.6540 hc        1 FR6      0.047200
     35 H192        1.7310   -2.4580   -2.4270 hc        1 FR6      0.047200
     36 H25         3.1620   -3.8230   -3.6540 ha        1 FR6      0.135000
     37 H26         4.6320   -5.8070   -3.8020 ha        1 FR6      0.144000
     38 H27         5.5030   -6.8890   -1.7210 ha        1 FR6      0.144000
     39 H2          5.6470   -6.9790    0.7060 ha        1 FR6      0.143000
     40 H4          2.6860   -2.9710    1.0870 ha        1 FR6      0.107000
     41 H6          5.0390   -6.0650    2.9530 ha        1 FR6      0.142000
     42 H7          3.5650   -4.0740    3.1280 ha        1 FR6      0.128000
     43 H91         2.9900    3.3880   -1.2910 hc        1 FR6      0.054367
     44 H92         1.9250    2.6550   -0.0280 hc        1 FR6      0.054367
     45 H93         1.4670    2.5470   -1.7850 hc        1 FR6      0.054367
     46 H103       -1.8240   -0.9450    3.4590 hn        1 FR6      0.469800
@<TRIPOS>BOND
     1    1    2 1   
     2    1    5 2   
     3    1   25 1   
     4    2    3 1   
     5    2    9 1   
     6    3    4 2   
     7    3   26 1   
     8    4    5 1   
     9    5    6 1   
    10    6    7 2   
    11    6    8 1   
    12    8   27 1   
    13    8   28 1   
    14    8   46 1   
    15    9   10 1   
    16    9   12 1   
    17    9   29 1   
    18   10   11 1   
    19   10   24 1   
    20   10   30 1   
    21   11   31 1   
    22   12   13 1   
    23   12   32 1   
    24   12   33 1   
    25   13   14 1   
    26   13   34 1   
    27   13   35 1   
    28   14   15 ar  
    29   14   19 ar  
    30   15   16 ar  
    31   15   36 1   
    32   16   17 ar  
    33   16   37 1   
    34   17   18 ar  
    35   17   38 1   
    36   18   19 ar  
    37   18   20 ar  
    38   19   21 ar  
    39   20   22 ar  
    40   20   39 1   
    41   21   23 ar  
    42   21   40 1   
    43   22   23 ar  
    44   22   41 1   
    45   23   42 1   
    46   24   43 1   
    47   24   44 1   
    48   24   45 1   
@<TRIPOS>SUBSTRUCTURE
     1 FR6         1 TEMP              0 ****  ****    0 ROOT
