@<TRIPOS>MOLECULE
FR6
   45    47     1     0     0
SMALL
bcc


@<TRIPOS>ATOM
      1 C1          2.9420   -0.0360   -0.6900 cc        1 FR6     -0.167600
      2 N2          1.9350   -0.5240    0.1360 na        1 FR6     -0.201900
      3 C3          1.7990    0.3970    1.1950 cc        1 FR6      0.388400
      4 N4          2.6590    1.4240    1.0710 nd        1 FR6     -0.653000
      5 C5          3.3840    1.1710   -0.1030 cd        1 FR6      0.230800
      6 C8          4.4520    2.0190   -0.6650 c         1 FR6      0.604600
      7 O9          5.0510    1.6840   -1.7120 o         1 FR6     -0.635100
      8 N10         4.7810    3.1820   -0.0200 n         1 FR6     -0.660000
      9 C13         1.1910   -1.7450   -0.0580 c3        1 FR6      0.016000
     10 C14         1.6150   -2.8710    0.9350 c3        1 FR6      0.126100
     11 O15         0.8980   -4.0520    0.6170 oh        1 FR6     -0.588800
     12 C18        -0.3300   -1.5510    0.0510 c3        1 FR6     -0.092400
     13 C19        -0.8900   -0.7620   -1.1160 c3        1 FR6     -0.040100
     14 C22        -2.3560   -0.5350   -0.9620 ca        1 FR6     -0.069300
     15 C25        -3.2420   -1.3210   -1.6690 ca        1 FR6     -0.124000
     16 C26        -4.6380   -1.1280   -1.5580 ca        1 FR6     -0.127000
     17 C27        -5.1360   -0.1460   -0.7390 ca        1 FR6     -0.116000
     18 C28        -4.2540    0.6850    0.0040 ca        1 FR6     -0.037000
     19 C29        -2.8510    0.4940   -0.1020 ca        1 FR6     -0.027000
     20 C2         -4.7590    1.7080    0.8530 ca        1 FR6     -0.117000
     21 C4         -1.9930    1.3420    0.6530 ca        1 FR6     -0.126000
     22 C6         -3.9050    2.5110    1.5670 ca        1 FR6     -0.128000
     23 C7         -2.5060    2.3240    1.4640 ca        1 FR6     -0.124000
     24 C9          3.1100   -3.1200    0.9200 c3        1 FR6     -0.135100
     25 H1          3.2780   -0.5320   -1.6010 h4        1 FR6      0.198000
     26 H3          1.0710    0.2640    2.0020 h5        1 FR6      0.067100
     27 H101        4.3210    3.4630    0.8070 hn        1 FR6      0.319000
     28 H102        5.4960    3.7540   -0.3940 hn        1 FR6      0.319000
     29 H13         1.4260   -2.1110   -1.1040 h1        1 FR6      0.067700
     30 H14         1.2620   -2.6100    1.9730 h1        1 FR6      0.085700
     31 HO          1.2710   -4.4100   -0.1980 ho        1 FR6      0.401000
     32 H181       -0.7980   -2.5720    0.0750 hc        1 FR6      0.071200
     33 H182       -0.5890   -1.0430    1.0170 hc        1 FR6      0.071200
     34 H191       -0.3650    0.2260   -1.2110 hc        1 FR6      0.054200
     35 H192       -0.6930   -1.3260   -2.0680 hc        1 FR6      0.054200
     36 H25        -2.8710   -2.1140   -2.3360 ha        1 FR6      0.131000
     37 H26        -5.3140   -1.7750   -2.1370 ha        1 FR6      0.134000
     38 H27        -6.2200    0.0150   -0.6430 ha        1 FR6      0.134000
     39 H2         -5.8500    1.8420    0.9230 ha        1 FR6      0.133000
     40 H4         -0.9020    1.2050    0.5810 ha        1 FR6      0.134000
     41 H6         -4.2940    3.3040    2.2230 ha        1 FR6      0.134000
     42 H7         -1.8360    2.9790    2.0410 ha        1 FR6      0.135000
     43 H91         3.4860   -3.2140   -0.1270 hc        1 FR6      0.053367
     44 H92         3.6540   -2.2860    1.4220 hc        1 FR6      0.053367
     45 H93         3.3340   -4.0700    1.4640 hc        1 FR6      0.053367
@<TRIPOS>BOND
     1    1    2 1   
     2    1    5 2   
     3    1   25 1   
     4    2    3 1   
     5    2    9 1   
     6    3    4 2   
     7    3   26 1   
     8    4    5 1   
     9    5    6 1   
    10    6    7 2   
    11    6    8 1   
    12    8   27 1   
    13    8   28 1   
    14    9   10 1   
    15    9   12 1   
    16    9   29 1   
    17   10   11 1   
    18   10   24 1   
    19   10   30 1   
    20   11   31 1   
    21   12   13 1   
    22   12   32 1   
    23   12   33 1   
    24   13   14 1   
    25   13   34 1   
    26   13   35 1   
    27   14   15 ar  
    28   14   19 ar  
    29   15   16 ar  
    30   15   36 1   
    31   16   17 ar  
    32   16   37 1   
    33   17   18 ar  
    34   17   38 1   
    35   18   19 ar  
    36   18   20 ar  
    37   19   21 ar  
    38   20   22 ar  
    39   20   39 1   
    40   21   23 ar  
    41   21   40 1   
    42   22   23 ar  
    43   22   41 1   
    44   23   42 1   
    45   24   43 1   
    46   24   44 1   
    47   24   45 1   
@<TRIPOS>SUBSTRUCTURE
     1 FR6         1 TEMP              0 ****  ****    0 ROOT
