@<TRIPOS>MOLECULE
FR6
   46    48     1     0     0
SMALL
bcc


@<TRIPOS>ATOM
      1 C1         -0.0790    0.2110   -0.0490 cc        1 FR6     -0.061600
      2 N2          1.2750   -0.0300   -0.0110 na        1 FR6     -0.168900
      3 C3          1.6160   -0.3000    1.3400 cc        1 FR6      0.452400
      4 N4          0.5460   -0.2380    2.1420 nd        1 FR6     -0.668000
      5 C5         -0.5400    0.0810    1.2950 cd        1 FR6      0.123800
      6 C8         -1.8930    0.2400    1.7330 c         1 FR6      0.511600
      7 O9         -2.9040    0.5310    1.1060 o         1 FR6     -0.441100
      8 N10        -2.1120    0.0050    3.2200 n4        1 FR6     -0.747400
      9 C13         2.1780   -0.0370   -1.1510 c3        1 FR6      0.030000
     10 C14         3.0900    1.2280   -1.1920 c3        1 FR6      0.134100
     11 O15         3.7240    1.1390   -2.4620 oh        1 FR6     -0.594800
     12 C18         3.0700   -1.2850   -1.1990 c3        1 FR6     -0.095400
     13 C19         2.2820   -2.5550   -1.4540 c3        1 FR6     -0.034100
     14 C22         3.1800   -3.7450   -1.4990 ca        1 FR6     -0.092300
     15 C25         3.5360   -4.2760   -2.7220 ca        1 FR6     -0.106000
     16 C26         4.3750   -5.4100   -2.8060 ca        1 FR6     -0.126000
     17 C27         4.8510   -6.0030   -1.6640 ca        1 FR6     -0.102000
     18 C28         4.5050   -5.4840   -0.3870 ca        1 FR6     -0.037000
     19 C29         3.6630   -4.3440   -0.2950 ca        1 FR6     -0.023000
     20 C2          4.9920   -6.0930    0.8020 ca        1 FR6     -0.101000
     21 C4          3.3350   -3.8500    0.9980 ca        1 FR6     -0.143000
     22 C6          4.6570   -5.5920    2.0350 ca        1 FR6     -0.129000
     23 C7          3.8170   -4.4570    2.1320 ca        1 FR6     -0.118000
     24 C9          2.3150    2.5240   -1.0650 c3        1 FR6     -0.141100
     25 H1         -0.6370    0.4470   -0.9610 h4        1 FR6      0.221000
     26 H3          2.6450   -0.5340    1.6510 h5        1 FR6      0.101100
     27 H101       -1.5400    0.6630    3.7580 hn        1 FR6      0.469800
     28 H102       -3.1020    0.1330    3.4550 hn        1 FR6      0.469800
     29 H13         1.5340   -0.0200   -2.0830 h1        1 FR6      0.099700
     30 H14         3.8680    1.1540   -0.3810 h1        1 FR6      0.050700
     31 HO          4.2590    1.9360   -2.5690 ho        1 FR6      0.427000
     32 H181        3.6660   -1.3820   -0.2540 hc        1 FR6      0.084200
     33 H182        3.8020   -1.1260   -2.0410 hc        1 FR6      0.084200
     34 H191        1.7340   -2.4580   -2.4310 hc        1 FR6      0.047200
     35 H192        1.5050   -2.7060   -0.6580 hc        1 FR6      0.047200
     36 H25         3.1670   -3.8230   -3.6550 ha        1 FR6      0.135000
     37 H26         4.6380   -5.8070   -3.7990 ha        1 FR6      0.144000
     38 H27         5.5060   -6.8870   -1.7160 ha        1 FR6      0.144000
     39 H2          5.6450   -6.9760    0.7120 ha        1 FR6      0.143000
     40 H4          2.6830   -2.9690    1.0850 ha        1 FR6      0.107000
     41 H6          5.0330   -6.0620    2.9570 ha        1 FR6      0.142000
     42 H7          3.5580   -4.0710    3.1280 ha        1 FR6      0.128000
     43 H91         1.9230    2.6560   -0.0300 hc        1 FR6      0.054367
     44 H92         1.4640    2.5470   -1.7880 hc        1 FR6      0.054367
     45 H93         2.9870    3.3890   -1.2930 hc        1 FR6      0.054367
     46 H103       -1.8200   -0.9480    3.4610 hn        1 FR6      0.469800
@<TRIPOS>BOND
     1    1    2 1   
     2    1    5 2   
     3    1   25 1   
     4    2    3 1   
     5    2    9 1   
     6    3    4 2   
     7    3   26 1   
     8    4    5 1   
     9    5    6 1   
    10    6    7 2   
    11    6    8 1   
    12    8   27 1   
    13    8   28 1   
    14    8   46 1   
    15    9   10 1   
    16    9   12 1   
    17    9   29 1   
    18   10   11 1   
    19   10   24 1   
    20   10   30 1   
    21   11   31 1   
    22   12   13 1   
    23   12   32 1   
    24   12   33 1   
    25   13   14 1   
    26   13   34 1   
    27   13   35 1   
    28   14   15 ar  
    29   14   19 ar  
    30   15   16 ar  
    31   15   36 1   
    32   16   17 ar  
    33   16   37 1   
    34   17   18 ar  
    35   17   38 1   
    36   18   19 ar  
    37   18   20 ar  
    38   19   21 ar  
    39   20   22 ar  
    40   20   39 1   
    41   21   23 ar  
    42   21   40 1   
    43   22   23 ar  
    44   22   41 1   
    45   23   42 1   
    46   24   43 1   
    47   24   44 1   
    48   24   45 1   
@<TRIPOS>SUBSTRUCTURE
     1 FR6         1 TEMP              0 ****  ****    0 ROOT
