@<TRIPOS>MOLECULE
FR7
   39    34     1     0     0
SMALL
bcc


@<TRIPOS>ATOM
      1 C1         -2.5650    1.0990    0.9600 c1        1 FR7     -0.132000
      2 N2         -1.2270    1.0630    0.9990 n2        1 FR7     -0.149500
      3 C3         -0.8510    1.0610    2.2850 c1        1 FR7     -0.088000
      4 N4         -1.9680    1.0970    3.0500 n2        1 FR7     -0.149500
      5 C5         -3.0210    1.1200    2.2440 c1        1 FR7     -0.132000
      6 C8         -4.4890    1.1030    2.6820 c1        1 FR7      0.388000
      7 O9         -5.3380    1.0680    1.8790 o         1 FR7     -0.398000
      8 N10        -4.8150    1.1200    4.0520 n3        1 FR7     -0.421000
      9 C13        -0.3440    1.0450   -0.1370 c2        1 FR7      0.043000
     10 C14         0.5100    2.3050   -0.1390 c3        1 FR7      0.014000
     11 O15         1.8910    1.9470   -0.1430 oh        1 FR7     -0.331000
     12 C18         0.5570   -0.1850   -0.0670 c3        1 FR7     -0.159000
     13 C2          0.3800   -1.0220   -1.3460 c3        1 FR7     -0.123000
     14 C22         1.5980   -1.9890   -1.5150 c2        1 FR7     -0.056000
     15 C25         2.7580   -1.5470   -2.1570 c2        1 FR7     -0.119000
     16 C26         3.7950   -2.4300   -2.3950 c1        1 FR7     -0.119000
     17 C27         3.6830   -3.7580   -1.9930 c1        1 FR7     -0.118000
     18 C28         2.5330   -4.1970   -1.3560 c1        1 FR7     -0.059000
     19 C29         1.4900   -3.3130   -1.1160 c1        1 FR7     -0.059000
     20 CL1         2.4180   -5.8510   -0.8080 cl        1 FR7      0.010000
     21 CL2         0.0680   -3.8570   -0.2650 cl        1 FR7      0.007000
     22 C9          0.1930    3.1180   -1.3700 c3        1 FR7     -0.255000
     23 H1         -3.1050    1.1080    0.1730 DU        1 FR7      0.204000
     24 H3          0.0550    1.0380    2.6090 DU        1 FR7      0.204000
     25 H101       -4.1730    0.9630    4.6710 hn        1 FR7      0.232000
     26 H102       -5.7050    1.2160    4.3180 hn        1 FR7      0.232000
     27 H13        -0.8590    1.0130   -0.9380 ha        1 FR7      0.113000
     28 H14         0.3080    2.8480    0.6840 h1        1 FR7      0.091000
     29 HO          2.3830    2.6450    0.1540 ho        1 FR7      0.207000
     30 H181        1.4810    0.0950    0.0080 hc        1 FR7      0.108000
     31 H182        0.3090   -0.7340    0.7260 hc        1 FR7      0.108000
     32 H21         0.3250   -0.4220   -2.1280 hc        1 FR7      0.099500
     33 H22        -0.4610   -1.5560   -1.2780 hc        1 FR7      0.099500
     34 H25         2.8390   -0.5860   -2.4480 ha        1 FR7      0.144000
     35 H26         4.5930   -2.1260   -2.8370 ha        1 FR7      0.142000
     36 H27         4.4030   -4.3700   -2.1570 ha        1 FR7      0.152000
     37 H91         0.9140    3.7160   -1.5550 hc        1 FR7      0.090000
     38 H92         0.0650    2.5180   -2.1300 hc        1 FR7      0.090000
     39 H93        -0.6300    3.6340   -1.2170 hc        1 FR7      0.090000
@<TRIPOS>BOND
     1    1    2 1   
     2    1    5 1   
     3    2    3 1   
     4    3    4 1   
     5    4    5 1   
     6    6    7 1   
     7    6    8 1   
     8    8   25 1   
     9    8   26 1   
    10    9   10 1   
    11    9   12 1   
    12    9   27 1   
    13   10   11 1   
    14   10   22 1   
    15   10   28 1   
    16   11   29 1   
    17   12   13 1   
    18   12   30 1   
    19   12   31 1   
    20   13   14 1   
    21   13   32 1   
    22   13   33 1   
    23   14   15 1   
    24   14   19 1   
    25   15   16 1   
    26   15   34 1   
    27   16   35 1   
    28   17   18 1   
    29   17   36 1   
    30   18   20 1   
    31   19   21 1   
    32   22   37 1   
    33   22   38 1   
    34   22   39 1   
@<TRIPOS>SUBSTRUCTURE
     1 FR7         1 TEMP              0 ****  ****    0 ROOT
