@<TRIPOS>MOLECULE
FR7
   40    41     1     0     0
SMALL
bcc


@<TRIPOS>ATOM
      1 C1         -0.1150    0.0750   -0.0640 cc        1 FR7     -0.060600
      2 N2          1.2540    0.0070    0.0610 na        1 FR7     -0.169900
      3 C3          1.5490    0.0360    1.4490 cc        1 FR7      0.451400
      4 N4          0.4380    0.1190    2.1910 nd        1 FR7     -0.667000
      5 C5         -0.6300    0.1450    1.2640 cd        1 FR7      0.123800
      6 C8         -2.0140    0.2270    1.6190 c         1 FR7      0.511600
      7 O9         -3.0150    0.2640    0.9160 o         1 FR7     -0.440100
      8 N10        -2.2850    0.2770    3.1150 n4        1 FR7     -0.747400
      9 C13         2.2160   -0.0960   -1.0240 c3        1 FR7      0.031000
     10 C14         3.1250    1.1680   -1.1230 c3        1 FR7      0.136100
     11 O15         3.8760    0.9500   -2.3100 oh        1 FR7     -0.591800
     12 C18         3.1100   -1.3380   -0.9150 c3        1 FR7     -0.094400
     13 C2          2.3300   -2.6300   -1.0640 c3        1 FR7     -0.035100
     14 C22         3.2450   -3.8010   -1.1830 ca        1 FR7     -0.082300
     15 C25         3.5150   -4.5730   -0.0480 ca        1 FR7     -0.123000
     16 C26         4.3530   -5.6830   -0.1240 ca        1 FR7     -0.114000
     17 C27         4.9340   -6.0400   -1.3380 ca        1 FR7     -0.107000
     18 C28         4.6730   -5.2800   -2.4840 ca        1 FR7      0.022400
     19 C29         3.8290   -4.1590   -2.4100 ca        1 FR7      0.020400
     20 CL1         5.3910   -5.7370   -3.9480 cl        1 FR7     -0.047400
     21 CL2         3.5200   -3.2450   -3.8080 cl        1 FR7     -0.064400
     22 C9          2.3350    2.4590   -1.2100 c3        1 FR7     -0.142100
     23 H1         -0.6460    0.0700   -1.0220 h4        1 FR7      0.222000
     24 H3          2.5800   -0.0090    1.8300 h5        1 FR7      0.099100
     25 H101       -3.2940    0.3340    3.2880 hn        1 FR7      0.469800
     26 H102       -1.8180    1.0940    3.5210 hn        1 FR7      0.469800
     27 H13         1.6240   -0.1630   -1.9880 h1        1 FR7      0.101700
     28 H14         3.8240    1.1950   -0.2400 h1        1 FR7      0.047700
     29 HO          4.3790    1.7570   -2.4830 ho        1 FR7      0.428000
     30 H181        3.6700   -1.3340    0.0550 hc        1 FR7      0.085200
     31 H182        3.8690   -1.2610   -1.7460 hc        1 FR7      0.085200
     32 H21         1.6580   -2.7760   -0.1750 hc        1 FR7      0.052200
     33 H22         1.6700   -2.5730   -1.9720 hc        1 FR7      0.052200
     34 H25         3.0570   -4.3020    0.9150 ha        1 FR7      0.132000
     35 H26         4.5580   -6.2830    0.7770 ha        1 FR7      0.148000
     36 H27         5.5960   -6.9180   -1.4000 ha        1 FR7      0.162000
     37 H91         1.8250    2.6830   -0.2440 hc        1 FR7      0.055367
     38 H92         1.5730    2.4000   -2.0240 hc        1 FR7      0.055367
     39 H93         3.0250    3.3080   -1.4420 hc        1 FR7      0.055367
     40 H103       -1.9050   -0.5650    3.5590 hn        1 FR7      0.469800
@<TRIPOS>BOND
     1    1    2 1   
     2    1    5 2   
     3    1   23 1   
     4    2    3 1   
     5    2    9 1   
     6    3    4 2   
     7    3   24 1   
     8    4    5 1   
     9    5    6 1   
    10    6    7 2   
    11    6    8 1   
    12    8   25 1   
    13    8   26 1   
    14    8   40 1   
    15    9   10 1   
    16    9   12 1   
    17    9   27 1   
    18   10   11 1   
    19   10   22 1   
    20   10   28 1   
    21   11   29 1   
    22   12   13 1   
    23   12   30 1   
    24   12   31 1   
    25   13   14 1   
    26   13   32 1   
    27   13   33 1   
    28   14   15 ar  
    29   14   19 ar  
    30   15   16 ar  
    31   15   34 1   
    32   16   17 ar  
    33   16   35 1   
    34   17   18 ar  
    35   17   36 1   
    36   18   19 ar  
    37   18   20 1   
    38   19   21 1   
    39   22   37 1   
    40   22   38 1   
    41   22   39 1   
@<TRIPOS>SUBSTRUCTURE
     1 FR7         1 TEMP              0 ****  ****    0 ROOT
