@<TRIPOS>MOLECULE
FR7
   40    41     1     0     0
SMALL
bcc


@<TRIPOS>ATOM
      1 C1         -0.1140    0.0770   -0.0640 cc        1 FR7     -0.060600
      2 N2          1.2550    0.0080    0.0630 na        1 FR7     -0.169900
      3 C3          1.5490    0.0350    1.4500 cc        1 FR7      0.451400
      4 N4          0.4370    0.1180    2.1910 nd        1 FR7     -0.667000
      5 C5         -0.6290    0.1460    1.2640 cd        1 FR7      0.123800
      6 C8         -2.0140    0.2290    1.6180 c         1 FR7      0.511600
      7 O9         -3.0140    0.2680    0.9140 o         1 FR7     -0.440100
      8 N10        -2.2860    0.2780    3.1140 nz        1 FR7     -0.747400
      9 C13         2.2180   -0.0950   -1.0230 c3        1 FR7      0.031000
     10 C14         3.1280    1.1680   -1.1200 c3        1 FR7      0.136100
     11 O15         3.8800    0.9500   -2.3060 oh        1 FR7     -0.591800
     12 C18         3.1110   -1.3390   -0.9140 c3        1 FR7     -0.094400
     13 C2          2.3290   -2.6300   -1.0630 c3        1 FR7     -0.035100
     14 C22         3.2430   -3.8020   -1.1840 ca        1 FR7     -0.082300
     15 C25         3.5130   -4.5750   -0.0500 ca        1 FR7     -0.123000
     16 C26         4.3500   -5.6860   -0.1280 ca        1 FR7     -0.114000
     17 C27         4.9300   -6.0410   -1.3430 ca        1 FR7     -0.107000
     18 C28         4.6690   -5.2800   -2.4870 ca        1 FR7      0.022400
     19 C29         3.8260   -4.1590   -2.4120 ca        1 FR7      0.020400
     20 Cl1         5.3860   -5.7360   -3.9530 cl        1 FR7     -0.047400
     21 Cl2         3.5170   -3.2430   -3.8090 cl        1 FR7     -0.064400
     22 C9          2.3390    2.4590   -1.2070 c3        1 FR7     -0.142100
     23 H1         -0.6440    0.0730   -1.0230 h4        1 FR7      0.222000
     24 H3          2.5800   -0.0110    1.8320 h5        1 FR7      0.099100
     25 H101       -1.8180    1.0940    3.5200 hn        1 FR7      0.469800
     26 H102       -3.2950    0.3360    3.2860 hn        1 FR7      0.469800
     27 H13         1.6260   -0.1610   -1.9870 h1        1 FR7      0.101700
     28 H14         3.8270    1.1930   -0.2360 h1        1 FR7      0.047700
     29 HO          4.3830    1.7560   -2.4780 ho        1 FR7      0.428000
     30 H181        3.6710   -1.3360    0.0560 hc        1 FR7      0.085200
     31 H182        3.8690   -1.2610   -1.7440 hc        1 FR7      0.085200
     32 H21         1.6690   -2.5710   -1.9710 hc        1 FR7      0.052200
     33 H22         1.6580   -2.7760   -0.1750 hc        1 FR7      0.052200
     34 H25         3.0560   -4.3040    0.9130 ha        1 FR7      0.132000
     35 H26         4.5540   -6.2860    0.7720 ha        1 FR7      0.148000
     36 H27         5.5910   -6.9210   -1.4060 ha        1 FR7      0.162000
     37 H91         1.8280    2.6830   -0.2410 hc        1 FR7      0.055367
     38 H92         3.0300    3.3080   -1.4360 hc        1 FR7      0.055367
     39 H93         1.5780    2.4020   -2.0220 hc        1 FR7      0.055367
     40 H103       -1.9070   -0.5650    3.5580 hn        1 FR7      0.469800
@<TRIPOS>BOND
     1    1    2 1   
     2    1    5 2   
     3    1   23 1   
     4    2    3 1   
     5    2    9 1   
     6    3    4 2   
     7    3   24 1   
     8    4    5 1   
     9    5    6 1   
    10    6    7 2   
    11    6    8 1   
    12    8   25 1   
    13    8   26 1   
    14    8   40 1   
    15    9   10 1   
    16    9   12 1   
    17    9   27 1   
    18   10   11 1   
    19   10   22 1   
    20   10   28 1   
    21   11   29 1   
    22   12   13 1   
    23   12   30 1   
    24   12   31 1   
    25   13   14 1   
    26   13   32 1   
    27   13   33 1   
    28   14   15 ar  
    29   14   19 ar  
    30   15   16 ar  
    31   15   34 1   
    32   16   17 ar  
    33   16   35 1   
    34   17   18 ar  
    35   17   36 1   
    36   18   19 ar  
    37   18   20 1   
    38   19   21 1   
    39   22   37 1   
    40   22   38 1   
    41   22   39 1   
@<TRIPOS>SUBSTRUCTURE
     1 FR7         1 TEMP              0 ****  ****    0 ROOT
