@<TRIPOS>MOLECULE
FR7
   40    41     1     0     0
SMALL
bcc


@<TRIPOS>ATOM
      1 C1         -0.1130    0.0770   -0.0600 cc        1 FR7     -0.060600
      2 N2          1.2560    0.0080    0.0640 na        1 FR7     -0.169900
      3 C3          1.5540    0.0360    1.4510 cc        1 FR7      0.451400
      4 N4          0.4430    0.1200    2.1940 nd        1 FR7     -0.667000
      5 C5         -0.6250    0.1480    1.2690 cd        1 FR7      0.123800
      6 C8         -2.0090    0.2310    1.6260 c         1 FR7      0.511600
      7 O9         -3.0110    0.2690    0.9240 o         1 FR7     -0.440100
      8 N10        -2.2770    0.2810    3.1230 n4        1 FR7     -0.747400
      9 C13         2.2160   -0.0960   -1.0240 c3        1 FR7      0.031000
     10 C14         3.1260    1.1670   -1.1240 c3        1 FR7      0.136100
     11 O15         3.8760    0.9470   -2.3120 oh        1 FR7     -0.591800
     12 C18         3.1090   -1.3400   -0.9160 c3        1 FR7     -0.094400
     13 C2          2.3280   -2.6310   -1.0620 c3        1 FR7     -0.035100
     14 C22         3.2410   -3.8030   -1.1850 ca        1 FR7     -0.082300
     15 C25         3.5150   -4.5750   -0.0500 ca        1 FR7     -0.123000
     16 C26         4.3510   -5.6860   -0.1290 ca        1 FR7     -0.114000
     17 C27         4.9270   -6.0430   -1.3460 ca        1 FR7     -0.107000
     18 C28         4.6630   -5.2830   -2.4900 ca        1 FR7      0.022400
     19 C29         3.8210   -4.1610   -2.4130 ca        1 FR7      0.020400
     20 CL1         5.3750   -5.7410   -3.9570 cl        1 FR7     -0.047400
     21 CL2         3.5070   -3.2470   -3.8100 cl        1 FR7     -0.065400
     22 C9          2.3380    2.4580   -1.2110 c3        1 FR7     -0.142100
     23 H1         -0.6450    0.0720   -1.0170 h4        1 FR7      0.222000
     24 H3          2.5850   -0.0100    1.8300 h5        1 FR7      0.099100
     25 H101       -1.8980   -0.5610    3.5660 hn        1 FR7      0.469800
     26 H102       -3.2860    0.3400    3.2980 hn        1 FR7      0.469800
     27 H13         1.6230   -0.1630   -1.9870 h1        1 FR7      0.101700
     28 H14         3.8270    1.1930   -0.2420 h1        1 FR7      0.047700
     29 HO          4.3790    1.7540   -2.4860 ho        1 FR7      0.428000
     30 H181        3.6720   -1.3360    0.0530 hc        1 FR7      0.085200
     31 H182        3.8660   -1.2630   -1.7480 hc        1 FR7      0.085200
     32 H21         1.6650   -2.5730   -1.9680 hc        1 FR7      0.052200
     33 H22         1.6590   -2.7760   -0.1720 hc        1 FR7      0.052200
     34 H25         3.0610   -4.3030    0.9140 ha        1 FR7      0.132000
     35 H26         4.5580   -6.2850    0.7700 ha        1 FR7      0.148000
     36 H27         5.5880   -6.9220   -1.4100 ha        1 FR7      0.162000
     37 H91         3.0280    3.3070   -1.4430 hc        1 FR7      0.055367
     38 H92         1.5750    2.4000   -2.0240 hc        1 FR7      0.055367
     39 H93         1.8290    2.6830   -0.2450 hc        1 FR7      0.055367
     40 H103       -1.8090    1.0980    3.5270 hn        1 FR7      0.469800
@<TRIPOS>BOND
     1    1    2 1   
     2    1    5 2   
     3    1   23 1   
     4    2    3 1   
     5    2    9 1   
     6    3    4 2   
     7    3   24 1   
     8    4    5 1   
     9    5    6 1   
    10    6    7 2   
    11    6    8 1   
    12    8   25 1   
    13    8   26 1   
    14    8   40 1   
    15    9   10 1   
    16    9   12 1   
    17    9   27 1   
    18   10   11 1   
    19   10   22 1   
    20   10   28 1   
    21   11   29 1   
    22   12   13 1   
    23   12   30 1   
    24   12   31 1   
    25   13   14 1   
    26   13   32 1   
    27   13   33 1   
    28   14   15 ar  
    29   14   19 ar  
    30   15   16 ar  
    31   15   34 1   
    32   16   17 ar  
    33   16   35 1   
    34   17   18 ar  
    35   17   36 1   
    36   18   19 ar  
    37   18   20 1   
    38   19   21 1   
    39   22   37 1   
    40   22   38 1   
    41   22   39 1   
@<TRIPOS>SUBSTRUCTURE
     1 FR7         1 TEMP              0 ****  ****    0 ROOT
