@<TRIPOS>MOLECULE
FR7
   39    40     1     0     0
SMALL
bcc


@<TRIPOS>ATOM
      1 C1          3.2440    0.0190    0.7480 cc        1 FR7     -0.166600
      2 N2          2.4000    0.5020   -0.2480 na        1 FR7     -0.202900
      3 C3          2.8410   -0.0640   -1.4620 cc        1 FR7      0.390400
      4 N4          3.9060   -0.8650   -1.2760 nd        1 FR7     -0.653000
      5 C5          4.1730   -0.8260    0.1010 cd        1 FR7      0.230800
      6 C8          5.2550   -1.5470    0.7970 c         1 FR7      0.604600
      7 O9          5.4050   -1.4370    2.0350 o         1 FR7     -0.635100
      8 N10         6.0970   -2.3430    0.0650 n         1 FR7     -0.660000
      9 C13         1.2840    1.3980   -0.0660 c3        1 FR7      0.016000
     10 C14         1.4910    2.7610   -0.7950 c3        1 FR7      0.128100
     11 O15         0.3680    3.5900   -0.5530 oh        1 FR7     -0.586800
     12 C18        -0.0540    0.7960   -0.5240 c3        1 FR7     -0.092400
     13 C2         -0.5110   -0.3250    0.3880 c3        1 FR7     -0.042100
     14 C22        -1.8310   -0.8690   -0.0410 ca        1 FR7     -0.064300
     15 C25        -1.8640   -2.0220   -0.8350 ca        1 FR7     -0.120000
     16 C26        -3.0750   -2.5700   -1.2500 ca        1 FR7     -0.118000
     17 C27        -4.2770   -1.9740   -0.8760 ca        1 FR7     -0.118000
     18 C28        -4.2630   -0.8230   -0.0830 ca        1 FR7      0.019400
     19 C29        -3.0430   -0.2670    0.3360 ca        1 FR7      0.020400
     20 CL1        -5.7430   -0.1190    0.3590 cl        1 FR7     -0.068400
     21 CL2        -3.0460    1.1320    1.3010 cl        1 FR7     -0.073400
     22 C9          2.7750    3.4460   -0.3710 c3        1 FR7     -0.135100
     23 H1          3.1540    0.2790    1.8030 h4        1 FR7      0.199000
     24 H3          2.3540    0.1450   -2.4200 h5        1 FR7      0.065100
     25 H101        5.9970   -2.4400   -0.9120 hn        1 FR7      0.319000
     26 H102        6.8250   -2.8260    0.5280 hn        1 FR7      0.319000
     27 H13         1.2110    1.6150    1.0440 h1        1 FR7      0.069700
     28 H14         1.4730    2.5980   -1.9100 h1        1 FR7      0.083700
     29 HO          0.4080    3.8750    0.3690 ho        1 FR7      0.403000
     30 H181       -0.8160    1.6220   -0.5200 hc        1 FR7      0.072200
     31 H182        0.0320    0.4220   -1.5780 hc        1 FR7      0.072200
     32 H21         0.2480   -1.1540    0.3840 hc        1 FR7      0.061700
     33 H22        -0.5790    0.0510    1.4450 hc        1 FR7      0.061700
     34 H25        -0.9170   -2.5000   -1.1310 ha        1 FR7      0.144000
     35 H26        -3.0840   -3.4760   -1.8730 ha        1 FR7      0.143000
     36 H27        -5.2350   -2.4070   -1.2030 ha        1 FR7      0.153000
     37 H91         2.8590    3.4780    0.7410 hc        1 FR7      0.053367
     38 H92         3.6630    2.9110   -0.7830 hc        1 FR7      0.053367
     39 H93         2.7810    4.4950   -0.7580 hc        1 FR7      0.053367
@<TRIPOS>BOND
     1    1    2 1   
     2    1    5 2   
     3    1   23 1   
     4    2    3 1   
     5    2    9 1   
     6    3    4 2   
     7    3   24 1   
     8    4    5 1   
     9    5    6 1   
    10    6    7 2   
    11    6    8 1   
    12    8   25 1   
    13    8   26 1   
    14    9   10 1   
    15    9   12 1   
    16    9   27 1   
    17   10   11 1   
    18   10   22 1   
    19   10   28 1   
    20   11   29 1   
    21   12   13 1   
    22   12   30 1   
    23   12   31 1   
    24   13   14 1   
    25   13   32 1   
    26   13   33 1   
    27   14   15 ar  
    28   14   19 ar  
    29   15   16 ar  
    30   15   34 1   
    31   16   17 ar  
    32   16   35 1   
    33   17   18 ar  
    34   17   36 1   
    35   18   19 ar  
    36   18   20 1   
    37   19   21 1   
    38   22   37 1   
    39   22   38 1   
    40   22   39 1   
@<TRIPOS>SUBSTRUCTURE
     1 FR7         1 TEMP              0 ****  ****    0 ROOT
