@<TRIPOS>MOLECULE
FR8
   66    57     1     0     0
SMALL
bcc


@<TRIPOS>ATOM
      1 C1         -4.0170    1.8560   -1.9910 c1        1 FR8     -0.131500
      2 N2         -4.5330    0.6840   -2.3780 n2        1 FR8     -0.148500
      3 C3         -4.0150    0.3790   -3.5940 c1        1 FR8     -0.103000
      4 N4         -3.1700    1.3790   -3.9540 n2        1 FR8     -0.148500
      5 C5         -3.1660    2.2890   -2.9740 c1        1 FR8     -0.131500
      6 C8         -2.3820    3.5960   -2.9690 c1        1 FR8      0.386000
      7 O9         -2.4830    4.3600   -2.0320 o         1 FR8     -0.391000
      8 N10        -1.5500    3.9310   -4.0750 n3        1 FR8     -0.420000
      9 C13        -5.4590   -0.1020   -1.6450 c2        1 FR8     -0.012000
     10 C14        -6.7870   -0.1200   -2.3660 c3        1 FR8     -0.031000
     11 O15        -7.3530    1.1750   -2.3420 oh        1 FR8     -0.314000
     12 C18        -4.9290   -1.5270   -1.5200 c3        1 FR8     -0.202000
     13 C19        -4.6410   -1.8380   -0.0440 c3        1 FR8     -0.017000
     14 N22        -3.6470   -2.8880    0.0450 n3        1 FR8     -0.174000
     15 C27        -4.1700   -4.0710   -0.4160 c1        1 FR8     -0.095000
     16 C28        -3.1950   -5.0460   -0.2980 c1        1 FR8     -0.178000
     17 C29        -2.0640   -4.4570    0.2410 c1        1 FR8     -0.106000
     18 C30        -2.3410   -3.1260    0.4530 c1        1 FR8      0.027000
     19 C31        -0.7820   -4.9680    0.5420 c1        1 FR8     -0.060000
     20 C32         0.2020   -4.1260    1.0550 c1        1 FR8     -0.174000
     21 C33        -0.0780   -2.7780    1.2700 c1        1 FR8      0.100000
     22 C34        -1.3440   -2.2720    0.9720 c1        1 FR8     -0.211000
     23 N1          0.7670   -1.7540    1.8440 n         1 FR8     -0.327000
     24 C2          2.1660   -2.0220    2.0830 c2        1 FR8      0.310000
     25 O1          2.6330   -3.1090    1.8020 o         1 FR8     -0.348000
     26 C4          3.0600   -0.9410    2.7190 c3        1 FR8     -0.187000
     27 C6          4.1910   -0.5760    1.7480 c3        1 FR8     -0.158000
     28 C7          7.7080    2.5810    2.2870 c1        1 FR8     -0.128250
     29 C11         6.4940    2.5110    1.6170 c1        1 FR8     -0.073000
     30 C9          5.8680    3.6740    1.1960 c1        1 FR8     -0.127000
     31 C12         6.4550    4.9090    1.4430 c1        1 FR8     -0.128250
     32 C10         7.6680    4.9780    2.1120 c1        1 FR8     -0.128250
     33 C15         8.2950    3.8160    2.5340 c1        1 FR8     -0.128250
     34 C16         4.9320    0.6690    2.2680 c3        1 FR8     -0.156000
     35 C17         5.9270    1.1480    1.2080 c3        1 FR8     -0.123000
     36 H1         -4.2120    2.3210   -1.1550 DU        1 FR8      0.182250
     37 H3         -4.2140   -0.4200   -4.1190 DU        1 FR8      0.182250
     38 H101       -1.0920    4.7230   -4.0800 hn        1 FR8      0.232500
     39 H102       -1.4850    3.3610   -4.7870 hn        1 FR8      0.232500
     40 H13        -5.5770    0.2800   -0.7540 ha        1 FR8      0.127000
     41 H141       -6.6510   -0.4000   -3.2940 h1        1 FR8      0.100500
     42 H142       -7.3910   -0.7470   -1.9210 h1        1 FR8      0.100500
     43 H15        -8.0080    1.2240   -2.9450 ho        1 FR8      0.209000
     44 H181       -5.5980   -2.1560   -1.8630 hc        1 FR8      0.106500
     45 H182       -4.1060   -1.6140   -2.0380 hc        1 FR8      0.106500
     46 H191       -4.3060   -1.0330    0.3990 h1        1 FR8      0.105000
     47 H192       -5.4680   -2.1320    0.3950 h1        1 FR8      0.105000
     48 H27        -5.0750   -4.2020   -0.7660 DU        1 FR8      0.182250
     49 H28        -3.2880   -5.9870   -0.5500 DU        1 FR8      0.182250
     50 H31        -0.5850   -5.9140    0.3920 ha        1 FR8      0.139000
     51 H32         1.0880   -4.4790    1.2630 ha        1 FR8      0.172000
     52 H34        -1.5400   -1.3310    1.1220 ha        1 FR8      0.132000
     53 HN1         0.4090   -0.9500    2.0860 hn        1 FR8      0.229000
     54 H41         2.5250   -0.1470    2.9090 hc        1 FR8      0.114500
     55 H42         3.4450   -1.2840    3.5540 hc        1 FR8      0.114500
     56 H61         3.8140   -0.3860    0.8660 hc        1 FR8      0.087000
     57 H62         4.8170   -1.3240    1.6810 hc        1 FR8      0.087000
     58 H7          8.1500    1.7640    2.5840 ha        1 FR8      0.131750
     59 H9          5.0150    3.6260    0.7260 ha        1 FR8      0.130000
     60 H12         6.0130    5.7280    1.1460 ha        1 FR8      0.131750
     61 H10         8.0810    5.8470    2.2860 ha        1 FR8      0.131750
     62 H2          9.1490    3.8650    3.0040 ha        1 FR8      0.131750
     63 H161        4.2870    1.3780    2.4540 hc        1 FR8      0.087500
     64 H162        5.4140    0.4420    3.0890 hc        1 FR8      0.087500
     65 H171        5.4710    1.2310    0.3470 hc        1 FR8      0.089000
     66 H172        6.6580    0.5010    1.1300 hc        1 FR8      0.089000
@<TRIPOS>BOND
     1    1    2 1   
     2    1    5 1   
     3    2    3 1   
     4    3    4 1   
     5    4    5 1   
     6    6    7 1   
     7    6    8 1   
     8    8   38 1   
     9    8   39 1   
    10    9   10 1   
    11    9   12 1   
    12    9   40 1   
    13   10   11 1   
    14   10   41 1   
    15   10   42 1   
    16   11   43 1   
    17   12   13 1   
    18   12   44 1   
    19   12   45 1   
    20   13   14 1   
    21   13   46 1   
    22   13   47 1   
    23   14   15 1   
    24   14   18 1   
    25   15   16 1   
    26   16   17 1   
    27   17   19 1   
    28   18   22 1   
    29   19   50 1   
    30   20   21 1   
    31   20   51 1   
    32   21   23 1   
    33   22   52 1   
    34   23   24 1   
    35   23   53 1   
    36   24   25 1   
    37   24   26 1   
    38   26   27 1   
    39   26   54 1   
    40   26   55 1   
    41   27   34 1   
    42   27   56 1   
    43   27   57 1   
    44   28   33 1   
    45   28   58 1   
    46   29   30 1   
    47   29   35 1   
    48   30   59 1   
    49   31   32 1   
    50   31   60 1   
    51   32   61 1   
    52   33   62 1   
    53   34   35 1   
    54   34   63 1   
    55   34   64 1   
    56   35   65 1   
    57   35   66 1   
@<TRIPOS>SUBSTRUCTURE
     1 FR8         1 TEMP              0 ****  ****    0 ROOT
