@<TRIPOS>MOLECULE
FR8
   68    71     1     0     0
SMALL
bcc


@<TRIPOS>ATOM
      1 C1         -0.0260   -0.8090   -0.2080 cc        1 FR8     -0.075600
      2 N2          1.1680   -0.1800    0.0870 na        1 FR8     -0.193900
      3 C3          1.0110    0.4470    1.3520 cc        1 FR8      0.470400
      4 N4         -0.2120    0.2430    1.8520 nd        1 FR8     -0.665000
      5 C5         -0.8870   -0.5440    0.8910 cd        1 FR8      0.142800
      6 C8         -2.2450   -0.9960    1.0180 c         1 FR8      0.506600
      7 O9         -2.9100   -1.6950    0.2660 o         1 FR8     -0.427100
      8 N10        -2.9620   -0.5340    2.2730 n4        1 FR8     -0.744400
      9 C13         2.3610   -0.1600   -0.7410 c3        1 FR8      0.047000
     10 C14         2.8630    1.2820   -0.9950 c3        1 FR8      0.117400
     11 O15         3.3070    1.8140    0.2390 oh        1 FR8     -0.618800
     12 C18         3.4930   -1.0210   -0.1500 c3        1 FR8     -0.122400
     13 C19         4.5080   -1.3800   -1.2430 c3        1 FR8      0.046300
     14 N22         5.4580   -2.3800   -0.8510 na        1 FR8     -0.075400
     15 C27         5.1330   -3.7030   -0.5090 cc        1 FR8     -0.069100
     16 C28         6.2810   -4.4210   -0.1920 cd        1 FR8     -0.164200
     17 C29         7.3960   -3.5210   -0.3380 ca        1 FR8     -0.048800
     18 C30         6.8480   -2.2380   -0.7520 ca        1 FR8     -0.037200
     19 C31         8.7730   -3.6680   -0.1780 ca        1 FR8     -0.046000
     20 C32         9.6080   -2.5890   -0.4230 ca        1 FR8     -0.142000
     21 C33         9.0650   -1.3480   -0.8320 ca        1 FR8     -0.048400
     22 C34         7.6870   -1.1470   -0.9990 ca        1 FR8     -0.104000
     23 N1          9.9850   -0.2400   -1.1190 n4        1 FR8     -0.548200
     24 C2          9.8380    0.9090   -0.1270 c         1 FR8      0.565100
     25 O1          8.8530    1.6110   -0.2840 o         1 FR8     -0.424100
     26 C4         10.9350    1.0490    0.8850 c3        1 FR8     -0.158400
     27 C6         10.9380   -0.0830    1.8930 c3        1 FR8     -0.084400
     28 C7         13.1210    0.1210    5.8770 ca        1 FR8     -0.125500
     29 C11        13.2090   -0.8470    4.8690 ca        1 FR8     -0.105300
     30 C9         14.3460   -1.6570    4.7900 ca        1 FR8     -0.125500
     31 C12        15.3850   -1.4990    5.7080 ca        1 FR8     -0.120000
     32 C10        15.2940   -0.5320    6.7080 ca        1 FR8     -0.114000
     33 C15        14.1600    0.2770    6.7920 ca        1 FR8     -0.120000
     34 C16        12.0850    0.0950    2.8690 c3        1 FR8     -0.081400
     35 C17        12.0920   -1.0190    3.9000 c3        1 FR8     -0.026100
     36 H1         -0.2140   -1.3770   -1.1250 h4        1 FR8      0.219000
     37 H3          1.8260    1.0360    1.8080 h5        1 FR8      0.116100
     38 H101       -3.9220   -0.8970    2.2830 hn        1 FR8      0.474133
     39 H102       -2.9800    0.4910    2.3000 hn        1 FR8      0.474133
     40 H13         2.0620   -0.5840   -1.7490 h1        1 FR8      0.085700
     41 H141        2.0450    1.9170   -1.4290 h1        1 FR8      0.056200
     42 H142        3.7170    1.2310   -1.7230 h1        1 FR8      0.056200
     43 H15         3.5310    2.7420    0.0860 ho        1 FR8      0.436000
     44 H181        3.9970   -0.4510    0.6750 hc        1 FR8      0.083200
     45 H182        3.0720   -1.9630    0.2930 hc        1 FR8      0.083200
     46 H191        3.9530   -1.7650   -2.1500 h1        1 FR8      0.067700
     47 H192        5.0720   -0.4520   -1.5440 h1        1 FR8      0.067700
     48 H27         4.0920   -4.0390   -0.5300 h4        1 FR8      0.184000
     49 H28         6.3370   -5.4680    0.1040 ha        1 FR8      0.189000
     50 H31         9.1940   -4.6390    0.1350 ha        1 FR8      0.177000
     51 H32        10.6960   -2.7180   -0.3010 ha        1 FR8      0.154000
     52 H34         7.2810   -0.1700   -1.3040 ha        1 FR8      0.158000
     53 HN1        10.9490   -0.5920   -1.0920 hn        1 FR8      0.462800
     54 H41        11.9290    1.1110    0.3620 hc        1 FR8      0.115200
     55 H42        10.7710    2.0300    1.4160 hc        1 FR8      0.115200
     56 H61         9.9660   -0.0960    2.4540 hc        1 FR8      0.054700
     57 H62        11.0390   -1.0720    1.3720 hc        1 FR8      0.054700
     58 H9         14.4220   -2.4270    4.0080 ha        1 FR8      0.126000
     59 H12        16.2760   -2.1420    5.6430 ha        1 FR8      0.142500
     60 H10        16.1130   -0.4090    7.4330 ha        1 FR8      0.146000
     61 H2         14.0840    1.0380    7.5840 ha        1 FR8      0.142500
     62 H161       13.0600    0.1010    2.3160 hc        1 FR8      0.060200
     63 H162       11.9900    1.0840    3.3910 hc        1 FR8      0.060200
     64 H171       11.1140   -1.0210    4.4540 hc        1 FR8      0.047700
     65 H172       12.1820   -2.0100    3.3800 hc        1 FR8      0.047700
     66 H103       -2.4580   -0.8700    3.1000 hn        1 FR8      0.474133
     67 H121        9.7820    0.1060   -2.0660 hn        1 FR8      0.462800
     68 H7         12.2250    0.7550    5.9490 ha        1 FR8      0.126000
@<TRIPOS>BOND
     1    1    2 1   
     2    1    5 2   
     3    1   36 1   
     4    2    3 1   
     5    2    9 1   
     6    3    4 2   
     7    3   37 1   
     8    4    5 1   
     9    5    6 1   
    10    6    7 2   
    11    6    8 1   
    12    8   38 1   
    13    8   39 1   
    14    8   66 1   
    15    9   10 1   
    16    9   12 1   
    17    9   40 1   
    18   10   11 1   
    19   10   41 1   
    20   10   42 1   
    21   11   43 1   
    22   12   13 1   
    23   12   44 1   
    24   12   45 1   
    25   13   14 1   
    26   13   46 1   
    27   13   47 1   
    28   14   15 1   
    29   14   18 1   
    30   15   16 2   
    31   15   48 1   
    32   16   17 1   
    33   16   49 1   
    34   17   18 ar  
    35   17   19 ar  
    36   18   22 ar  
    37   19   20 ar  
    38   19   50 1   
    39   20   21 ar  
    40   20   51 1   
    41   21   22 ar  
    42   21   23 1   
    43   22   52 1   
    44   23   24 1   
    45   23   53 1   
    46   23   67 1   
    47   24   25 2   
    48   24   26 1   
    49   26   27 1   
    50   26   54 1   
    51   26   55 1   
    52   27   34 1   
    53   27   56 1   
    54   27   57 1   
    55   28   29 ar  
    56   28   33 ar  
    57   28   68 1   
    58   29   30 ar  
    59   29   35 1   
    60   30   31 ar  
    61   30   58 1   
    62   31   32 ar  
    63   31   59 1   
    64   32   33 ar  
    65   32   60 1   
    66   33   61 1   
    67   34   35 1   
    68   34   62 1   
    69   34   63 1   
    70   35   64 1   
    71   35   65 1   
@<TRIPOS>SUBSTRUCTURE
     1 FR8         1 TEMP              0 ****  ****    0 ROOT
