@<TRIPOS>MOLECULE
FR8
   66    69     1     0     0
SMALL
bcc


@<TRIPOS>ATOM
      1 C1          1.4080    0.6670    6.7690 cc        1 FR8     -0.172600
      2 N2          1.3140    0.7770    5.3840 na        1 FR8     -0.214900
      3 C3          2.3930    0.0490    4.8430 cc        1 FR8      0.411400
      4 N4          3.1530   -0.4960    5.8090 nd        1 FR8     -0.660000
      5 C5          2.5520   -0.1200    7.0210 cd        1 FR8      0.234800
      6 C8          3.0250   -0.4780    8.3720 c         1 FR8      0.604600
      7 O9          2.4280   -0.0650    9.3910 o         1 FR8     -0.637100
      8 N10         4.1350   -1.2730    8.4940 n         1 FR8     -0.660000
      9 C13         0.2790    1.4650    4.6500 c3        1 FR8      0.060000
     10 C14         0.8580    2.5220    3.6800 c3        1 FR8      0.114400
     11 O15         1.5390    1.8510    2.6350 oh        1 FR8     -0.605800
     12 C18        -0.6480    0.4970    3.8960 c3        1 FR8     -0.128400
     13 C19        -1.9620    1.1980    3.5320 c3        1 FR8      0.051300
     14 N22        -2.9570    0.3530    2.9490 na        1 FR8     -0.087400
     15 C27        -3.9450   -0.3470    3.6690 cc        1 FR8     -0.115100
     16 C28        -4.5930   -1.2520    2.8420 cd        1 FR8     -0.168200
     17 C29        -3.9650   -1.1690    1.5400 ca        1 FR8     -0.116800
     18 C30        -2.9220   -0.1760    1.6470 ca        1 FR8     -0.014200
     19 C31        -4.1660   -1.8080    0.3200 ca        1 FR8     -0.059000
     20 C32        -3.3620   -1.4960   -0.7640 ca        1 FR8     -0.178000
     21 C33        -2.3280   -0.5260   -0.6620 ca        1 FR8      0.093600
     22 C34        -2.1050    0.1440    0.5590 ca        1 FR8     -0.212000
     23 N1         -1.4870   -0.2030   -1.7420 n         1 FR8     -0.476100
     24 C2         -1.5810   -0.6280   -3.0620 c         1 FR8      0.665100
     25 O1         -2.4680   -1.3980   -3.4690 o         1 FR8     -0.584100
     26 C4         -0.5090   -0.0810   -3.9940 c3        1 FR8     -0.153400
     27 C6         -0.6870   -0.6230   -5.3960 c3        1 FR8     -0.075400
     28 C7          2.2970   -0.8470   -9.0910 ca        1 FR8     -0.128000
     29 C11         1.2180   -0.0660   -8.6630 ca        1 FR8     -0.079300
     30 C9          1.0950    1.2480   -9.1320 ca        1 FR8     -0.128000
     31 C12         2.0390    1.7720  -10.0140 ca        1 FR8     -0.128000
     32 C10         3.1130    0.9880  -10.4360 ca        1 FR8     -0.132000
     33 C15         3.2400   -0.3210   -9.9730 ca        1 FR8     -0.128000
     34 C16         0.3740   -0.0710   -6.3240 c3        1 FR8     -0.076400
     35 C17         0.2030   -0.6230   -7.7270 c3        1 FR8     -0.037100
     36 H1          0.7070    1.1240    7.4680 h4        1 FR8      0.197000
     37 H3          2.5550   -0.0180    3.7590 h5        1 FR8      0.080100
     38 H101        4.4520   -1.5210    9.3970 hn        1 FR8      0.318500
     39 H102        4.6150   -1.6150    7.7020 hn        1 FR8      0.318500
     40 H13        -0.3370    2.0350    5.4120 h1        1 FR8      0.069700
     41 H141        0.0070    3.1150    3.2480 h1        1 FR8      0.042700
     42 H142        1.5500    3.2170    4.2260 h1        1 FR8      0.042700
     43 H15         2.1190    2.4980    2.2180 ho        1 FR8      0.413000
     44 H181       -0.8660   -0.4020    4.5310 hc        1 FR8      0.079700
     45 H182       -0.1350    0.1400    2.9640 hc        1 FR8      0.079700
     46 H191       -1.7420    2.0240    2.7950 h1        1 FR8      0.055200
     47 H192       -2.4050    1.6590    4.4620 h1        1 FR8      0.055200
     48 H27        -4.1230   -0.1140    4.7210 h4        1 FR8      0.164000
     49 H28        -5.4210   -1.9030    3.1060 ha        1 FR8      0.158000
     50 H31        -4.9610   -2.5620    0.2170 ha        1 FR8      0.139000
     51 H32        -3.5370   -2.0140   -1.7210 ha        1 FR8      0.173000
     52 H34        -1.3090    0.8940    0.6700 ha        1 FR8      0.130000
     53 HN1        -0.7500    0.4320   -1.5290 hn        1 FR8      0.311500
     54 H41         0.5040   -0.3650   -3.6030 hc        1 FR8      0.063200
     55 H42        -0.5710    1.0400   -4.0100 hc        1 FR8      0.063200
     56 H61        -1.7090   -0.3550   -5.7730 hc        1 FR8      0.061200
     57 H62        -0.6350   -1.7440   -5.3720 hc        1 FR8      0.061200
     58 H9          0.2470    1.8660   -8.8010 ha        1 FR8      0.130500
     59 H12         1.9350    2.8040  -10.3780 ha        1 FR8      0.130500
     60 H10         3.8560    1.4010  -11.1330 ha        1 FR8      0.131000
     61 H2          4.0840   -0.9430  -10.3060 ha        1 FR8      0.130500
     62 H161        1.3930   -0.3360   -5.9380 hc        1 FR8      0.042200
     63 H162        0.3100    1.0480   -6.3540 hc        1 FR8      0.042200
     64 H171        0.2810   -1.7430   -7.6970 hc        1 FR8      0.051700
     65 H172       -0.8260   -0.3730   -8.1020 hc        1 FR8      0.051700
     66 H7          2.4010   -1.8820   -8.7310 ha        1 FR8      0.130500
@<TRIPOS>BOND
     1    1    2 1   
     2    1    5 2   
     3    1   36 1   
     4    2    3 1   
     5    2    9 1   
     6    3    4 2   
     7    3   37 1   
     8    4    5 1   
     9    5    6 1   
    10    6    7 2   
    11    6    8 1   
    12    8   38 1   
    13    8   39 1   
    14    9   10 1   
    15    9   12 1   
    16    9   40 1   
    17   10   11 1   
    18   10   41 1   
    19   10   42 1   
    20   11   43 1   
    21   12   13 1   
    22   12   44 1   
    23   12   45 1   
    24   13   14 1   
    25   13   46 1   
    26   13   47 1   
    27   14   15 1   
    28   14   18 1   
    29   15   16 2   
    30   15   48 1   
    31   16   17 1   
    32   16   49 1   
    33   17   18 ar  
    34   17   19 ar  
    35   18   22 ar  
    36   19   20 ar  
    37   19   50 1   
    38   20   21 ar  
    39   20   51 1   
    40   21   22 ar  
    41   21   23 1   
    42   22   52 1   
    43   23   24 1   
    44   23   53 1   
    45   24   25 2   
    46   24   26 1   
    47   26   27 1   
    48   26   54 1   
    49   26   55 1   
    50   27   34 1   
    51   27   56 1   
    52   27   57 1   
    53   28   29 ar  
    54   28   33 ar  
    55   28   66 1   
    56   29   30 ar  
    57   29   35 1   
    58   30   31 ar  
    59   30   58 1   
    60   31   32 ar  
    61   31   59 1   
    62   32   33 ar  
    63   32   60 1   
    64   33   61 1   
    65   34   35 1   
    66   34   62 1   
    67   34   63 1   
    68   35   64 1   
    69   35   65 1   
@<TRIPOS>SUBSTRUCTURE
     1 FR8         1 TEMP              0 ****  ****    0 ROOT
