@<TRIPOS>MOLECULE
FR8
   67    70     1     0     0
SMALL
bcc


@<TRIPOS>ATOM
      1 C1         -0.0560   -0.1460   -0.4910 cc        1 FR8     -0.068600
      2 N2          1.2340    0.2070   -0.1620 na        1 FR8     -0.179900
      3 C3          1.2980    0.3050    1.2540 cc        1 FR8      0.477400
      4 N4          0.1150    0.0410    1.8180 nd        1 FR8     -0.677000
      5 C5         -0.7600   -0.2480    0.7440 cd        1 FR8      0.128800
      6 C8         -2.1410   -0.5930    0.8940 c         1 FR8      0.511600
      7 O9         -2.9940   -0.8460    0.0540 o         1 FR8     -0.443100
      8 N10        -2.6250   -0.6590    2.3350 nz        1 FR8     -0.747400
      9 C13         2.3490    0.3670   -1.0850 c3        1 FR8      0.044000
     10 C14         3.1070    1.6940   -0.8580 c3        1 FR8      0.118400
     11 O15         3.6730    1.6670    0.4400 oh        1 FR8     -0.617800
     12 C18         3.3160   -0.8250   -1.0260 c3        1 FR8     -0.138400
     13 C19         4.2070   -0.8600   -2.2760 c3        1 FR8      0.047300
     14 N22         4.9440   -2.0710   -2.4600 na        1 FR8     -0.080400
     15 C27         4.3440   -3.2610   -2.9480 cc        1 FR8     -0.142100
     16 C28         5.0750   -4.3680   -2.5590 cd        1 FR8     -0.141200
     17 C29         6.1590   -3.8960   -1.7170 ca        1 FR8     -0.119800
     18 C30         6.0290   -2.4620   -1.6400 ca        1 FR8     -0.025200
     19 C31         7.2050   -4.5220   -1.0480 ca        1 FR8     -0.054000
     20 C32         8.1020   -3.7630   -0.3140 ca        1 FR8     -0.166000
     21 C33         7.9830   -2.3490   -0.2340 ca        1 FR8      0.101600
     22 C34         6.9300   -1.6890   -0.9050 ca        1 FR8     -0.212000
     23 N1          8.9020   -1.5650    0.4810 ns        1 FR8     -0.485100
     24 C2          9.7730   -1.9930    1.4820 c         1 FR8      0.665100
     25 O1          9.7940   -3.1660    1.8880 o         1 FR8     -0.575100
     26 C4         10.6930   -0.9220    2.0450 c3        1 FR8     -0.151400
     27 C6         11.5660   -1.4860    3.1460 c3        1 FR8     -0.076400
     28 C7         14.0470    0.6110    6.6230 ca        1 FR8     -0.127500
     29 C11        14.2750    0.0540    5.3590 ca        1 FR8     -0.083300
     30 C9         15.3870    0.4700    4.6180 ca        1 FR8     -0.127500
     31 C12        16.2570    1.4310    5.1310 ca        1 FR8     -0.126500
     32 C10        16.0240    1.9830    6.3910 ca        1 FR8     -0.129000
     33 C15        14.9190    1.5720    7.1350 ca        1 FR8     -0.126500
     34 C16        12.4790   -0.4170    3.7070 c3        1 FR8     -0.077400
     35 C17        13.3550   -0.9790    4.8110 c3        1 FR8     -0.035100
     36 H1         -0.4120   -0.3000   -1.5140 h4        1 FR8      0.217000
     37 H3          2.2340    0.5850    1.7700 h5        1 FR8      0.120100
     38 H101       -2.4890    0.2540    2.7820 hn        1 FR8      0.470133
     39 H102       -2.0740   -1.3540    2.8480 hn        1 FR8      0.470133
     40 H13         1.8980    0.4240   -2.1240 h1        1 FR8      0.082700
     41 H141        2.4100    2.5710   -0.9490 h1        1 FR8      0.055700
     42 H142        3.9080    1.7730   -1.6420 h1        1 FR8      0.055700
     43 H15         4.2880    2.4100    0.4980 ho        1 FR8      0.432000
     44 H181        3.9560   -0.7390   -0.1080 hc        1 FR8      0.080700
     45 H182        2.7410   -1.7860   -0.9540 hc        1 FR8      0.080700
     46 H191        3.5670   -0.7090   -3.1930 h1        1 FR8      0.059200
     47 H192        4.9510   -0.0130   -2.2170 h1        1 FR8      0.059200
     48 H27         3.4660   -3.1990   -3.5920 h4        1 FR8      0.161000
     49 H28         4.8980   -5.4040   -2.8360 ha        1 FR8      0.164000
     50 H31         7.3250   -5.6150   -1.1050 ha        1 FR8      0.147000
     51 H32         8.9230   -4.2730    0.2190 ha        1 FR8      0.176000
     52 H34         6.8220   -0.5970   -0.8660 ha        1 FR8      0.124000
     53 HN1         8.9080   -0.5950    0.2580 hn        1 FR8      0.312500
     54 H41        10.0780   -0.0740    2.4460 hc        1 FR8      0.065200
     55 H42        11.3380   -0.5210    1.2180 hc        1 FR8      0.065200
     56 H61        12.1720   -2.3400    2.7420 hc        1 FR8      0.062200
     57 H62        10.9170   -1.9060    3.9600 hc        1 FR8      0.062200
     58 H9         15.5750    0.0320    3.6260 ha        1 FR8      0.129500
     59 H12        17.1300    1.7500    4.5440 ha        1 FR8      0.132500
     60 H10        16.7120    2.7390    6.7970 ha        1 FR8      0.134000
     61 H2         14.7350    2.0020    8.1300 ha        1 FR8      0.132500
     62 H161       11.8670    0.4330    4.1090 hc        1 FR8      0.042700
     63 H162       13.1280   -0.0030    2.8910 hc        1 FR8      0.042700
     64 H171       13.9580   -1.8370    4.4060 hc        1 FR8      0.052200
     65 H172       12.7040   -1.3900    5.6290 hc        1 FR8      0.052200
     66 H103       -3.6170   -0.9140    2.3620 hn        1 FR8      0.470133
     67 H7         13.1800    0.2870    7.2160 ha        1 FR8      0.129500
@<TRIPOS>BOND
     1    1    2 1   
     2    1    5 2   
     3    1   36 1   
     4    2    3 1   
     5    2    9 1   
     6    3    4 2   
     7    3   37 1   
     8    4    5 1   
     9    5    6 1   
    10    6    7 2   
    11    6    8 1   
    12    8   38 1   
    13    8   39 1   
    14    8   66 1   
    15    9   10 1   
    16    9   12 1   
    17    9   40 1   
    18   10   11 1   
    19   10   41 1   
    20   10   42 1   
    21   11   43 1   
    22   12   13 1   
    23   12   44 1   
    24   12   45 1   
    25   13   14 1   
    26   13   46 1   
    27   13   47 1   
    28   14   15 1   
    29   14   18 1   
    30   15   16 2   
    31   15   48 1   
    32   16   17 1   
    33   16   49 1   
    34   17   18 ar  
    35   17   19 ar  
    36   18   22 ar  
    37   19   20 ar  
    38   19   50 1   
    39   20   21 ar  
    40   20   51 1   
    41   21   22 ar  
    42   21   23 1   
    43   22   52 1   
    44   23   24 1   
    45   23   53 1   
    46   24   25 2   
    47   24   26 1   
    48   26   27 1   
    49   26   54 1   
    50   26   55 1   
    51   27   34 1   
    52   27   56 1   
    53   27   57 1   
    54   28   29 ar  
    55   28   33 ar  
    56   28   67 1   
    57   29   30 ar  
    58   29   35 1   
    59   30   31 ar  
    60   30   58 1   
    61   31   32 ar  
    62   31   59 1   
    63   32   33 ar  
    64   32   60 1   
    65   33   61 1   
    66   34   35 1   
    67   34   62 1   
    68   34   63 1   
    69   35   64 1   
    70   35   65 1   
@<TRIPOS>SUBSTRUCTURE
     1 FR8         1 TEMP              0 ****  ****    0 ROOT
