@<TRIPOS>MOLECULE
FR8
   67    70     1     0     0
SMALL
bcc


@<TRIPOS>ATOM
      1 C1         -0.0450   -0.1410   -0.4900 cc        1 FR8     -0.068600
      2 N2          1.2470    0.2160   -0.1740 na        1 FR8     -0.179900
      3 C3          1.3200    0.3360    1.2390 cc        1 FR8      0.477400
      4 N4          0.1400    0.0810    1.8150 nd        1 FR8     -0.677000
      5 C5         -0.7410   -0.2240    0.7500 cd        1 FR8      0.128800
      6 C8         -2.1210   -0.5660    0.9140 c         1 FR8      0.511600
      7 O9         -2.9800   -0.8320    0.0840 o         1 FR8     -0.443100
      8 N10        -2.5970   -0.6100    2.3590 n4        1 FR8     -0.747400
      9 C13         2.3560    0.3610   -1.1070 c3        1 FR8      0.044000
     10 C14         3.1160    1.6920   -0.9040 c3        1 FR8      0.118400
     11 O15         3.6910    1.6830    0.3900 oh        1 FR8     -0.617800
     12 C18         3.3220   -0.8300   -1.0350 c3        1 FR8     -0.138400
     13 C19         4.2100   -0.8810   -2.2870 c3        1 FR8      0.047300
     14 N22         4.9440   -2.0970   -2.4600 na        1 FR8     -0.080400
     15 C27         4.3400   -3.2890   -2.9390 cc        1 FR8     -0.142100
     16 C28         5.0670   -4.3950   -2.5400 cd        1 FR8     -0.141200
     17 C29         6.1510   -3.9200   -1.7010 ca        1 FR8     -0.119800
     18 C30         6.0260   -2.4850   -1.6350 ca        1 FR8     -0.025200
     19 C31         7.1940   -4.5440   -1.0250 ca        1 FR8     -0.054000
     20 C32         8.0920   -3.7820   -0.2950 ca        1 FR8     -0.166000
     21 C33         7.9780   -2.3670   -0.2270 ca        1 FR8      0.101600
     22 C34         6.9280   -1.7090   -0.9050 ca        1 FR8     -0.212000
     23 N1          8.8980   -1.5800    0.4830 n         1 FR8     -0.485100
     24 C2          9.7650   -2.0030    1.4900 c         1 FR8      0.665100
     25 O1          9.7800   -3.1730    1.9060 o         1 FR8     -0.575100
     26 C4         10.6880   -0.9310    2.0470 c3        1 FR8     -0.151400
     27 C6         11.5540   -1.4880    3.1560 c3        1 FR8     -0.076400
     28 C7         14.0310    0.6300    6.6220 ca        1 FR8     -0.127500
     29 C11        14.2610    0.0610    5.3650 ca        1 FR8     -0.083300
     30 C9         15.3780    0.4670    4.6230 ca        1 FR8     -0.127500
     31 C12        16.2480    1.4290    5.1310 ca        1 FR8     -0.127000
     32 C10        16.0130    1.9940    6.3860 ca        1 FR8     -0.129000
     33 C15        14.9040    1.5920    7.1300 ca        1 FR8     -0.127000
     34 C16        12.4690   -0.4180    3.7100 c3        1 FR8     -0.077400
     35 C17        13.3390   -0.9740    4.8220 c3        1 FR8     -0.035100
     36 H1         -0.4070   -0.3110   -1.5090 h4        1 FR8      0.217000
     37 H3          2.2590    0.6240    1.7450 h5        1 FR8      0.120100
     38 H101       -2.0430   -1.2980    2.8790 hn        1 FR8      0.470133
     39 H102       -2.4580    0.3080    2.7920 hn        1 FR8      0.470133
     40 H13         1.8990    0.4030   -2.1440 h1        1 FR8      0.082700
     41 H141        2.4190    2.5670   -1.0030 h1        1 FR8      0.055700
     42 H142        3.9120    1.7580   -1.6940 h1        1 FR8      0.055700
     43 H15         4.3050    2.4280    0.4330 ho        1 FR8      0.432000
     44 H181        2.7470   -1.7900   -0.9500 hc        1 FR8      0.080700
     45 H182        3.9650   -0.7330   -0.1200 hc        1 FR8      0.080700
     46 H191        3.5690   -0.7370   -3.2040 h1        1 FR8      0.059200
     47 H192        4.9570   -0.0370   -2.2380 h1        1 FR8      0.059200
     48 H27         3.4630   -3.2290   -3.5860 h4        1 FR8      0.161000
     49 H28         4.8860   -5.4330   -2.8090 ha        1 FR8      0.164000
     50 H31         7.3100   -5.6380   -1.0730 ha        1 FR8      0.147000
     51 H32         8.9110   -4.2900    0.2430 ha        1 FR8      0.176000
     52 H34         6.8240   -0.6160   -0.8750 ha        1 FR8      0.125000
     53 HN1         8.9080   -0.6130    0.2520 hn        1 FR8      0.312500
     54 H41        10.0740   -0.0770    2.4380 hc        1 FR8      0.065200
     55 H42        11.3360   -0.5410    1.2180 hc        1 FR8      0.065200
     56 H61        10.9010   -1.8980    3.9710 hc        1 FR8      0.062200
     57 H62        12.1580   -2.3480    2.7620 hc        1 FR8      0.062200
     58 H9         15.5670    0.0190    3.6360 ha        1 FR8      0.129500
     59 H12        17.1250    1.7400    4.5440 ha        1 FR8      0.132500
     60 H10        16.7020    2.7510    6.7870 ha        1 FR8      0.134000
     61 H2         14.7180    2.0320    8.1200 ha        1 FR8      0.132500
     62 H161       11.8600    0.4380    4.1030 hc        1 FR8      0.042700
     63 H162       13.1230   -0.0140    2.8930 hc        1 FR8      0.042700
     64 H171       13.9410   -1.8370    4.4270 hc        1 FR8      0.052200
     65 H172       12.6840   -1.3750    5.6410 hc        1 FR8      0.052200
     66 H103       -3.5890   -0.8640    2.3960 hn        1 FR8      0.470133
     67 H7         13.1610    0.3140    7.2160 ha        1 FR8      0.129500
@<TRIPOS>BOND
     1    1    2 1   
     2    1    5 2   
     3    1   36 1   
     4    2    3 1   
     5    2    9 1   
     6    3    4 2   
     7    3   37 1   
     8    4    5 1   
     9    5    6 1   
    10    6    7 2   
    11    6    8 1   
    12    8   38 1   
    13    8   39 1   
    14    8   66 1   
    15    9   10 1   
    16    9   12 1   
    17    9   40 1   
    18   10   11 1   
    19   10   41 1   
    20   10   42 1   
    21   11   43 1   
    22   12   13 1   
    23   12   44 1   
    24   12   45 1   
    25   13   14 1   
    26   13   46 1   
    27   13   47 1   
    28   14   15 1   
    29   14   18 1   
    30   15   16 2   
    31   15   48 1   
    32   16   17 1   
    33   16   49 1   
    34   17   18 ar  
    35   17   19 ar  
    36   18   22 ar  
    37   19   20 ar  
    38   19   50 1   
    39   20   21 ar  
    40   20   51 1   
    41   21   22 ar  
    42   21   23 1   
    43   22   52 1   
    44   23   24 1   
    45   23   53 1   
    46   24   25 2   
    47   24   26 1   
    48   26   27 1   
    49   26   54 1   
    50   26   55 1   
    51   27   34 1   
    52   27   56 1   
    53   27   57 1   
    54   28   29 ar  
    55   28   33 ar  
    56   28   67 1   
    57   29   30 ar  
    58   29   35 1   
    59   30   31 ar  
    60   30   58 1   
    61   31   32 ar  
    62   31   59 1   
    63   32   33 ar  
    64   32   60 1   
    65   33   61 1   
    66   34   35 1   
    67   34   62 1   
    68   34   63 1   
    69   35   64 1   
    70   35   65 1   
@<TRIPOS>SUBSTRUCTURE
     1 FR8         1 TEMP              0 ****  ****    0 ROOT
