@<TRIPOS>MOLECULE
FR9
   61    64     1     0     0
SMALL
bcc


@<TRIPOS>ATOM
      1 C1         -0.3620   -0.2140   -0.4450 cc        1 FR9     -0.073600
      2 N2          0.8310    0.0030    0.2140 na        1 FR9     -0.190900
      3 C3          0.5840   -0.1680    1.6010 cc        1 FR9      0.470400
      4 N4         -0.6970   -0.4730    1.8380 nd        1 FR9     -0.667000
      5 C5         -1.3170   -0.5090    0.5670 cd        1 FR9      0.139800
      6 C8         -2.7060   -0.7980    0.3470 c         1 FR9      0.507600
      7 O9         -3.3370   -0.8680   -0.6990 o         1 FR9     -0.430100
      8 N10        -3.5150   -1.0550    1.6060 n4        1 FR9     -0.745400
      9 C13         2.1100    0.3230   -0.4000 c3        1 FR9      0.046000
     10 C14         2.7500    1.5880    0.2180 c3        1 FR9      0.116400
     11 O15         3.0730    1.3040    1.5670 oh        1 FR9     -0.617800
     12 C18         3.0940   -0.8580   -0.3390 c3        1 FR9     -0.126400
     13 C19         4.2460   -0.6430   -1.3320 c3        1 FR9      0.052300
     14 N22         4.9320   -1.8430   -1.7050 na        1 FR9     -0.088400
     15 C27         4.3220   -2.9280   -2.3660 cc        1 FR9     -0.097100
     16 C28         5.2060   -3.9910   -2.4710 cd        1 FR9     -0.155200
     17 C29         6.4380   -3.5820   -1.8340 ca        1 FR9     -0.078800
     18 C30         6.2330   -2.2300   -1.3500 ca        1 FR9     -0.020200
     19 C31         7.6680   -4.2040   -1.6460 ca        1 FR9     -0.044000
     20 C32         8.6900   -3.5170   -1.0090 ca        1 FR9     -0.153000
     21 C33         8.4940   -2.1910   -0.5510 ca        1 FR9      0.028600
     22 C34         7.2600   -1.5330   -0.7020 ca        1 FR9     -0.158000
     23 N1          9.5690   -1.4620    0.0410 n         1 FR9     -0.424100
     24 C2         10.5490   -2.0740    0.7700 c         1 FR9      0.641100
     25 O1         10.6540   -3.2560    1.1130 o         1 FR9     -0.479100
     26 N3         11.7290   -1.2110    1.2360 n4        1 FR9     -0.675800
     27 C6         11.3360   -0.2100    2.2820 c3        1 FR9      0.181100
     28 C7         12.9860    1.6740    2.3210 ca        1 FR9     -0.099000
     29 C11        12.5380    0.4570    2.8520 ca        1 FR9     -0.201300
     30 C9         13.2020   -0.1190    3.9430 ca        1 FR9     -0.099000
     31 C12        14.3090    0.5210    4.4980 ca        1 FR9     -0.116000
     32 C10        14.7550    1.7340    3.9670 ca        1 FR9     -0.070000
     33 C15        14.0920    2.3090    2.8810 ca        1 FR9     -0.116000
     34 H1         -0.4890   -0.1520   -1.5310 h4        1 FR9      0.219000
     35 H3          1.3840   -0.0320    2.3490 h5        1 FR9      0.115100
     36 H101       -4.4920   -1.2520    1.3620 hn        1 FR9      0.473800
     37 H102       -3.4700   -0.2330    2.2160 hn        1 FR9      0.473800
     38 H13         1.8920    0.5660   -1.4860 h1        1 FR9      0.086700
     39 H141        2.0470    2.4610    0.1540 h1        1 FR9      0.055700
     40 H142        3.6850    1.8200   -0.3610 h1        1 FR9      0.055700
     41 H15         3.3700    2.1320    1.9670 ho        1 FR9      0.433000
     42 H181        2.5580   -1.8140   -0.5810 hc        1 FR9      0.081200
     43 H182        3.5000   -0.9480    0.7030 hc        1 FR9      0.081200
     44 H191        3.8380   -0.1760   -2.2770 h1        1 FR9      0.062700
     45 H192        4.9930    0.0710   -0.8820 h1        1 FR9      0.062700
     46 H27         3.2970   -2.8390   -2.7350 h4        1 FR9      0.173000
     47 H28         5.0250   -4.9520   -2.9470 ha        1 FR9      0.181000
     48 H31         7.8310   -5.2330   -2.0050 ha        1 FR9      0.167000
     49 H32         9.6580   -4.0220   -0.8580 ha        1 FR9      0.160000
     50 H34         7.1020   -0.5070   -0.3420 ha        1 FR9      0.135000
     51 HN1         9.5620   -0.4750   -0.0870 hn        1 FR9      0.343500
     52 HN3        12.4230   -1.8600    1.6420 hn        1 FR9      0.466300
     53 H61        10.7690   -0.7680    3.0840 hx        1 FR9      0.102200
     54 H62        10.6490    0.5430    1.8010 hx        1 FR9      0.102200
     55 H9         12.8450   -1.0670    4.3740 ha        1 FR9      0.138000
     56 H12        14.8290    0.0700    5.3590 ha        1 FR9      0.164000
     57 H10        15.6300    2.2390    4.4100 ha        1 FR9      0.166000
     58 H2         14.4420    3.2690    2.4680 ha        1 FR9      0.164000
     59 H103       -3.1180   -1.8540    2.1120 hn        1 FR9      0.473800
     60 H321       12.1710   -0.7330    0.4450 hn        1 FR9      0.466300
     61 H7         12.4600    2.1390    1.4740 ha        1 FR9      0.138000
@<TRIPOS>BOND
     1    1    2 1   
     2    1    5 2   
     3    1   34 1   
     4    2    3 1   
     5    2    9 1   
     6    3    4 2   
     7    3   35 1   
     8    4    5 1   
     9    5    6 1   
    10    6    7 2   
    11    6    8 1   
    12    8   36 1   
    13    8   37 1   
    14    8   59 1   
    15    9   10 1   
    16    9   12 1   
    17    9   38 1   
    18   10   11 1   
    19   10   39 1   
    20   10   40 1   
    21   11   41 1   
    22   12   13 1   
    23   12   42 1   
    24   12   43 1   
    25   13   14 1   
    26   13   44 1   
    27   13   45 1   
    28   14   15 1   
    29   14   18 1   
    30   15   16 2   
    31   15   46 1   
    32   16   17 1   
    33   16   47 1   
    34   17   18 ar  
    35   17   19 ar  
    36   18   22 ar  
    37   19   20 ar  
    38   19   48 1   
    39   20   21 ar  
    40   20   49 1   
    41   21   22 ar  
    42   21   23 1   
    43   22   50 1   
    44   23   24 1   
    45   23   51 1   
    46   24   25 2   
    47   24   26 1   
    48   26   27 1   
    49   26   52 1   
    50   26   60 1   
    51   27   29 1   
    52   27   53 1   
    53   27   54 1   
    54   28   29 ar  
    55   28   33 ar  
    56   28   61 1   
    57   29   30 ar  
    58   30   31 ar  
    59   30   55 1   
    60   31   32 ar  
    61   31   56 1   
    62   32   33 ar  
    63   32   57 1   
    64   33   58 1   
@<TRIPOS>SUBSTRUCTURE
     1 FR9         1 TEMP              0 ****  ****    0 ROOT
