@<TRIPOS>MOLECULE
FR9
   61    64     1     0     0
SMALL
bcc


@<TRIPOS>ATOM
      1 C1         -0.3600   -0.2020   -0.4460 cc        1 FR9     -0.073600
      2 N2          0.8340    0.0180    0.2100 na        1 FR9     -0.190900
      3 C3          0.5870   -0.1330    1.5990 cc        1 FR9      0.470400
      4 N4         -0.6950   -0.4300    1.8400 nd        1 FR9     -0.667000
      5 C5         -1.3160   -0.4800    0.5710 cd        1 FR9      0.139800
      6 C8         -2.7060   -0.7670    0.3540 c         1 FR9      0.507600
      7 O9         -3.3380   -0.8480   -0.6900 o         1 FR9     -0.430100
      8 N10        -3.5150   -1.0060    1.6160 nz        1 FR9     -0.745400
      9 C13         2.1140    0.3260   -0.4080 c3        1 FR9      0.046000
     10 C14         2.7600    1.5950    0.1930 c3        1 FR9      0.116400
     11 O15         3.0820    1.3280    1.5460 oh        1 FR9     -0.617800
     12 C18         3.0930   -0.8580   -0.3330 c3        1 FR9     -0.126400
     13 C19         4.2450   -0.6620   -1.3310 c3        1 FR9      0.052300
     14 N22         4.9260   -1.8690   -1.6880 na        1 FR9     -0.088400
     15 C27         4.3100   -2.9610   -2.3330 cc        1 FR9     -0.097100
     16 C28         5.1900   -4.0290   -2.4230 cd        1 FR9     -0.155200
     17 C29         6.4240   -3.6170   -1.7940 ca        1 FR9     -0.078800
     18 C30         6.2250   -2.2570   -1.3290 ca        1 FR9     -0.020200
     19 C31         7.6510   -4.2410   -1.5980 ca        1 FR9     -0.044000
     20 C32         8.6770   -3.5490   -0.9720 ca        1 FR9     -0.153000
     21 C33         8.4870   -2.2160   -0.5330 ca        1 FR9      0.028600
     22 C34         7.2550   -1.5560   -0.6920 ca        1 FR9     -0.157000
     23 N1          9.5660   -1.4840    0.0480 ns        1 FR9     -0.424100
     24 C2         10.5430   -2.0890    0.7850 c         1 FR9      0.641100
     25 O1         10.6440   -3.2660    1.1450 o         1 FR9     -0.479100
     26 N3         11.7290   -1.2250    1.2370 ny        1 FR9     -0.675800
     27 C6         11.3400   -0.2060    2.2680 c3        1 FR9      0.181100
     28 C7         12.9990    1.6700    2.2780 ca        1 FR9     -0.099000
     29 C11        12.5460    0.4640    2.8280 ca        1 FR9     -0.201300
     30 C9         13.2070   -0.0990    3.9270 ca        1 FR9     -0.099000
     31 C12        14.3170    0.5440    4.4720 ca        1 FR9     -0.116000
     32 C10        14.7690    1.7460    3.9230 ca        1 FR9     -0.070000
     33 C15        14.1090    2.3080    2.8280 ca        1 FR9     -0.116000
     34 H1         -0.4870   -0.1530   -1.5320 h4        1 FR9      0.219000
     35 H3          1.3880    0.0080    2.3460 h5        1 FR9      0.115100
     36 H101       -3.1210   -1.8000    2.1320 hn        1 FR9      0.473800
     37 H102       -3.4670   -0.1750    2.2160 hn        1 FR9      0.473800
     38 H13         1.8970    0.5560   -1.4970 h1        1 FR9      0.086700
     39 H141        3.6950    1.8160   -0.3890 h1        1 FR9      0.055700
     40 H142        2.0610    2.4710    0.1190 h1        1 FR9      0.055700
     41 H15         3.3830    2.1590    1.9350 ho        1 FR9      0.433000
     42 H181        2.5520   -1.8160   -0.5620 hc        1 FR9      0.081700
     43 H182        3.5000   -0.9370    0.7090 hc        1 FR9      0.081700
     44 H191        4.9950    0.0550   -0.8910 h1        1 FR9      0.062700
     45 H192        3.8370   -0.2060   -2.2810 h1        1 FR9      0.062700
     46 H27         3.2850   -2.8730   -2.7010 h4        1 FR9      0.173000
     47 H28         5.0040   -4.9960   -2.8860 ha        1 FR9      0.181000
     48 H31         7.8100   -5.2760   -1.9430 ha        1 FR9      0.167000
     49 H32         9.6430   -4.0560   -0.8150 ha        1 FR9      0.160000
     50 H34         7.1030   -0.5240   -0.3460 ha        1 FR9      0.135000
     51 HN1         9.5630   -0.4980   -0.0950 hn        1 FR9      0.343500
     52 HN3        12.1710   -0.7610    0.4390 hn        1 FR9      0.466300
     53 H61        10.7710   -0.7490    3.0780 hx        1 FR9      0.102200
     54 H62        10.6570    0.5430    1.7760 hx        1 FR9      0.102200
     55 H9         12.8450   -1.0390    4.3730 ha        1 FR9      0.138000
     56 H12        14.8350    0.1040    5.3400 ha        1 FR9      0.164000
     57 H10        15.6460    2.2540    4.3570 ha        1 FR9      0.166000
     58 H2         14.4640    3.2600    2.4000 ha        1 FR9      0.164000
     59 H103       -4.4930   -1.2010    1.3750 hn        1 FR9      0.473800
     60 H321       12.4190   -1.8710    1.6530 hn        1 FR9      0.466300
     61 H7         12.4750    2.1250    1.4240 ha        1 FR9      0.138000
@<TRIPOS>BOND
     1    1    2 1   
     2    1    5 2   
     3    1   34 1   
     4    2    3 1   
     5    2    9 1   
     6    3    4 2   
     7    3   35 1   
     8    4    5 1   
     9    5    6 1   
    10    6    7 2   
    11    6    8 1   
    12    8   36 1   
    13    8   37 1   
    14    8   59 1   
    15    9   10 1   
    16    9   12 1   
    17    9   38 1   
    18   10   11 1   
    19   10   39 1   
    20   10   40 1   
    21   11   41 1   
    22   12   13 1   
    23   12   42 1   
    24   12   43 1   
    25   13   14 1   
    26   13   44 1   
    27   13   45 1   
    28   14   15 1   
    29   14   18 1   
    30   15   16 2   
    31   15   46 1   
    32   16   17 1   
    33   16   47 1   
    34   17   18 ar  
    35   17   19 ar  
    36   18   22 ar  
    37   19   20 ar  
    38   19   48 1   
    39   20   21 ar  
    40   20   49 1   
    41   21   22 ar  
    42   21   23 1   
    43   22   50 1   
    44   23   24 1   
    45   23   51 1   
    46   24   25 2   
    47   24   26 1   
    48   26   27 1   
    49   26   52 1   
    50   26   60 1   
    51   27   29 1   
    52   27   53 1   
    53   27   54 1   
    54   28   29 ar  
    55   28   33 ar  
    56   28   61 1   
    57   29   30 ar  
    58   30   31 ar  
    59   30   55 1   
    60   31   32 ar  
    61   31   56 1   
    62   32   33 ar  
    63   32   57 1   
    64   33   58 1   
@<TRIPOS>SUBSTRUCTURE
     1 FR9         1 TEMP              0 ****  ****    0 ROOT
