@<TRIPOS>MOLECULE
FR9
   62    65     1     0     0
SMALL
bcc


@<TRIPOS>ATOM
      1 C1         -0.4450   -1.1510   -0.5300 cc        1 FR9     -0.078600
      2 N2          0.6640   -0.4530   -0.0850 na        1 FR9     -0.205900
      3 C3          0.3500    0.0540    1.2040 cc        1 FR9      0.460400
      4 N4         -0.8850   -0.2940    1.5800 nd        1 FR9     -0.652000
      5 C5         -1.4080   -1.0520    0.5080 cd        1 FR9      0.155800
      6 C8         -2.7300   -1.6260    0.4780 c         1 FR9      0.502600
      7 O9         -3.2450   -2.3310   -0.3780 o         1 FR9     -0.414100
      8 N10        -3.6030   -1.3080    1.6730 n4        1 FR9     -0.742400
      9 C13         1.8940   -0.2270   -0.8200 c3        1 FR9      0.046000
     10 C14         2.2150    1.2820   -0.9570 c3        1 FR9      0.114400
     11 O15         2.6430    1.7560    0.3050 oh        1 FR9     -0.621800
     12 C18         3.0880   -0.9740   -0.1900 c3        1 FR9     -0.110400
     13 C19         4.3060   -0.8920   -1.1150 c3        1 FR9      0.034300
     14 N22         5.3380   -1.8610   -0.8300 na        1 FR9     -0.046400
     15 C27         5.1290   -3.2370   -0.7000 cc        1 FR9     -0.032100
     16 C28         6.3500   -3.9170   -0.6040 cd        1 FR9     -0.160200
     17 C29         7.3820   -2.9330   -0.7050 ca        1 FR9     -0.030800
     18 C30         6.7210   -1.6350   -0.8470 ca        1 FR9     -0.058200
     19 C31         8.7790   -3.0100   -0.7300 ca        1 FR9     -0.025000
     20 C32         9.5240   -1.8570   -0.8850 ca        1 FR9     -0.191000
     21 C33         8.8710   -0.5980   -0.9990 ca        1 FR9     -0.138400
     22 C34         7.4730   -0.4650   -0.9780 ca        1 FR9     -0.056000
     23 N1          9.6970    0.5880   -1.2310 n4        1 FR9     -0.496200
     24 C2         10.2910    1.1370    0.0440 c         1 FR9      0.479100
     25 O1         10.0980    2.3090    0.3250 o         1 FR9     -0.311100
     26 N3         11.0650    0.2210    0.9090 n4        1 FR9     -0.660800
     27 C6         11.3690    0.8300    2.3010 c3        1 FR9      0.218100
     28 C7         13.7290    0.2560    2.8510 ca        1 FR9     -0.081000
     29 C11        12.3570   -0.0290    2.9720 ca        1 FR9     -0.238300
     30 C9         11.9320   -1.0790    3.8060 ca        1 FR9     -0.081000
     31 C12        12.8680   -1.8250    4.5130 ca        1 FR9     -0.117500
     32 C10        14.2320   -1.5360    4.3950 ca        1 FR9     -0.028000
     33 C15        14.6590   -0.4960    3.5630 ca        1 FR9     -0.117500
     34 H1         -0.5100   -1.6530   -1.5020 h4        1 FR9      0.222000
     35 H3          1.0680    0.6670    1.7730 h5        1 FR9      0.108100
     36 H101       -3.7210   -0.2910    1.7540 hn        1 FR9      0.477800
     37 H102       -3.1570   -1.6520    2.5310 hn        1 FR9      0.477800
     38 H13         1.7270   -0.6250   -1.8680 h1        1 FR9      0.089700
     39 H141        1.3190    1.8480   -1.3270 h1        1 FR9      0.060200
     40 H142        3.0510    1.3960   -1.6990 h1        1 FR9      0.060200
     41 H15         2.4680    2.7070    0.3330 ho        1 FR9      0.439000
     42 H181        3.3340   -0.5080    0.8020 hc        1 FR9      0.083200
     43 H182        2.8020   -2.0430   -0.0060 hc        1 FR9      0.083200
     44 H191        3.9760   -1.0420   -2.1860 h1        1 FR9      0.073700
     45 H192        4.7580    0.1380   -1.0260 h1        1 FR9      0.073700
     46 H27         4.1160   -3.6560   -0.6870 h4        1 FR9      0.204000
     47 H28         6.4840   -4.9930   -0.4880 ha        1 FR9      0.206000
     48 H31         9.2760   -3.9940   -0.6520 ha        1 FR9      0.193000
     49 H32        10.6170   -1.9420   -0.9900 ha        1 FR9      0.142000
     50 H34         6.9760    0.5150   -1.0760 ha        1 FR9      0.161000
     51 HN1         9.1220    1.3420   -1.6510 hn        1 FR9      0.499300
     52 HN3        10.5500   -0.6680    1.0400 hn        1 FR9      0.486300
     53 H61        11.7570    1.8740    2.1220 hx        1 FR9      0.124200
     54 H62        10.3830    0.8750    2.8460 hx        1 FR9      0.124200
     55 H9         10.8580   -1.2920    3.9260 ha        1 FR9      0.142500
     56 H12        12.5350   -2.6380    5.1820 ha        1 FR9      0.180500
     57 H10        14.9720   -2.1230    4.9680 ha        1 FR9      0.185000
     58 H2         15.7360   -0.2620    3.4820 ha        1 FR9      0.180500
     59 H103       -4.5240   -1.7520    1.5630 hn        1 FR9      0.477800
     60 H121       10.4550    0.3480   -1.8930 hn        1 FR9      0.499300
     61 H321       11.9710    0.0010    0.4610 hn        1 FR9      0.486300
     62 H7         14.0720    1.0930    2.2230 ha        1 FR9      0.142500
@<TRIPOS>BOND
     1    1    2 1   
     2    1    5 2   
     3    1   34 1   
     4    2    3 1   
     5    2    9 1   
     6    3    4 2   
     7    3   35 1   
     8    4    5 1   
     9    5    6 1   
    10    6    7 2   
    11    6    8 1   
    12    8   36 1   
    13    8   37 1   
    14    8   59 1   
    15    9   10 1   
    16    9   12 1   
    17    9   38 1   
    18   10   11 1   
    19   10   39 1   
    20   10   40 1   
    21   11   41 1   
    22   12   13 1   
    23   12   42 1   
    24   12   43 1   
    25   13   14 1   
    26   13   44 1   
    27   13   45 1   
    28   14   15 1   
    29   14   18 1   
    30   15   16 2   
    31   15   46 1   
    32   16   17 1   
    33   16   47 1   
    34   17   18 ar  
    35   17   19 ar  
    36   18   22 ar  
    37   19   20 ar  
    38   19   48 1   
    39   20   21 ar  
    40   20   49 1   
    41   21   22 ar  
    42   21   23 1   
    43   22   50 1   
    44   23   24 1   
    45   23   51 1   
    46   23   60 1   
    47   24   25 2   
    48   24   26 1   
    49   26   27 1   
    50   26   52 1   
    51   26   61 1   
    52   27   29 1   
    53   27   53 1   
    54   27   54 1   
    55   28   29 ar  
    56   28   33 ar  
    57   28   62 1   
    58   29   30 ar  
    59   30   31 ar  
    60   30   55 1   
    61   31   32 ar  
    62   31   56 1   
    63   32   33 ar  
    64   32   57 1   
    65   33   58 1   
@<TRIPOS>SUBSTRUCTURE
     1 FR9         1 TEMP              0 ****  ****    0 ROOT
