@<TRIPOS>MOLECULE
FR9
   59    62     1     0     0
SMALL
bcc


@<TRIPOS>ATOM
      1 C1          1.1370    0.5900    5.8030 cc        1 FR9     -0.166600
      2 N2          0.7110    0.2680    4.5180 na        1 FR9     -0.214900
      3 C3          1.2230   -1.0140    4.2290 cc        1 FR9      0.384400
      4 N4          1.9350   -1.5040    5.2600 nd        1 FR9     -0.647000
      5 C5          1.8930   -0.5150    6.2540 cd        1 FR9      0.234800
      6 C8          2.5340   -0.5880    7.5810 c         1 FR9      0.603600
      7 O9          2.4530    0.3700    8.3830 o         1 FR9     -0.634100
      8 N10         3.2210   -1.7230    7.9210 n         1 FR9     -0.659000
      9 C13        -0.0680    1.1070    3.6390 c3        1 FR9      0.015000
     10 C14         0.8170    1.8440    2.6000 c3        1 FR9      0.111400
     11 O15         1.3380    0.9780    1.6170 oh        1 FR9     -0.596800
     12 C18        -1.1750    0.3240    2.9150 c3        1 FR9     -0.126400
     13 C19        -2.3000    1.2750    2.4910 c3        1 FR9      0.055300
     14 N22        -3.1720    0.7540    1.4850 na        1 FR9     -0.089400
     15 C27        -4.4920    0.3090    1.6880 cc        1 FR9     -0.111100
     16 C28        -4.9810   -0.2810    0.5290 cd        1 FR9     -0.172200
     17 C29        -3.9160   -0.2510   -0.4510 ca        1 FR9     -0.110800
     18 C30        -2.7860    0.3820    0.1870 ca        1 FR9     -0.023200
     19 C31        -3.7930   -0.6810   -1.7700 ca        1 FR9     -0.066000
     20 C32        -2.5970   -0.5020   -2.4440 ca        1 FR9     -0.158000
     21 C33        -1.4770    0.1070   -1.8140 ca        1 FR9      0.082600
     22 C34        -1.5680    0.5510   -0.4800 ca        1 FR9     -0.207000
     23 N1         -0.2740    0.3470   -2.5100 n         1 FR9     -0.455100
     24 C2          0.2430   -0.5300   -3.4900 c         1 FR9      0.745100
     25 O1         -0.4510   -1.4340   -4.0100 o         1 FR9     -0.622100
     26 N3          1.6030   -0.3680   -3.8580 n         1 FR9     -0.528900
     27 C6          2.0690   -1.0340   -5.0520 c3        1 FR9      0.117300
     28 C7          2.9670    0.3500   -6.9550 ca        1 FR9     -0.115000
     29 C11         1.8810   -0.2690   -6.3310 ca        1 FR9     -0.136300
     30 C9          0.6110   -0.1980   -6.9160 ca        1 FR9     -0.115000
     31 C12         0.4320    0.4880   -8.1150 ca        1 FR9     -0.133500
     32 C10         1.5190    1.1050   -8.7370 ca        1 FR9     -0.122000
     33 C15         2.7850    1.0350   -8.1570 ca        1 FR9     -0.133500
     34 H1          0.8970    1.5250    6.3110 h4        1 FR9      0.200000
     35 H3          1.0260   -1.5220    3.2780 h5        1 FR9      0.071100
     36 H101        3.6480   -1.7780    8.8120 hn        1 FR9      0.320000
     37 H102        3.2920   -2.4900    7.3040 hn        1 FR9      0.320000
     38 H13        -0.5470    1.9030    4.2860 h1        1 FR9      0.074700
     39 H141        0.1780    2.5700    2.0270 h1        1 FR9      0.062700
     40 H142        1.6430    2.4010    3.1180 h1        1 FR9      0.062700
     41 H15         1.9880    0.4050    2.0440 ho        1 FR9      0.411000
     42 H181       -1.6000   -0.4740    3.5780 hc        1 FR9      0.078200
     43 H182       -0.7300   -0.1820    2.0150 hc        1 FR9      0.078200
     44 H191       -1.8460    2.2270    2.0870 h1        1 FR9      0.055200
     45 H192       -2.9190    1.5390    3.3960 h1        1 FR9      0.055200
     46 H27        -4.9860    0.4740    2.6470 h4        1 FR9      0.164000
     47 H28        -5.9740   -0.6890    0.3740 ha        1 FR9      0.158000
     48 H31        -4.6450   -1.1600   -2.2750 ha        1 FR9      0.139000
     49 H32        -2.5090   -0.8540   -3.4850 ha        1 FR9      0.168000
     50 H34        -0.7120    1.0140    0.0360 ha        1 FR9      0.142000
     51 HN1         0.3910    0.8860   -1.9950 hn        1 FR9      0.308500
     52 HN3         1.9910    0.5410   -3.7250 hn        1 FR9      0.288500
     53 H61         1.5390   -2.0270   -5.1390 h1        1 FR9      0.076700
     54 H62         3.1690   -1.2320   -4.8910 h1        1 FR9      0.076700
     55 H9         -0.2410   -0.6910   -6.4170 ha        1 FR9      0.142500
     56 H12        -0.5670    0.5420   -8.5720 ha        1 FR9      0.133500
     57 H10         1.3770    1.6450   -9.6840 ha        1 FR9      0.132000
     58 H2          3.6430    1.5180   -8.6470 ha        1 FR9      0.133500
     59 H7          3.9680    0.2940   -6.5030 ha        1 FR9      0.142500
@<TRIPOS>BOND
     1    1    2 1   
     2    1    5 2   
     3    1   34 1   
     4    2    3 1   
     5    2    9 1   
     6    3    4 2   
     7    3   35 1   
     8    4    5 1   
     9    5    6 1   
    10    6    7 2   
    11    6    8 1   
    12    8   36 1   
    13    8   37 1   
    14    9   10 1   
    15    9   12 1   
    16    9   38 1   
    17   10   11 1   
    18   10   39 1   
    19   10   40 1   
    20   11   41 1   
    21   12   13 1   
    22   12   42 1   
    23   12   43 1   
    24   13   14 1   
    25   13   44 1   
    26   13   45 1   
    27   14   15 1   
    28   14   18 1   
    29   15   16 2   
    30   15   46 1   
    31   16   17 1   
    32   16   47 1   
    33   17   18 ar  
    34   17   19 ar  
    35   18   22 ar  
    36   19   20 ar  
    37   19   48 1   
    38   20   21 ar  
    39   20   49 1   
    40   21   22 ar  
    41   21   23 1   
    42   22   50 1   
    43   23   24 1   
    44   23   51 1   
    45   24   25 2   
    46   24   26 1   
    47   26   27 1   
    48   26   52 1   
    49   27   29 1   
    50   27   53 1   
    51   27   54 1   
    52   28   29 ar  
    53   28   33 ar  
    54   28   59 1   
    55   29   30 ar  
    56   30   31 ar  
    57   30   55 1   
    58   31   32 ar  
    59   31   56 1   
    60   32   33 ar  
    61   32   57 1   
    62   33   58 1   
@<TRIPOS>SUBSTRUCTURE
     1 FR9         1 TEMP              0 ****  ****    0 ROOT
