@<TRIPOS>MOLECULE
FRA
   53    56     1     0     0
SMALL
bcc


@<TRIPOS>ATOM
      1 C22         3.1340   -0.5020    8.1180 c3        1 FRA     -0.179100
      2 C1          2.0190   -0.5940    7.0980 c         1 FRA      0.664100
      3 O3          1.0200   -1.3060    7.3100 o         1 FRA     -0.594100
      4 N1          2.1940    0.1560    5.9450 n         1 FRA     -0.470100
      5 C2          1.3360    0.2400    4.8350 ca        1 FRA      0.052600
      6 C7          0.1940   -0.5670    4.6720 ca        1 FRA     -0.157000
      7 C6         -0.6010   -0.4530    3.5380 ca        1 FRA     -0.111500
      8 C5         -0.2950    0.4770    2.5240 ca        1 FRA      0.031600
      9 C4          0.8430    1.2970    2.6920 ca        1 FRA     -0.111500
     10 C3          1.6410    1.1770    3.8180 ca        1 FRA     -0.157000
     11 N5         -1.1000    0.5880    1.3670 n         1 FRA     -0.419600
     12 C11        -2.4760    0.2570    1.3050 c         1 FRA      0.710500
     13 C10        -2.9890    0.4700   -0.1210 c3        1 FRA     -0.131700
     14 C9         -1.7750    0.9860   -0.9150 c3        1 FRA     -0.144700
     15 C8         -0.6240    1.0000    0.0900 c         1 FRA      0.705500
     16 O11        -3.1630   -0.1200    2.2600 o         1 FRA     -0.591500
     17 O8          0.5350    1.3490   -0.1470 o         1 FRA     -0.568500
     18 C12        -3.5220   -0.8160   -0.7430 c3        1 FRA     -0.053700
     19 C17        -3.9750   -0.4920   -2.1610 c3        1 FRA     -0.073900
     20 C16        -2.8200    0.0660   -2.9750 c3        1 FRA     -0.105400
     21 C13        -2.4200   -1.8660   -0.8070 c3        1 FRA     -0.073900
     22 C15        -1.5060    0.0750   -2.1470 c3        1 FRA      0.146400
     23 N15        -0.3960    0.6130   -2.9220 n         1 FRA     -0.528900
     24 C18         0.0360   -0.0700   -4.0670 c         1 FRA      0.715100
     25 O18        -0.6240   -0.8750   -4.7540 o         1 FRA     -0.622000
     26 O19         1.3030    0.2790   -4.4290 os        1 FRA     -0.386900
     27 C19         1.7800   -0.2800   -5.6670 c3        1 FRA      0.017400
     28 C20         3.2870    0.0950   -5.7720 c         1 FRA      0.922600
     29 O20         3.5910    0.9340   -6.6610 o         1 FRA     -0.820800
     30 O21         4.0930   -0.5030   -5.0140 o         1 FRA     -0.820800
     31 H221        3.2680    0.5510    8.4610 hc        1 FRA      0.065700
     32 H222        2.8640   -1.1380    8.9950 hc        1 FRA      0.065700
     33 H223        4.0930   -0.8720    7.6840 hc        1 FRA      0.065700
     34 HN1         3.0250    0.7010    5.8820 hn        1 FRA      0.314500
     35 H7         -0.0870   -1.3050    5.4420 ha        1 FRA      0.151500
     36 H6         -1.4890   -1.1010    3.4510 ha        1 FRA      0.162000
     37 H4          1.1270    2.0290    1.9170 ha        1 FRA      0.162000
     38 H3          2.5270    1.8260    3.9030 ha        1 FRA      0.151500
     39 H10        -3.8040    1.2400   -0.0860 hc        1 FRA      0.089700
     40 H9         -1.9420    2.0410   -1.2630 hc        1 FRA      0.103700
     41 H12        -4.3800   -1.1970   -0.1290 hc        1 FRA      0.066700
     42 H171       -4.3670   -1.4260   -2.6410 hc        1 FRA      0.044700
     43 H172       -4.8180    0.2460   -2.1280 hc        1 FRA      0.044700
     44 H161       -2.6580   -0.5560   -3.8960 hc        1 FRA      0.073200
     45 H162       -3.0510    1.1100   -3.3100 hc        1 FRA      0.073200
     46 H131       -2.0770   -2.1120    0.2320 hc        1 FRA      0.044700
     47 H132       -2.8370   -2.8070   -1.2500 hc        1 FRA      0.044700
     48 HN5         0.3430    1.0150   -2.3780 hn        1 FRA      0.327500
     49 H191        1.6510   -1.3900   -5.6440 h1        1 FRA      0.033700
     50 H192        1.1870    0.1630   -6.5040 h1        1 FRA      0.033700
     51 C14        -1.2550   -1.3680   -1.6430 c3        1 FRA     -0.105400
     52 H141       -1.1060   -2.0290   -2.5390 hc        1 FRA      0.073200
     53 H142       -0.3090   -1.3950   -1.0430 hc        1 FRA      0.073200
@<TRIPOS>BOND
     1    1    2 1   
     2    1   31 1   
     3    1   32 1   
     4    1   33 1   
     5    2    3 2   
     6    2    4 1   
     7    4    5 1   
     8    4   34 1   
     9    5    6 ar  
    10    5   10 ar  
    11    6    7 ar  
    12    6   35 1   
    13    7    8 ar  
    14    7   36 1   
    15    8    9 ar  
    16    8   11 1   
    17    9   10 ar  
    18    9   37 1   
    19   10   38 1   
    20   11   12 1   
    21   11   15 1   
    22   12   13 1   
    23   12   16 2   
    24   13   14 1   
    25   13   18 1   
    26   13   39 1   
    27   14   15 1   
    28   14   22 1   
    29   14   40 1   
    30   15   17 2   
    31   18   19 1   
    32   18   21 1   
    33   18   41 1   
    34   19   20 1   
    35   19   42 1   
    36   19   43 1   
    37   20   22 1   
    38   20   44 1   
    39   20   45 1   
    40   21   46 1   
    41   21   47 1   
    42   21   51 1   
    43   22   23 1   
    44   22   51 1   
    45   23   24 1   
    46   23   48 1   
    47   24   25 2   
    48   24   26 1   
    49   26   27 1   
    50   27   28 1   
    51   27   49 1   
    52   27   50 1   
    53   28   29 1   
    54   28   30 1   
    55   51   52 1   
    56   51   53 1   
@<TRIPOS>SUBSTRUCTURE
     1 FRA         1 TEMP              0 ****  ****    0 ROOT
