@<TRIPOS>MOLECULE
FRA
   53    54     1     0     0
SMALL
bcc


@<TRIPOS>ATOM
      1 C22        -8.8470   -0.6890   -0.6620 c3        1 FRA     -0.247000
      2 C1         -7.3510   -0.7900   -0.9310 c2        1 FRA      0.306000
      3 O3         -6.9520   -1.3770   -1.9090 o         1 FRA     -0.356000
      4 N1         -6.4220   -0.1490   -0.0520 n         1 FRA     -0.322000
      5 C2         -5.0080   -0.2050   -0.3340 c2        1 FRA      0.048000
      6 C7         -4.4220    0.7610   -1.1450 c1        1 FRA     -0.142000
      7 C6         -3.0480    0.7680   -1.3330 c1        1 FRA     -0.119000
      8 C5         -2.2530   -0.1950   -0.7080 c1        1 FRA      0.055000
      9 C4         -2.8360   -1.1580    0.1010 c1        1 FRA     -0.115000
     10 C3         -4.2150   -1.1650    0.2890 c2        1 FRA     -0.172000
     11 N5         -0.8210   -0.1930   -0.9100 n         1 FRA     -0.304000
     12 C11        -0.0900   -1.0030   -1.8870 c2        1 FRA      0.318000
     13 C10         1.3830   -0.4520   -1.9710 c3        1 FRA     -0.115000
     14 C9          1.5240    0.5510   -0.9620 c3        1 FRA     -0.170000
     15 C8          0.1490    0.6550   -0.2050 c2        1 FRA      0.326000
     16 O11        -0.5600   -1.8780   -2.5760 o         1 FRA     -0.332000
     17 O8         -0.0770    1.3360    0.7710 o         1 FRA     -0.315000
     18 C12         2.3390   -1.6040   -1.8280 c3        1 FRA     -0.093000
     19 C17         3.7090   -1.2530   -1.5420 c3        1 FRA     -0.152000
     20 C16         3.8630   -0.2250   -0.5150 c3        1 FRA     -0.172500
     21 C14         2.0570   -0.9490    0.8100 c3        1 FRA     -0.172500
     22 C13         1.8680   -2.2990   -0.5250 c3        1 FRA     -0.152000
     23 C15         2.6010    0.2640    0.0360 c3        1 FRA      0.113000
     24 N15         2.8090    1.3650    0.9010 n         1 FRA     -0.311000
     25 C18         3.7970    1.2800    1.9510 c2        1 FRA      0.428000
     26 O18         4.2300    0.1930    2.2940 o         1 FRA     -0.392000
     27 O19         4.1960    2.4570    2.6490 os        1 FRA     -0.306000
     28 C19         5.3690    2.2950    3.4270 c3        1 FRA     -0.070000
     29 C20         5.9860    3.6310    3.6800 c2        1 FRA      0.322000
     30 O20         5.6950    4.2680    4.7190 o         1 FRA     -0.576500
     31 O21         6.8070    4.1040    2.8670 o         1 FRA     -0.576500
     32 H221       -9.0340   -0.9840    0.2520 hc        1 FRA      0.103000
     33 H222       -9.1370    0.2420   -0.7710 hc        1 FRA      0.103000
     34 H223       -9.3310   -1.2590   -1.2950 hc        1 FRA      0.103000
     35 HN1        -6.7190    0.2420    0.7190 hn        1 FRA      0.224000
     36 H7         -4.9750    1.4320   -1.5810 ha        1 FRA      0.169000
     37 H6         -2.6380    1.4450   -1.9020 ha        1 FRA      0.162000
     38 H4         -2.2830   -1.8280    0.5360 ha        1 FRA      0.164000
     39 H3         -4.6260   -1.8410    0.8570 ha        1 FRA      0.124000
     40 H10         1.5170   -0.0400   -2.8440 hc        1 FRA      0.141000
     41 H9          1.7120    1.4020   -1.3900 hc        1 FRA      0.223000
     42 H12         2.2790   -2.2130   -2.5920 hc        1 FRA      0.099000
     43 H171        4.1810   -2.0590   -1.2470 hc        1 FRA      0.078000
     44 H172        4.1290   -0.9310   -2.3700 hc        1 FRA      0.078000
     45 H161        4.3490    0.5400   -0.9080 hc        1 FRA      0.112000
     46 H162        4.3990   -0.5930    0.2150 hc        1 FRA      0.112000
     47 H141        2.6930   -1.2310    1.4940 hc        1 FRA      0.112000
     48 H142        1.1930   -0.7400    1.2090 hc        1 FRA      0.112000
     49 H131        2.4400   -3.0680   -0.3200 hc        1 FRA      0.078000
     50 H132        0.9330   -2.5760   -0.6030 hc        1 FRA      0.078000
     51 HN5         2.2950    2.1110    0.8190 hn        1 FRA      0.219000
     52 H191        5.1390    1.8740    4.2820 h1        1 FRA      0.087500
     53 H192        6.0040    1.7290    2.9450 h1        1 FRA      0.087500
@<TRIPOS>BOND
     1    1    2 1   
     2    1   32 1   
     3    1   33 1   
     4    1   34 1   
     5    2    3 1   
     6    2    4 1   
     7    4    5 1   
     8    4   35 1   
     9    5    6 1   
    10    5   10 1   
    11    6   36 1   
    12    7    8 1   
    13    7   37 1   
    14    8   11 1   
    15    9   10 1   
    16    9   38 1   
    17   10   39 1   
    18   11   12 1   
    19   11   15 1   
    20   12   13 1   
    21   12   16 1   
    22   13   14 1   
    23   13   18 1   
    24   13   40 1   
    25   14   15 1   
    26   14   23 1   
    27   14   41 1   
    28   15   17 1   
    29   18   19 1   
    30   18   22 1   
    31   18   42 1   
    32   19   20 1   
    33   19   43 1   
    34   19   44 1   
    35   20   23 1   
    36   20   45 1   
    37   20   46 1   
    38   21   22 1   
    39   21   23 1   
    40   21   47 1   
    41   21   48 1   
    42   22   49 1   
    43   22   50 1   
    44   23   24 1   
    45   24   25 1   
    46   24   51 1   
    47   25   26 1   
    48   25   27 1   
    49   27   28 1   
    50   28   29 1   
    51   28   52 1   
    52   28   53 1   
    53   29   30 1   
    54   29   31 1   
@<TRIPOS>SUBSTRUCTURE
     1 FRA         1 TEMP              0 ****  ****    0 ROOT
