@<TRIPOS>MOLECULE
FRA
   53    53     1     0     0
SMALL
bcc


@<TRIPOS>ATOM
      1 C22        -0.3230   -1.2920   -0.8130 c2        1 FRA     -0.393000
      2 C1          0.8830    0.4940    0.0300 c2        1 FRA     -0.118000
      3 O3          0.8380   -0.6870   -0.6250 os        1 FRA      0.052000
      4 N1          2.0150    1.2560   -0.0620 nh        1 FRA     -0.233000
      5 C2          3.3120    0.7880   -0.1780 ca        1 FRA      0.068000
      6 C7          3.7640   -0.5140   -0.2710 ca        1 FRA     -0.207500
      7 C6          5.1970   -0.8220   -0.3840 ca        1 FRA     -0.088000
      8 C5          6.1330    0.1400   -0.7100 ca        1 FRA      0.035000
      9 C4          5.3780    1.3710   -1.0670 ca        1 FRA     -0.088000
     10 C3          4.5020    1.6710   -0.0550 ca        1 FRA     -0.207500
     11 N5          7.5220   -0.0090   -0.8350 n         1 FRA     -0.286000
     12 C11         8.0870   -1.2370   -1.2520 c2        1 FRA      0.292000
     13 C10         9.4910   -1.2780   -1.6250 c1        1 FRA     -0.064000
     14 C9          9.8260    0.9990   -0.8710 c3        1 FRA     -0.228000
     15 C8          8.3640    1.1030   -0.5220 c2        1 FRA      0.319000
     16 O11         7.3720   -2.2480   -1.4420 o         1 FRA     -0.375000
     17 O8          7.8680    2.1150   -0.0160 o         1 FRA     -0.276000
     18 C12        10.5380   -1.9600   -0.8960 c3        1 FRA     -0.185000
     19 C17        13.1410   -0.0190    0.4950 c2        1 FRA     -0.218000
     20 C16        12.1530    0.5440   -0.1950 c2        1 FRA     -0.189000
     21 C13        10.5570   -1.8210    0.6120 c3        1 FRA     -0.164000
     22 C15        10.7570    0.7730    0.3560 c3        1 FRA      0.147000
     23 N15        10.7130    2.0010    1.1590 n         1 FRA     -0.351000
     24 C18        11.4540    2.1220    2.3330 c2        1 FRA      0.397000
     25 O18        11.8370    1.2140    3.1000 o         1 FRA     -0.424000
     26 O19        11.7310    3.3720    2.8190 oh        1 FRA     -0.311000
     27 C19        12.2700    5.5810   -1.7940 c1        1 FRA     -0.041000
     28 C20        11.8000    4.4870   -0.9460 c2        1 FRA      0.271000
     29 O20        11.4480    4.7290    0.2570 o         1 FRA     -0.609500
     30 O21        11.6980    3.3130   -1.4350 o         1 FRA     -0.609500
     31 H221       -0.0610    0.9990    0.2970 h5        1 FRA      0.149000
     32 H222       -0.2580   -2.3820   -0.8010 h4        1 FRA      0.131500
     33 H223       -1.2610   -0.7430   -0.7910 h4        1 FRA      0.131500
     34 HN1         1.9050    2.2460   -0.0920 hn        1 FRA      0.237000
     35 H7          3.0750   -1.3680   -0.2430 ha        1 FRA      0.148500
     36 H6          5.4810   -1.8760   -0.2450 ha        1 FRA      0.148500
     37 H4          5.1760    1.5290   -2.1350 ha        1 FRA      0.148500
     38 H3          4.8410    1.8580    0.9760 ha        1 FRA      0.148500
     39 H10        10.0380    0.2170   -1.7050 hc        1 FRA      0.194000
     40 H9         10.1230    1.9740   -1.3820 hc        1 FRA      0.194000
     41 H12        11.5360   -1.6280   -1.3050 hc        1 FRA      0.136000
     42 H171       10.4160   -3.0510   -1.1780 hc        1 FRA      0.136000
     43 H172       13.0160   -0.3770    1.5280 ha        1 FRA      0.115000
     44 H161       14.1500   -0.1280    0.0770 ha        1 FRA      0.115000
     45 H162       12.3180    0.9810   -1.1980 ha        1 FRA      0.160000
     46 H131       11.5740   -2.1450    0.9670 hc        1 FRA      0.084500
     47 H132        9.8120   -2.5350    1.0580 hc        1 FRA      0.084500
     48 HN5        10.6940    2.8400    0.5830 hn        1 FRA      0.285000
     49 H191       11.5410    4.0720    2.1660 ho        1 FRA      0.278000
     50 H192       13.3570    5.7580   -1.7750 ha        1 FRA      0.027000
     51 C14        10.2630   -0.4450    1.1720 c3        1 FRA     -0.193000
     52 H141        9.1570   -0.3350    1.3290 hc        1 FRA      0.113500
     53 H142       10.7310   -0.4060    2.1970 hc        1 FRA      0.113500
@<TRIPOS>BOND
     1    1    3 1   
     2    1   32 1   
     3    1   33 1   
     4    2    3 1   
     5    2    4 1   
     6    2   31 1   
     7    4    5 1   
     8    4   34 1   
     9    5    6 1   
    10    5   10 1   
    11    6    7 1   
    12    6   35 1   
    13    7    8 1   
    14    7   36 1   
    15    8    9 1   
    16    8   11 1   
    17    9   10 1   
    18    9   37 1   
    19   10   38 1   
    20   11   12 1   
    21   11   15 1   
    22   12   13 1   
    23   12   16 1   
    24   13   18 1   
    25   14   15 1   
    26   14   22 1   
    27   14   39 1   
    28   14   40 1   
    29   15   17 1   
    30   18   21 1   
    31   18   41 1   
    32   18   42 1   
    33   19   20 1   
    34   19   43 1   
    35   19   44 1   
    36   20   22 1   
    37   20   45 1   
    38   21   46 1   
    39   21   47 1   
    40   21   51 1   
    41   22   23 1   
    42   22   51 1   
    43   23   24 1   
    44   23   48 1   
    45   24   25 1   
    46   24   26 1   
    47   26   49 1   
    48   27   28 1   
    49   27   50 1   
    50   28   29 1   
    51   28   30 1   
    52   51   52 1   
    53   51   53 1   
@<TRIPOS>SUBSTRUCTURE
     1 FRA         1 TEMP              0 ****  ****    0 ROOT
