@<TRIPOS>MOLECULE
FRB
   69    65     1     0     0
SMALL
bcc


@<TRIPOS>ATOM
      1 N1         -5.9910    1.5460    2.4930 n1        1 FRB     -0.679800
      2 C2         -5.8130    2.6560    3.1790 c1        1 FRB      0.538600
      3 N3         -6.9350    3.4010    3.6240 n2        1 FRB     -0.778600
      4 N4         -4.4930    3.1080    3.4750 n3        1 FRB     -0.686800
      5 C5         -3.4180    2.3010    3.1860 c3        1 FRB      0.144500
      6 C6         -2.2280    2.6570    4.1250 c3        1 FRB     -0.057700
      7 C7         -2.7500    2.8490    5.5260 c3        1 FRB     -0.073400
      8 C8         -3.2280    1.5690    6.1420 c3        1 FRB     -0.077900
      9 C9         -2.2060    0.4770    6.0590 c3        1 FRB     -0.078400
     10 C10        -1.6800    0.2810    4.6520 c3        1 FRB     -0.077900
     11 C11        -1.2010    1.5600    4.0400 c3        1 FRB     -0.073400
     12 C12        -3.0010    2.5110    1.7240 c         1 FRB      0.630100
     13 O13        -3.0210    3.6510    1.2360 o         1 FRB     -0.628100
     14 N14        -2.8010    1.3640    0.8640 n         1 FRB     -0.529900
     15 C15        -1.7970    1.4150   -0.2150 c3        1 FRB      0.018000
     16 C16        -1.6950    0.0490   -0.8820 c         1 FRB      0.641100
     17 O17        -2.5660   -0.8000   -0.6670 o         1 FRB     -0.603100
     18 N18        -0.7690   -0.1400   -1.9640 n         1 FRB     -0.459800
     19 C19        -0.8010   -1.2850   -2.8290 c3        1 FRB      0.081000
     20 C20         0.5430   -1.9610   -2.9360 c3        1 FRB     -0.101900
     21 C23         0.2920    0.8210   -2.2840 c3        1 FRB      0.081000
     22 C22         1.6450    0.1660   -2.3830 c3        1 FRB     -0.101900
     23 C21         1.6300   -1.0030   -3.2840 c3        1 FRB     -0.002500
     24 C24         3.0230   -1.7480   -3.1860 ce        1 FRB     -0.003700
     25 N25         3.4570   -2.4990   -2.1370 ne        1 FRB     -0.291600
     26 N26         4.6580   -3.0930   -2.5010 nf        1 FRB     -0.201600
     27 C28         3.9390   -1.8660   -4.1970 c1        1 FRB     -0.067800
     28 C27         4.9520   -2.7050   -3.7610 cf        1 FRB      0.013800
     29 C29         6.0900   -3.1430   -4.5440 ch        1 FRB     -0.017300
     30 C34         5.9910   -4.2770   -5.3360 c1        1 FRB      0.033400
     31 CL36        4.5510   -5.2540   -5.2830 cl        1 FRB     -0.080900
     32 C30         7.2540   -2.3960   -4.5500 c1        1 FRB     -0.041500
     33 C31         8.3260   -2.7830   -5.3500 c1        1 FRB     -0.063000
     34 C32         8.2270   -3.9090   -6.1350 c1        1 FRB     -0.063000
     35 C33         7.0540   -4.6610   -6.1300 c1        1 FRB      0.033400
     36 CL35        6.9830   -6.1460   -6.9950 cl        1 FRB     -0.080900
     37 HN1        -6.8130    1.2650    2.3090 DU        1 FRB      0.201000
     38 HN31       -7.7860    3.1740    3.3320 hn        1 FRB      0.394300
     39 HN32       -6.8190    4.1050    4.1550 hn        1 FRB      0.394300
     40 HN4        -4.3540    3.9800    3.7330 hn        1 FRB      0.404800
     41 H5         -3.6770    1.3360    3.3260 h1        1 FRB      0.094700
     42 H6         -1.8220    3.4930    3.8210 hc        1 FRB      0.064700
     43 H71        -2.0220    3.2260    6.0910 hc        1 FRB      0.046950
     44 H72        -3.5050    3.4950    5.5010 hc        1 FRB      0.046950
     45 H81        -4.0340    1.2820    5.6830 hc        1 FRB      0.041200
     46 H82        -3.4400    1.7330    7.0810 hc        1 FRB      0.041200
     47 H91        -1.4680    0.6970    6.6390 hc        1 FRB      0.039200
     48 H92        -2.6040   -0.3450    6.3600 hc        1 FRB      0.039200
     49 H101       -2.3870   -0.0800    4.1020 hc        1 FRB      0.041200
     50 H102       -0.9250   -0.3670    4.6770 hc        1 FRB      0.041200
     51 H111       -0.3990    1.8460    4.4970 hc        1 FRB      0.046950
     52 H112       -0.9910    1.4020    3.1140 hc        1 FRB      0.046950
     53 H14        -3.2860    0.5820    1.0120 hn        1 FRB      0.342500
     54 H151       -0.9420    1.6560    0.1540 h1        1 FRB      0.075700
     55 H152       -2.0670    2.0920   -0.8880 h1        1 FRB      0.075700
     56 H191       -1.0800   -0.9990   -3.7140 h1        1 FRB      0.063950
     57 H192       -1.4720   -1.9450   -2.4730 h1        1 FRB      0.063950
     58 H201        0.7450   -2.3640   -2.1150 hc        1 FRB      0.055450
     59 H202        0.4960   -2.6460   -3.6220 hc        1 FRB      0.055450
     60 H231        0.0860    1.2470   -3.1360 h1        1 FRB      0.063950
     61 H232        0.3210    1.5030   -1.5880 h1        1 FRB      0.063950
     62 H221        2.2690    0.7980   -2.7090 hc        1 FRB      0.055450
     63 H222        1.9180   -0.1180   -1.5070 hc        1 FRB      0.055450
     64 H21         1.4970   -0.6880   -4.2180 hc        1 FRB      0.073700
     65 H25         3.0220   -2.5990   -1.3140 DU        1 FRB      0.201000
     66 H28         3.8870   -1.4460   -5.0490 DU        1 FRB      0.201000
     67 H30         7.3220   -1.6080   -4.0000 ha        1 FRB      0.093500
     68 H31         9.1570   -2.2500   -5.3530 ha        1 FRB      0.089000
     69 H32         8.9530   -4.1710   -6.6760 ha        1 FRB      0.089000
@<TRIPOS>BOND
     1    1    2 3   
     2    2    4 1   
     3    3   38 1   
     4    3   39 1   
     5    4    5 1   
     6    4   40 1   
     7    5    6 1   
     8    5   12 1   
     9    5   41 1   
    10    6    7 1   
    11    6   11 1   
    12    6   42 1   
    13    7    8 1   
    14    7   43 1   
    15    7   44 1   
    16    8    9 1   
    17    8   45 1   
    18    8   46 1   
    19    9   10 1   
    20    9   47 1   
    21    9   48 1   
    22   10   11 1   
    23   10   49 1   
    24   10   50 1   
    25   11   51 1   
    26   11   52 1   
    27   12   13 2   
    28   12   14 1   
    29   14   15 1   
    30   14   53 1   
    31   15   16 1   
    32   15   54 1   
    33   15   55 1   
    34   16   17 2   
    35   16   18 1   
    36   18   19 1   
    37   18   21 1   
    38   19   20 1   
    39   19   56 1   
    40   19   57 1   
    41   20   23 1   
    42   20   58 1   
    43   20   59 1   
    44   21   22 1   
    45   21   60 1   
    46   21   61 1   
    47   22   23 1   
    48   22   62 1   
    49   22   63 1   
    50   23   24 1   
    51   23   64 1   
    52   24   25 1   
    53   24   27 2   
    54   25   26 2   
    55   26   28 1   
    56   27   28 2   
    57   28   29 1   
    58   29   32 3   
    59   30   31 1   
    60   30   35 3   
    61   32   67 1   
    62   33   34 3   
    63   33   68 1   
    64   34   69 1   
    65   35   36 1   
@<TRIPOS>SUBSTRUCTURE
     1 FRB         1 TEMP              0 ****  ****    0 ROOT
