@<TRIPOS>MOLECULE
FRB
   69    72     1     0     0
SMALL
bcc


@<TRIPOS>ATOM
      1 N1          7.5830    2.8100   -2.5960 n2        1 FRB     -0.841100
      2 C2          6.5630    2.4730   -1.8520 c2        1 FRB      0.745100
      3 N3          5.2770    2.3650   -2.4340 nh        1 FRB     -0.935800
      4 N4          6.7120    2.1690   -0.4260 nh        1 FRB     -0.821200
      5 C5          6.2100    0.9140    0.0990 c3        1 FRB      0.140500
      6 C6          6.3390   -0.2970   -0.8490 c3        1 FRB     -0.065700
      7 C7          7.8160   -0.5760   -1.1130 c3        1 FRB     -0.076900
      8 C8          7.9950   -1.7690   -2.0300 c3        1 FRB     -0.074900
      9 C9          7.3260   -3.0030   -1.4640 c3        1 FRB     -0.079400
     10 C10         5.8650   -2.7370   -1.1730 c3        1 FRB     -0.074900
     11 C11         5.6840   -1.5400   -0.2610 c3        1 FRB     -0.076900
     12 C12         4.7610    1.0420    0.6370 c         1 FRB      0.617100
     13 O13         3.9200    1.7880    0.0930 o         1 FRB     -0.628100
     14 N14         4.4730    0.4230    1.8490 n         1 FRB     -0.524900
     15 C15         3.1280    0.3930    2.3530 c3        1 FRB      0.003000
     16 C16         2.4180   -0.9600    2.1740 c         1 FRB      0.624100
     17 O17         3.0320   -1.9420    1.7070 o         1 FRB     -0.612100
     18 N18         1.1110   -1.0980    2.6290 n         1 FRB     -0.450800
     19 C19         0.3690   -2.3020    2.3000 c3        1 FRB      0.077500
     20 C20        -0.7090   -2.0900    1.2350 c3        1 FRB     -0.103400
     21 C23         0.2690    0.0340    2.9470 c3        1 FRB      0.077500
     22 C22        -0.8000    0.3240    1.8900 c3        1 FRB     -0.103400
     23 C21        -1.6230   -0.9300    1.6140 c3        1 FRB      0.002600
     24 C24        -2.6530   -0.6840    0.5790 cc        1 FRB     -0.111600
     25 N25        -2.3850   -0.3320   -0.7540 na        1 FRB     -0.004600
     26 N26        -3.4860   -0.1650   -1.4730 nc        1 FRB     -0.491800
     27 C28        -4.0520   -0.7420    0.6870 cd        1 FRB     -0.258300
     28 C27        -4.5450   -0.4050   -0.6330 cd        1 FRB      0.338800
     29 C29        -5.9390   -0.3560   -1.0490 ca        1 FRB     -0.092500
     30 C34        -6.9000    0.3770   -0.3300 ca        1 FRB      0.031400
     31 CL36       -6.4580    1.2830    1.0350 cl        1 FRB     -0.066400
     32 C30        -6.3290   -1.0650   -2.1940 ca        1 FRB     -0.099000
     33 C31        -7.6570   -1.0610   -2.6110 ca        1 FRB     -0.125000
     34 C32        -8.6160   -0.3500   -1.8940 ca        1 FRB     -0.115000
     35 C33        -8.2390    0.3700   -0.7560 ca        1 FRB      0.012400
     36 CL35       -9.4300    1.2340    0.0920 cl        1 FRB     -0.073400
     37 HN1         8.4730    2.7760   -2.1480 hn        1 FRB      0.404400
     38 HN31        5.1770    2.7830   -3.3310 hn        1 FRB      0.418800
     39 HN32        4.5060    2.5060   -1.8190 hn        1 FRB      0.418800
     40 HN4         6.3490    2.9380    0.1100 hn        1 FRB      0.386800
     41 H5          6.8850    0.7080    0.9920 h1        1 FRB      0.076700
     42 H6          5.8320   -0.0670   -1.8270 hc        1 FRB      0.087700
     43 H71         8.2990    0.3200   -1.5810 hc        1 FRB      0.045950
     44 H72         8.3370   -0.7710   -0.1380 hc        1 FRB      0.045950
     45 H81         7.5610   -1.5350   -3.0370 hc        1 FRB      0.044450
     46 H82         9.0900   -1.9640   -2.1720 hc        1 FRB      0.044450
     47 H91         7.4180   -3.8500   -2.1920 hc        1 FRB      0.039200
     48 H92         7.8470   -3.3130   -0.5190 hc        1 FRB      0.039200
     49 H101        5.3200   -2.5560   -2.1370 hc        1 FRB      0.044450
     50 H102        5.4050   -3.6380   -0.6900 hc        1 FRB      0.044450
     51 H111        6.1330   -1.7680    0.7410 hc        1 FRB      0.045950
     52 H112        4.5820   -1.3750   -0.1170 hc        1 FRB      0.045950
     53 H14         5.0270   -0.3750    2.0840 hn        1 FRB      0.319500
     54 H151        3.1720    0.6160    3.4580 h1        1 FRB      0.090200
     55 H152        2.5260    1.1960    1.8350 h1        1 FRB      0.090200
     56 H191        1.0840   -3.0990    1.9490 h1        1 FRB      0.063950
     57 H192       -0.1210   -2.6600    3.2510 h1        1 FRB      0.063950
     58 H201       -0.2270   -1.8930    0.2430 hc        1 FRB      0.057950
     59 H202       -1.3080   -3.0320    1.1430 hc        1 FRB      0.057950
     60 H231       -0.2480   -0.2050    3.9230 h1        1 FRB      0.063950
     61 H232        0.8840    0.9600    3.1110 h1        1 FRB      0.063950
     62 H221       -0.3180    0.6860    0.9460 hc        1 FRB      0.057950
     63 H222       -1.4670    1.1410    2.2700 hc        1 FRB      0.057950
     64 H21        -2.1690   -1.2080    2.5630 hc        1 FRB      0.072700
     65 H25        -1.4890   -0.1910   -1.1610 hn        1 FRB      0.324700
     66 H28        -4.6460   -0.9830    1.5600 ha        1 FRB      0.173000
     67 H30        -5.5740   -1.6260   -2.7660 ha        1 FRB      0.152000
     68 H31        -7.9520   -1.6220   -3.5110 ha        1 FRB      0.142000
     69 H32        -9.6670   -0.3500   -2.2220 ha        1 FRB      0.151000
@<TRIPOS>BOND
     1    1    2 2   
     2    1   37 1   
     3    2    3 1   
     4    2    4 1   
     5    3   38 1   
     6    3   39 1   
     7    4    5 1   
     8    4   40 1   
     9    5    6 1   
    10    5   12 1   
    11    5   41 1   
    12    6    7 1   
    13    6   11 1   
    14    6   42 1   
    15    7    8 1   
    16    7   43 1   
    17    7   44 1   
    18    8    9 1   
    19    8   45 1   
    20    8   46 1   
    21    9   10 1   
    22    9   47 1   
    23    9   48 1   
    24   10   11 1   
    25   10   49 1   
    26   10   50 1   
    27   11   51 1   
    28   11   52 1   
    29   12   13 2   
    30   12   14 1   
    31   14   15 1   
    32   14   53 1   
    33   15   16 1   
    34   15   54 1   
    35   15   55 1   
    36   16   17 2   
    37   16   18 1   
    38   18   19 1   
    39   18   21 1   
    40   19   20 1   
    41   19   56 1   
    42   19   57 1   
    43   20   23 1   
    44   20   58 1   
    45   20   59 1   
    46   21   22 1   
    47   21   60 1   
    48   21   61 1   
    49   22   23 1   
    50   22   62 1   
    51   22   63 1   
    52   23   24 1   
    53   23   64 1   
    54   24   25 1   
    55   24   27 2   
    56   25   26 1   
    57   25   65 1   
    58   26   28 2   
    59   27   28 1   
    60   27   66 1   
    61   28   29 1   
    62   29   30 ar  
    63   29   32 ar  
    64   30   31 1   
    65   30   35 ar  
    66   32   33 ar  
    67   32   67 1   
    68   33   34 ar  
    69   33   68 1   
    70   34   35 ar  
    71   34   69 1   
    72   35   36 1   
@<TRIPOS>SUBSTRUCTURE
     1 FRB         1 TEMP              0 ****  ****    0 ROOT
