@<TRIPOS>MOLECULE
FRB
   72    75     1     0     0
SMALL
bcc


@<TRIPOS>ATOM
      1 N1          0.0000    0.0000    0.0000 n2        1 FRB     -0.267100
      2 C2          1.3030    0.0000    0.0000 c2        1 FRB      0.012100
      3 N3          1.9910    0.0000    1.1900 nz        1 FRB      0.020400
      4 N4          1.9900   -0.0000   -1.1910 ny        1 FRB      0.134000
      5 C5          3.4490   -0.1210   -1.1960 c3        1 FRB     -0.119500
      6 C6          3.8560   -1.4060   -0.4710 c3        1 FRB     -0.085700
      7 C7          3.3510   -2.6170   -1.2590 c3        1 FRB     -0.026400
      8 C8          3.7590   -3.9020   -0.5330 c3        1 FRB     -0.012900
      9 C9          5.2840   -3.9650   -0.4240 c3        1 FRB     -0.026400
     10 C10         5.7890   -2.7530    0.3630 c3        1 FRB     -0.012900
     11 C11         5.3820   -1.4680   -0.3620 c3        1 FRB     -0.026400
     12 C12         4.0540    1.0660   -0.4910 c         1 FRB      0.171100
     13 O13         3.3800    1.7270    0.2700 o         1 FRB     -0.609100
     14 N14         5.3440    1.3930   -0.7070 ny        1 FRB      0.194200
     15 C15         5.9320    2.5470   -0.0230 c3        1 FRB     -0.100200
     16 C16         7.3740    2.6940   -0.4340 c         1 FRB      0.555100
     17 O17         7.8620    1.9120   -1.2210 o         1 FRB     -0.654100
     18 N18         8.1200    3.6940    0.0740 n         1 FRB     -0.055800
     19 C19         9.5280    3.8510   -0.3180 c3        1 FRB      0.033500
     20 C20        10.3890    3.9030    0.9480 c3        1 FRB     -0.042400
     21 C23         7.5400    4.6530    1.0240 c3        1 FRB      0.033500
     22 C22         8.4260    4.6930    2.2790 c3        1 FRB     -0.042400
     23 C21         9.8670    5.0060    1.8710 c3        1 FRB      0.041600
     24 C24        10.7330    5.0830    3.1020 cc        1 FRB     -0.267600
     25 N25        11.3230    4.0390    3.7230 na        1 FRB      0.466400
     26 N26        12.0360    4.5330    4.8230 nc        1 FRB     -0.608800
     27 C28        11.0580    6.2080    3.7740 cd        1 FRB     -0.298300
     28 C27        11.8770    5.8390    4.8600 cd        1 FRB      0.408800
     29 C29        12.4610    6.7620    5.8660 ca        1 FRB     -0.117500
     30 C34        11.7090    7.8270    6.3600 ca        1 FRB     -0.030600
     31 Cl36       10.0830    8.0730    5.8040 cl        1 FRB      0.113600
     32 C30        13.7660    6.5700    6.3150 ca        1 FRB      0.017000
     33 C31        14.3060    7.4300    7.2490 ca        1 FRB     -0.038000
     34 C32        13.5540    8.4830    7.7420 ca        1 FRB     -0.074000
     35 C33        12.2580    8.6790    7.2990 ca        1 FRB     -0.057600
     36 Cl35       11.3210   10.0020    7.9200 cl        1 FRB      0.238600
     37 HN1        -0.5030    0.0000    0.8650 hn        1 FRB      0.391400
     38 HN31        2.9480    0.2430    1.0230 hn        1 FRB      0.273467
     39 HN32        1.9440   -0.9110    1.6020 hn        1 FRB      0.273467
     40 HN4         1.6330   -0.7630   -1.7320 hn        1 FRB      0.279300
     41 H5          3.8060   -0.1550   -2.2180 hx        1 FRB      0.133700
     42 H6          3.4240   -1.4180    0.5220 hc        1 FRB      0.006700
     43 H71         2.2720   -2.5730   -1.3340 hc        1 FRB      0.024450
     44 H72         3.7880   -2.6090   -2.2500 hc        1 FRB      0.024450
     45 H81         3.3270   -3.9060    0.4600 hc        1 FRB      0.040950
     46 H82         3.4030   -4.7590   -1.0920 hc        1 FRB      0.040950
     47 H91         5.5700   -4.8730    0.0910 hc        1 FRB      0.053200
     48 H92         5.7160   -3.9540   -1.4170 hc        1 FRB      0.053200
     49 H101        5.3520   -2.7610    1.3540 hc        1 FRB      0.040950
     50 H102        6.8680   -2.7970    0.4370 hc        1 FRB      0.040950
     51 H111        5.8150   -1.4630   -1.3550 hc        1 FRB      0.024450
     52 H112        5.7380   -0.6120    0.1980 hc        1 FRB      0.024450
     53 H14         5.4430    1.5560   -1.6900 hn        1 FRB      0.277300
     54 H151        5.3860    3.4430   -0.2920 hx        1 FRB      0.098200
     55 H152        5.8750    2.3980    1.0490 hx        1 FRB      0.098200
     56 H191        9.8310    3.0080   -0.9270 h1        1 FRB      0.046450
     57 H192        9.6490    4.7720   -0.8760 h1        1 FRB      0.046450
     58 H201       10.3340    2.9500    1.4590 hc        1 FRB      0.036700
     59 H202       11.4160    4.1160    0.6770 hc        1 FRB      0.036700
     60 H231        7.5070    5.6370    0.5720 h1        1 FRB      0.046450
     61 H232        6.5400    4.3370    1.2950 h1        1 FRB      0.046450
     62 H221        8.3930    3.7300    2.7750 hc        1 FRB      0.036700
     63 H222        8.0660    5.4630    2.9510 hc        1 FRB      0.036700
     64 H21         9.8930    5.9540    1.3470 hc        1 FRB      0.058700
     65 H25        11.2620    3.0800    3.4460 hn        1 FRB      0.151700
     66 H28        10.7410    7.2140    3.5270 ha        1 FRB      0.149000
     67 H30        14.3770    5.7840    5.8870 ha        1 FRB      0.136000
     68 H31        15.3200    7.2810    7.5990 ha        1 FRB      0.136000
     69 H32        13.9820    9.1560    8.4750 ha        1 FRB      0.142000
     70 H33         1.5810    0.6680    1.8120 hn        1 FRB      0.273467
     71 H42         1.7700    0.8590   -1.6560 hn        1 FRB      0.279300
     72 H142        5.8930    0.5950   -0.4530 hn        1 FRB      0.277300
@<TRIPOS>BOND
     1    1    2 2   
     2    1   37 1   
     3    2    3 1   
     4    2    4 1   
     5    3   38 1   
     6    3   39 1   
     7    3   70 1   
     8    4    5 1   
     9    4   40 1   
    10    4   71 1   
    11    5    6 1   
    12    5   12 1   
    13    5   41 1   
    14    6    7 1   
    15    6   11 1   
    16    6   42 1   
    17    7    8 1   
    18    7   43 1   
    19    7   44 1   
    20    8    9 1   
    21    8   45 1   
    22    8   46 1   
    23    9   10 1   
    24    9   47 1   
    25    9   48 1   
    26   10   11 1   
    27   10   49 1   
    28   10   50 1   
    29   11   51 1   
    30   11   52 1   
    31   12   13 2   
    32   12   14 1   
    33   14   15 1   
    34   14   53 1   
    35   14   72 1   
    36   15   16 1   
    37   15   54 1   
    38   15   55 1   
    39   16   17 2   
    40   16   18 1   
    41   18   19 1   
    42   18   21 1   
    43   19   20 1   
    44   19   56 1   
    45   19   57 1   
    46   20   23 1   
    47   20   58 1   
    48   20   59 1   
    49   21   22 1   
    50   21   60 1   
    51   21   61 1   
    52   22   23 1   
    53   22   62 1   
    54   22   63 1   
    55   23   24 1   
    56   23   64 1   
    57   24   25 1   
    58   24   27 2   
    59   25   26 1   
    60   25   65 1   
    61   26   28 2   
    62   27   28 1   
    63   27   66 1   
    64   28   29 1   
    65   29   30 ar  
    66   29   32 ar  
    67   30   31 1   
    68   30   35 ar  
    69   32   33 ar  
    70   32   67 1   
    71   33   34 ar  
    72   33   68 1   
    73   34   35 ar  
    74   34   69 1   
    75   35   36 1   
@<TRIPOS>SUBSTRUCTURE
     1 FRB         1 TEMP              0 ****  ****    0 ROOT
