@<TRIPOS>MOLECULE
FRB
   69    72     1     0     0
SMALL
bcc


@<TRIPOS>ATOM
      1 N1          0.7710    1.1680    0.8170 n2        1 FRB     -0.842100
      2 C2          1.7220    0.2740    0.8570 c2        1 FRB      0.738100
      3 N3          2.2470   -0.2930    2.0730 nh        1 FRB     -0.900800
      4 N4          2.2000   -0.2750   -0.3960 nh        1 FRB     -0.804200
      5 C5          3.6130   -0.1820   -0.6930 c3        1 FRB      0.139500
      6 C6          4.4960   -1.3030   -0.0910 c3        1 FRB     -0.064700
      7 C7          3.8510   -2.6720   -0.2410 c3        1 FRB     -0.078900
      8 C8          4.7570   -3.7640    0.2920 c3        1 FRB     -0.075400
      9 C9          6.1190   -3.7360   -0.3690 c3        1 FRB     -0.079400
     10 C10         6.7580   -2.3690   -0.2400 c3        1 FRB     -0.075400
     11 C11         5.8520   -1.2860   -0.7900 c3        1 FRB     -0.078900
     12 C12         4.2460    1.1610   -0.2440 c         1 FRB      0.622100
     13 O13         4.2340    1.5070    0.9540 o         1 FRB     -0.615100
     14 N14         4.7580    1.9920   -1.2350 n         1 FRB     -0.518900
     15 C15         5.5440    3.1410   -0.8850 c3        1 FRB      0.004000
     16 C16         7.0630    2.9090   -0.9660 c         1 FRB      0.623100
     17 O17         7.5160    1.8140   -1.3610 o         1 FRB     -0.616100
     18 N18         7.9210    3.9650   -0.6810 n         1 FRB     -0.450800
     19 C19         9.3480    3.7160   -0.5840 c3        1 FRB      0.078500
     20 C20         9.8860    3.7590    0.8480 c3        1 FRB     -0.102400
     21 C23         7.4890    5.1580    0.0120 c3        1 FRB      0.078500
     22 C22         7.9620    5.2340    1.4670 c3        1 FRB     -0.102400
     23 C21         9.4740    5.0530    1.5410 c3        1 FRB      0.001600
     24 C24         9.9570    5.1010    2.9400 cc        1 FRB     -0.111600
     25 N25         9.5950    4.1920    3.9470 na        1 FRB     -0.005600
     26 N26        10.1670    4.4620    5.1130 nc        1 FRB     -0.491800
     27 C28        10.8380    6.0130    3.5450 cd        1 FRB     -0.257300
     28 C27        10.9440    5.5760    4.9220 cd        1 FRB      0.339800
     29 C29        11.7690    6.1780    5.9580 ca        1 FRB     -0.092500
     30 C34        11.7210    7.5570    6.2340 ca        1 FRB      0.031400
     31 CL36       10.6520    8.5730    5.3940 cl        1 FRB     -0.066400
     32 C30        12.6360    5.3600    6.6960 ca        1 FRB     -0.099000
     33 C31        13.4570    5.9030    7.6800 ca        1 FRB     -0.125000
     34 C32        13.4250    7.2690    7.9460 ca        1 FRB     -0.115000
     35 C33        12.5570    8.0960    7.2260 ca        1 FRB      0.013400
     36 CL35       12.5350    9.7570    7.5790 cl        1 FRB     -0.073400
     37 HN1         0.3980    1.4450    1.6980 hn        1 FRB      0.407400
     38 HN31        2.7410   -1.1500    1.9230 hn        1 FRB      0.385800
     39 HN32        2.8390    0.3720    2.5360 hn        1 FRB      0.385800
     40 HN4         1.6500    0.0530   -1.1700 hn        1 FRB      0.410800
     41 H5          3.6940   -0.2870   -1.8190 h1        1 FRB      0.069700
     42 H6          4.6630   -1.0910    1.0020 hc        1 FRB      0.060700
     43 H71         3.6310   -2.8590   -1.3250 hc        1 FRB      0.050700
     44 H72         2.8760   -2.7080    0.3110 hc        1 FRB      0.050700
     45 H81         4.8790   -3.6380    1.4010 hc        1 FRB      0.042450
     46 H82         4.2750   -4.7610    0.1180 hc        1 FRB      0.042450
     47 H91         6.7820   -4.5080    0.1010 hc        1 FRB      0.041200
     48 H92         6.0130   -3.9990   -1.4550 hc        1 FRB      0.041200
     49 H101        6.9810   -2.1590    0.8390 hc        1 FRB      0.042450
     50 H102        7.7320   -2.3530   -0.7950 hc        1 FRB      0.042450
     51 H111        5.7080   -1.4480   -1.8910 hc        1 FRB      0.050700
     52 H112        6.3460   -0.2860   -0.6570 hc        1 FRB      0.050700
     53 H14         5.0220    1.5510   -2.0910 hn        1 FRB      0.313500
     54 H151        5.2780    3.9700   -1.6020 h1        1 FRB      0.091700
     55 H152        5.2770    3.4570    0.1660 h1        1 FRB      0.091700
     56 H191        9.8660    4.5120   -1.1930 h1        1 FRB      0.064200
     57 H192        9.5850    2.7120   -1.0380 h1        1 FRB      0.064200
     58 H201       11.0030    3.6870    0.8100 hc        1 FRB      0.057700
     59 H202        9.5060    2.8760    1.4230 hc        1 FRB      0.057700
     60 H231        7.9200    6.0390   -0.5500 h1        1 FRB      0.064200
     61 H232        6.3700    5.2570   -0.0140 h1        1 FRB      0.064200
     62 H221        7.6760    6.2330    1.8850 hc        1 FRB      0.057700
     63 H222        7.4470    4.4480    2.0780 hc        1 FRB      0.057700
     64 H21         9.9580    5.9150    0.9950 hc        1 FRB      0.072700
     65 H25         8.9650    3.4290    3.8590 hn        1 FRB      0.324700
     66 H28        11.3360    6.8620    3.0920 ha        1 FRB      0.173000
     67 H30        12.6630    4.2790    6.4910 ha        1 FRB      0.152000
     68 H31        14.1350    5.2510    8.2520 ha        1 FRB      0.142000
     69 H32        14.0760    7.6990    8.7220 ha        1 FRB      0.151000
@<TRIPOS>BOND
     1    1    2 2   
     2    1   37 1   
     3    2    3 1   
     4    2    4 1   
     5    3   38 1   
     6    3   39 1   
     7    4    5 1   
     8    4   40 1   
     9    5    6 1   
    10    5   12 1   
    11    5   41 1   
    12    6    7 1   
    13    6   11 1   
    14    6   42 1   
    15    7    8 1   
    16    7   43 1   
    17    7   44 1   
    18    8    9 1   
    19    8   45 1   
    20    8   46 1   
    21    9   10 1   
    22    9   47 1   
    23    9   48 1   
    24   10   11 1   
    25   10   49 1   
    26   10   50 1   
    27   11   51 1   
    28   11   52 1   
    29   12   13 2   
    30   12   14 1   
    31   14   15 1   
    32   14   53 1   
    33   15   16 1   
    34   15   54 1   
    35   15   55 1   
    36   16   17 2   
    37   16   18 1   
    38   18   19 1   
    39   18   21 1   
    40   19   20 1   
    41   19   56 1   
    42   19   57 1   
    43   20   23 1   
    44   20   58 1   
    45   20   59 1   
    46   21   22 1   
    47   21   60 1   
    48   21   61 1   
    49   22   23 1   
    50   22   62 1   
    51   22   63 1   
    52   23   24 1   
    53   23   64 1   
    54   24   25 1   
    55   24   27 2   
    56   25   26 1   
    57   25   65 1   
    58   26   28 2   
    59   27   28 1   
    60   27   66 1   
    61   28   29 1   
    62   29   30 ar  
    63   29   32 ar  
    64   30   31 1   
    65   30   35 ar  
    66   32   33 ar  
    67   32   67 1   
    68   33   34 ar  
    69   33   68 1   
    70   34   35 ar  
    71   34   69 1   
    72   35   36 1   
@<TRIPOS>SUBSTRUCTURE
     1 FRB         1 TEMP              0 ****  ****    0 ROOT
