@<TRIPOS>MOLECULE
FRC
   47    49     1     0     0
SMALL
bcc


@<TRIPOS>ATOM
      1 C1          0.2450   -0.2260    0.1260 cc        1 FRC     -0.048600
      2 N2          1.5670   -0.1420   -0.2460 na        1 FRC     -0.165900
      3 C3          2.3440   -0.5470    0.8710 cc        1 FRC      0.464400
      4 N4          1.5760   -0.8660    1.9190 nd        1 FRC     -0.669000
      5 C5          0.2450   -0.6740    1.4800 cd        1 FRC      0.127800
      6 C8         -0.9180   -0.9270    2.2730 c         1 FRC      0.513600
      7 O9         -2.1040   -0.7420    2.0350 o         1 FRC     -0.446100
      8 N10        -0.6320   -1.5370    3.6380 n4        1 FRC     -0.748400
      9 C13         2.0670    0.1880   -1.5690 c3        1 FRC      0.037000
     10 C14         3.0160    1.4250   -1.5460 c3        1 FRC      0.136100
     11 O15         3.3100    1.6550   -2.9180 oh        1 FRC     -0.598800
     12 C18         2.8010   -0.9840   -2.2400 c3        1 FRC     -0.101400
     13 C2          1.8870   -2.1430   -2.5920 c3        1 FRC      0.125400
     14 C9          2.3750    2.6430   -0.9120 c3        1 FRC     -0.142100
     15 O1          1.6350   -2.8650   -1.3800 os        1 FRC     -0.367900
     16 C11         0.2370   -9.0790   -0.8620 ca        1 FRC     -0.124000
     17 C17        -0.1740   -8.1570   -1.7930 ca        1 FRC     -0.107000
     18 C12         0.2850   -6.8120   -1.7270 ca        1 FRC     -0.055000
     19 C4          1.1710   -6.4340   -0.6850 ca        1 FRC     -0.017000
     20 C15         1.5820   -7.4100    0.2640 ca        1 FRC     -0.133000
     21 C6          1.1250   -8.7020    0.1750 ca        1 FRC     -0.108000
     22 C7         -0.1180   -5.8420   -2.6850 ca        1 FRC     -0.078000
     23 C16         0.3320   -4.5470   -2.6100 ca        1 FRC     -0.179000
     24 C19         1.2140   -4.1780   -1.5590 ca        1 FRC      0.097100
     25 C10         1.6390   -5.0950   -0.6170 ca        1 FRC     -0.147000
     26 H1         -0.5970    0.0140   -0.5320 h4        1 FRC      0.218000
     27 H3          3.4420   -0.5890    0.8360 h5        1 FRC      0.095100
     28 H101       -1.5090   -1.6980    4.1430 hn        1 FRC      0.468800
     29 H102       -0.1360   -2.4260    3.5140 hn        1 FRC      0.468800
     30 H13         1.1710    0.4620   -2.2050 h1        1 FRC      0.095700
     31 H14         3.9680    1.1570   -1.0060 h1        1 FRC      0.048700
     32 HO          3.7550    2.5100   -2.9770 ho        1 FRC      0.429000
     33 H181        3.2480   -0.5880   -3.1940 hc        1 FRC      0.091700
     34 H182        3.6370   -1.3450   -1.5870 hc        1 FRC      0.091700
     35 H21         0.9080   -1.7800   -3.0030 h1        1 FRC      0.054200
     36 H22         2.3830   -2.8090   -3.3460 h1        1 FRC      0.054200
     37 H91         2.2230    2.4920    0.1820 hc        1 FRC      0.056367
     38 H92         1.3910    2.8640   -1.3920 hc        1 FRC      0.056367
     39 H93         3.0370    3.5340   -1.0500 hc        1 FRC      0.056367
     40 H15         2.2780   -7.1120    1.0610 ha        1 FRC      0.133000
     41 H6          1.4450   -9.4620    0.9050 ha        1 FRC      0.141000
     42 H7         -0.7990   -6.1490   -3.4930 ha        1 FRC      0.145000
     43 H16         0.0220   -3.7980   -3.3510 ha        1 FRC      0.139000
     44 H10         2.3340   -4.8010    0.1800 ha        1 FRC      0.141000
     45 H11        -0.1140  -10.1210   -0.9120 ha        1 FRC      0.144000
     46 H103       -0.0320   -0.9050    4.1770 hn        1 FRC      0.468800
     47 H17        -0.8600   -8.4410   -2.6060 ha        1 FRC      0.141000
@<TRIPOS>BOND
     1    1    2 1   
     2    1    5 2   
     3    1   26 1   
     4    2    3 1   
     5    2    9 1   
     6    3    4 2   
     7    3   27 1   
     8    4    5 1   
     9    5    6 1   
    10    6    7 2   
    11    6    8 1   
    12    8   28 1   
    13    8   29 1   
    14    8   46 1   
    15    9   10 1   
    16    9   12 1   
    17    9   30 1   
    18   10   11 1   
    19   10   14 1   
    20   10   31 1   
    21   11   32 1   
    22   12   13 1   
    23   12   33 1   
    24   12   34 1   
    25   13   15 1   
    26   13   35 1   
    27   13   36 1   
    28   14   37 1   
    29   14   38 1   
    30   14   39 1   
    31   15   24 1   
    32   16   17 ar  
    33   16   21 ar  
    34   16   45 1   
    35   17   18 ar  
    36   17   47 1   
    37   18   19 ar  
    38   18   22 ar  
    39   19   20 ar  
    40   19   25 ar  
    41   20   21 ar  
    42   20   40 1   
    43   21   41 1   
    44   22   23 ar  
    45   22   42 1   
    46   23   24 ar  
    47   23   43 1   
    48   24   25 ar  
    49   25   44 1   
@<TRIPOS>SUBSTRUCTURE
     1 FRC         1 TEMP              0 ****  ****    0 ROOT
