@<TRIPOS>MOLECULE
FRC
   47    49     1     0     0
SMALL
bcc


@<TRIPOS>ATOM
      1 C1          0.2030   -0.2290    0.0880 cc        1 FRC     -0.048600
      2 N2          1.5480   -0.1480   -0.1920 na        1 FRC     -0.165900
      3 C3          2.2450   -0.5720    0.9700 cc        1 FRC      0.464400
      4 N4          1.4060   -0.9010    1.9590 nd        1 FRC     -0.669000
      5 C5          0.1090   -0.6950    1.4330 cd        1 FRC      0.127800
      6 C8         -1.1060   -0.9520    2.1420 c         1 FRC      0.513600
      7 O9         -2.2730   -0.7580    1.8250 o         1 FRC     -0.446100
      8 N10        -0.9170   -1.5820    3.5140 n4        1 FRC     -0.748400
      9 C13         2.1390    0.1970   -1.4740 c3        1 FRC      0.037000
     10 C14         3.0890    1.4290   -1.3680 c3        1 FRC      0.136100
     11 O15         3.4770    1.6750   -2.7140 oh        1 FRC     -0.598800
     12 C18         2.9120   -0.9700   -2.1080 c3        1 FRC     -0.102400
     13 C2          2.0190   -2.1200   -2.5360 c3        1 FRC      0.125400
     14 C9          2.4110    2.6420   -0.7640 c3        1 FRC     -0.142100
     15 O1          1.6840   -2.8570   -1.3530 os        1 FRC     -0.367900
     16 C11         0.2390   -9.0730   -1.0160 ca        1 FRC     -0.124000
     17 C17        -0.1070   -8.1360   -1.9590 ca        1 FRC     -0.108000
     18 C12         0.3500   -6.7940   -1.8440 ca        1 FRC     -0.055000
     19 C4          1.1660   -6.4330   -0.7410 ca        1 FRC     -0.017000
     20 C15         1.5110   -7.4240    0.2190 ca        1 FRC     -0.133000
     21 C6          1.0570   -8.7130    0.0830 ca        1 FRC     -0.108000
     22 C7          0.0140   -5.8090   -2.8130 ca        1 FRC     -0.078000
     23 C16         0.4620   -4.5170   -2.6900 ca        1 FRC     -0.179000
     24 C19         1.2730   -4.1650   -1.5780 ca        1 FRC      0.097100
     25 C10         1.6320   -5.0970   -0.6240 ca        1 FRC     -0.147000
     26 H1         -0.5900    0.0240   -0.6220 h4        1 FRC      0.218000
     27 H3          3.3430   -0.6200    1.0100 h5        1 FRC      0.095100
     28 H101       -0.4180   -2.4720    3.4120 hn        1 FRC      0.468800
     29 H102       -1.8270   -1.7450    3.9560 hn        1 FRC      0.468800
     30 H13         1.2900    0.4840   -2.1650 h1        1 FRC      0.095700
     31 H14         4.0010    1.1490   -0.7690 h1        1 FRC      0.048700
     32 HO          3.9290    2.5280   -2.7310 ho        1 FRC      0.429000
     33 H181        3.7010   -1.3430   -1.4040 hc        1 FRC      0.091700
     34 H182        3.4240   -0.5640   -3.0240 hc        1 FRC      0.091700
     35 H21         2.5630   -2.7790   -3.2640 h1        1 FRC      0.054200
     36 H22         1.0710   -1.7470   -3.0070 h1        1 FRC      0.054200
     37 H91         1.4630    2.8740   -1.3070 hc        1 FRC      0.056367
     38 H92         2.1840    2.4770    0.3150 hc        1 FRC      0.056367
     39 H93         3.0850    3.5310   -0.8440 hc        1 FRC      0.056367
     40 H15         2.1540   -7.1390    1.0650 ha        1 FRC      0.133000
     41 H6          1.3270   -9.4840    0.8210 ha        1 FRC      0.141000
     42 H7         -0.6140   -6.1030   -3.6690 ha        1 FRC      0.145000
     43 H16         0.2030   -3.7570   -3.4400 ha        1 FRC      0.139000
     44 H10         2.2740   -4.8160    0.2230 ha        1 FRC      0.141000
     45 H11        -0.1100  -10.1130   -1.1040 ha        1 FRC      0.144000
     46 H103       -0.3520   -0.9610    4.1010 hn        1 FRC      0.468800
     47 H17        -0.7380   -8.4070   -2.8190 ha        1 FRC      0.141000
@<TRIPOS>BOND
     1    1    2 1   
     2    1    5 2   
     3    1   26 1   
     4    2    3 1   
     5    2    9 1   
     6    3    4 2   
     7    3   27 1   
     8    4    5 1   
     9    5    6 1   
    10    6    7 2   
    11    6    8 1   
    12    8   28 1   
    13    8   29 1   
    14    8   46 1   
    15    9   10 1   
    16    9   12 1   
    17    9   30 1   
    18   10   11 1   
    19   10   14 1   
    20   10   31 1   
    21   11   32 1   
    22   12   13 1   
    23   12   33 1   
    24   12   34 1   
    25   13   15 1   
    26   13   35 1   
    27   13   36 1   
    28   14   37 1   
    29   14   38 1   
    30   14   39 1   
    31   15   24 1   
    32   16   17 ar  
    33   16   21 ar  
    34   16   45 1   
    35   17   18 ar  
    36   17   47 1   
    37   18   19 ar  
    38   18   22 ar  
    39   19   20 ar  
    40   19   25 ar  
    41   20   21 ar  
    42   20   40 1   
    43   21   41 1   
    44   22   23 ar  
    45   22   42 1   
    46   23   24 ar  
    47   23   43 1   
    48   24   25 ar  
    49   25   44 1   
@<TRIPOS>SUBSTRUCTURE
     1 FRC         1 TEMP              0 ****  ****    0 ROOT
