@<TRIPOS>MOLECULE
FRC
   46    48     1     0     0
SMALL
bcc


@<TRIPOS>ATOM
      1 C1          3.3930    0.8960   -0.6690 cc        1 FRC     -0.170600
      2 N2          3.0030   -0.1570    0.1540 na        1 FRC     -0.207900
      3 C3          3.2180    0.2670    1.4820 cc        1 FRC      0.394400
      4 N4          3.7130    1.5170    1.5280 nd        1 FRC     -0.651000
      5 C5          3.8290    1.9270    0.1920 cd        1 FRC      0.232800
      6 C8          4.3270    3.2360   -0.2760 c         1 FRC      0.603600
      7 O9          4.3860    3.4970   -1.4990 o         1 FRC     -0.635100
      8 N10         4.7240    4.1610    0.6520 n         1 FRC     -0.659000
      9 C13         2.4970   -1.4360   -0.2790 c3        1 FRC      0.019000
     10 C14         3.4820   -2.6070    0.0270 c3        1 FRC      0.129100
     11 O15         2.9220   -3.8140   -0.4600 oh        1 FRC     -0.586800
     12 C18         1.1330   -1.7840    0.3320 c3        1 FRC     -0.101400
     13 C2          0.0490   -0.8370   -0.1540 c3        1 FRC      0.129400
     14 C9          4.8570   -2.3660   -0.5610 c3        1 FRC     -0.136100
     15 O1         -1.1860   -1.4390    0.2500 os        1 FRC     -0.332900
     16 C11        -7.1770    0.6980   -0.2770 ca        1 FRC     -0.137000
     17 C17        -6.0060    1.2540   -0.7290 ca        1 FRC     -0.107000
     18 C12        -4.7620    0.6040   -0.4990 ca        1 FRC     -0.065000
     19 C4         -4.7440   -0.6290    0.2040 ca        1 FRC     -0.005000
     20 C15        -5.9740   -1.1820    0.6610 ca        1 FRC     -0.126000
     21 C6         -7.1600   -0.5320    0.4250 ca        1 FRC     -0.118000
     22 C7         -3.5370    1.1570   -0.9560 ca        1 FRC     -0.083000
     23 C16        -2.3420    0.5180   -0.7270 ca        1 FRC     -0.185000
     24 C19        -2.3330   -0.7140   -0.0220 ca        1 FRC      0.122100
     25 C10        -3.5100   -1.2830    0.4390 ca        1 FRC     -0.157000
     26 H1          3.3470    0.8690   -1.7580 h4        1 FRC      0.198000
     27 H3          2.9930   -0.3670    2.3460 h5        1 FRC      0.067100
     28 H101        4.6810    3.9740    1.6210 hn        1 FRC      0.319500
     29 H102        5.0560    5.0400    0.3430 hn        1 FRC      0.319500
     30 H13         2.3790   -1.3810   -1.4050 h1        1 FRC      0.068700
     31 H14         3.5430   -2.7640    1.1410 h1        1 FRC      0.085700
     32 HO          2.9920   -3.8030   -1.4220 ho        1 FRC      0.403000
     33 H181        0.8760   -2.8360    0.0300 hc        1 FRC      0.081200
     34 H182        1.1820   -1.7600    1.4510 hc        1 FRC      0.081200
     35 H21         0.1480    0.1760    0.3160 h1        1 FRC      0.044200
     36 H22         0.0660   -0.7400   -1.2720 h1        1 FRC      0.044200
     37 H91         4.7830   -2.0660   -1.6340 hc        1 FRC      0.053700
     38 H92         5.3910   -1.5620   -0.0010 hc        1 FRC      0.053700
     39 H93         5.4590   -3.3050   -0.4950 hc        1 FRC      0.053700
     40 H17        -6.0080    2.2090   -1.2750 ha        1 FRC      0.132000
     41 H15        -5.9510   -2.1370    1.2060 ha        1 FRC      0.134000
     42 H6         -8.1110   -0.9580    0.7770 ha        1 FRC      0.132000
     43 H7         -3.5590    2.1130   -1.5000 ha        1 FRC      0.136000
     44 H16        -1.4030    0.9600   -1.0880 ha        1 FRC      0.139000
     45 H10        -3.4890   -2.2370    0.9840 ha        1 FRC      0.150000
     46 H11        -8.1410    1.1980   -0.4530 ha        1 FRC      0.133000
@<TRIPOS>BOND
     1    1    2 1   
     2    1    5 2   
     3    1   26 1   
     4    2    3 1   
     5    2    9 1   
     6    3    4 2   
     7    3   27 1   
     8    4    5 1   
     9    5    6 1   
    10    6    7 2   
    11    6    8 1   
    12    8   28 1   
    13    8   29 1   
    14    9   10 1   
    15    9   12 1   
    16    9   30 1   
    17   10   11 1   
    18   10   14 1   
    19   10   31 1   
    20   11   32 1   
    21   12   13 1   
    22   12   33 1   
    23   12   34 1   
    24   13   15 1   
    25   13   35 1   
    26   13   36 1   
    27   14   37 1   
    28   14   38 1   
    29   14   39 1   
    30   15   24 1   
    31   16   17 ar  
    32   16   21 ar  
    33   16   46 1   
    34   17   18 ar  
    35   17   40 1   
    36   18   19 ar  
    37   18   22 ar  
    38   19   20 ar  
    39   19   25 ar  
    40   20   21 ar  
    41   20   41 1   
    42   21   42 1   
    43   22   23 ar  
    44   22   43 1   
    45   23   24 ar  
    46   23   44 1   
    47   24   25 ar  
    48   25   45 1   
@<TRIPOS>SUBSTRUCTURE
     1 FRC         1 TEMP              0 ****  ****    0 ROOT
