@<TRIPOS>MOLECULE
FRC
   47    49     1     0     0
SMALL
bcc


@<TRIPOS>ATOM
      1 C1          0.3630   -0.7650    0.1420 cc        1 FRC     -0.021600
      2 N2          1.5690   -0.1100    0.0440 na        1 FRC     -0.169900
      3 C3          1.8550    0.4360    1.3240 cc        1 FRC      0.444400
      4 N4          0.8860    0.1680    2.2050 nd        1 FRC     -0.668000
      5 C5         -0.0730   -0.5880    1.4900 cd        1 FRC      0.111800
      6 C8         -1.2850   -1.1010    2.0460 c         1 FRC      0.514600
      7 O9         -2.2110   -1.7110    1.5280 o         1 FRC     -0.445100
      8 N10        -1.4530   -0.8470    3.5390 nz        1 FRC     -0.749400
      9 C13         2.4240   -0.0690   -1.1310 c3        1 FRC      0.008000
     10 C14         3.2190    1.2680   -1.2430 c3        1 FRC      0.133100
     11 O15         3.9950    1.2200   -2.4240 oh        1 FRC     -0.575800
     12 C18         3.4030   -1.2530   -1.1950 c3        1 FRC     -0.108400
     13 C2          2.8130   -2.4590   -1.9030 c3        1 FRC      0.126400
     14 C9          2.3110    2.4810   -1.2240 c3        1 FRC     -0.143100
     15 O1          1.5880   -2.8030   -1.2380 os        1 FRC     -0.392900
     16 C11         0.2070   -9.0520   -1.6500 ca        1 FRC     -0.117000
     17 C17        -0.4780   -7.9450   -2.0880 ca        1 FRC     -0.114000
     18 C12         0.0570   -6.6420   -1.8940 ca        1 FRC     -0.044000
     19 C4          1.3090   -6.4990   -1.2420 ca        1 FRC     -0.024000
     20 C15         1.9970   -7.6620   -0.7980 ca        1 FRC     -0.125000
     21 C6          1.4560   -8.9090   -0.9990 ca        1 FRC     -0.110000
     22 C7         -0.6330   -5.4810   -2.3430 ca        1 FRC     -0.089000
     23 C16        -0.1020   -4.2310   -2.1560 ca        1 FRC     -0.150000
     24 C19         1.1510   -4.1000   -1.4960 ca        1 FRC      0.077100
     25 C10         1.8500   -5.2000   -1.0470 ca        1 FRC     -0.140000
     26 H1         -0.0930   -1.3290   -0.6820 h4        1 FRC      0.234000
     27 H3          2.7700    1.0100    1.5280 h5        1 FRC      0.094100
     28 H101       -0.6710   -1.2720    4.0460 hn        1 FRC      0.467800
     29 H102       -1.4440    0.1620    3.7170 hn        1 FRC      0.467800
     30 H13         1.7350   -0.1340   -2.0290 h1        1 FRC      0.084700
     31 H14         3.9850    1.3220   -0.4180 h1        1 FRC      0.085700
     32 HO          3.4190    1.4230   -3.1730 ho        1 FRC      0.414000
     33 H181        3.7470   -1.5430   -0.1690 hc        1 FRC      0.088200
     34 H182        4.3080   -0.9280   -1.7800 hc        1 FRC      0.088200
     35 H21         2.5720   -2.2230   -2.9740 h1        1 FRC      0.056200
     36 H22         3.5340   -3.3170   -1.8660 h1        1 FRC      0.056200
     37 H91         2.8980    3.3880   -1.5140 hc        1 FRC      0.058700
     38 H92         1.8890    2.6460   -0.2040 hc        1 FRC      0.058700
     39 H93         1.4690    2.3610   -1.9480 hc        1 FRC      0.058700
     40 H15         2.9690   -7.5430   -0.2960 ha        1 FRC      0.137000
     41 H6          1.9880   -9.8110   -0.6590 ha        1 FRC      0.143000
     42 H7         -1.6020   -5.6080   -2.8520 ha        1 FRC      0.144000
     43 H16        -0.6210   -3.3260   -2.5010 ha        1 FRC      0.136000
     44 H10         2.8210   -5.0910   -0.5410 ha        1 FRC      0.142000
     45 H11        -0.2040  -10.0620   -1.8020 ha        1 FRC      0.144000
     46 H103       -2.3370   -1.2490    3.8670 hn        1 FRC      0.467800
     47 H17        -1.4480   -8.0470   -2.5980 ha        1 FRC      0.141000
@<TRIPOS>BOND
     1    1    2 1   
     2    1    5 2   
     3    1   26 1   
     4    2    3 1   
     5    2    9 1   
     6    3    4 2   
     7    3   27 1   
     8    4    5 1   
     9    5    6 1   
    10    6    7 2   
    11    6    8 1   
    12    8   28 1   
    13    8   29 1   
    14    8   46 1   
    15    9   10 1   
    16    9   12 1   
    17    9   30 1   
    18   10   11 1   
    19   10   14 1   
    20   10   31 1   
    21   11   32 1   
    22   12   13 1   
    23   12   33 1   
    24   12   34 1   
    25   13   15 1   
    26   13   35 1   
    27   13   36 1   
    28   14   37 1   
    29   14   38 1   
    30   14   39 1   
    31   15   24 1   
    32   16   17 ar  
    33   16   21 ar  
    34   16   45 1   
    35   17   18 ar  
    36   17   47 1   
    37   18   19 ar  
    38   18   22 ar  
    39   19   20 ar  
    40   19   25 ar  
    41   20   21 ar  
    42   20   40 1   
    43   21   41 1   
    44   22   23 ar  
    45   22   42 1   
    46   23   24 ar  
    47   23   43 1   
    48   24   25 ar  
    49   25   44 1   
@<TRIPOS>SUBSTRUCTURE
     1 FRC         1 TEMP              0 ****  ****    0 ROOT
