@<TRIPOS>MOLECULE
FRD
   23    23     1     0     0
SMALL
bcc


@<TRIPOS>ATOM
      1 N           1.2190    0.9050    1.9830 n3        1 FRD     -0.900800
      2 CA         -0.1210    0.3610    2.0840 c3        1 FRD      0.166500
      3 C          -0.4560   -0.0870    3.5060 c3        1 FRD     -0.092100
      4 CB         -0.4190   -0.8170    1.1300 c3        1 FRD     -0.081100
      5 CG         -0.2340   -0.4390   -0.2960 ca        1 FRD     -0.081300
      6 CD1         1.0060   -0.6170   -0.9210 ca        1 FRD     -0.131500
      7 CD2        -1.2980    0.0990   -1.0300 ca        1 FRD     -0.131500
      8 CE1         1.1780   -0.2630   -2.2590 ca        1 FRD     -0.125500
      9 CE2        -1.1250    0.4520   -2.3670 ca        1 FRD     -0.125500
     10 CZ          0.1140    0.2720   -2.9840 ca        1 FRD     -0.131000
     11 H           1.8940    0.2470    2.3200 hn        1 FRD      0.347800
     12 H2          1.4290    1.1210    1.0260 hn        1 FRD      0.347800
     13 HA         -0.8240    1.2040    1.8070 h1        1 FRD      0.061700
     14 HC1        -0.2880    0.7460    4.2300 hc        1 FRD      0.039700
     15 HC2        -1.5290   -0.3910    3.5540 hc        1 FRD      0.039700
     16 HC3         0.1740   -0.9570    3.8100 hc        1 FRD      0.039700
     17 HB2         0.2460   -1.6830    1.3870 hc        1 FRD      0.051700
     18 HB3        -1.4780   -1.1470    1.3000 hc        1 FRD      0.051700
     19 HD1         1.8470   -1.0450   -0.3550 ha        1 FRD      0.130000
     20 HD2        -2.2760    0.2420   -0.5460 ha        1 FRD      0.130000
     21 HE1         2.1550   -0.4080   -2.7420 ha        1 FRD      0.131500
     22 HE2        -1.9660    0.8730   -2.9360 ha        1 FRD      0.131500
     23 HZ          0.2500    0.5510   -4.0380 ha        1 FRD      0.132000
@<TRIPOS>BOND
     1    1    2 1   
     2    1   11 1   
     3    1   12 1   
     4    2    3 1   
     5    2    4 1   
     6    2   13 1   
     7    3   14 1   
     8    3   15 1   
     9    3   16 1   
    10    4    5 1   
    11    4   17 1   
    12    4   18 1   
    13    5    6 ar  
    14    5    7 ar  
    15    6    8 ar  
    16    6   19 1   
    17    7    9 ar  
    18    7   20 1   
    19    8   10 ar  
    20    8   21 1   
    21    9   10 ar  
    22    9   22 1   
    23   10   23 1   
@<TRIPOS>SUBSTRUCTURE
     1 FRD         1 TEMP              0 ****  ****    0 ROOT
