@<TRIPOS>MOLECULE
FRF
   45    46     1     0     0
SMALL
bcc


@<TRIPOS>ATOM
      1 N           0.4080   -0.8730   -1.2020 n4        1 FRF     -0.873600
      2 C1A         0.6600    0.1920   -0.1880 c3        1 FRF      0.100500
      3 CT         -0.3980    0.2600    0.9370 c3        1 FRF      0.094800
      4 CB          0.7240    1.5870   -0.8410 c3        1 FRF     -0.048100
      5 CG          1.5600    1.5930   -2.0700 ca        1 FRF     -0.172300
      6 CD1         1.0380    2.1010   -3.2660 ca        1 FRF     -0.128000
      7 CD2         2.8880    1.1470   -2.0300 ca        1 FRF     -0.128000
      8 CE1         1.8340    2.1550   -4.4090 ca        1 FRF     -0.113500
      9 CE2         3.6790    1.1990   -3.1750 ca        1 FRF     -0.113500
     10 CZ          3.1540    1.7030   -4.3670 ca        1 FRF     -0.095000
     11 N1         -0.4590   -0.8910    1.8690 n4        1 FRF     -0.768000
     12 C2A         0.8840   -1.3180    2.4110 c3        1 FRF     -0.029500
     13 CT1         1.5810   -2.2010    1.3120 c         1 FRF      0.901600
     14 O           2.7970   -2.0430    1.1320 o         1 FRF     -0.760800
     15 CB1         0.7350   -2.1290    3.6950 c3        1 FRF     -0.049100
     16 CG1        -0.0270   -1.3890    4.7360 ca        1 FRF     -0.142300
     17 CD3        -1.3980   -1.6250    4.9070 ca        1 FRF     -0.140500
     18 CD4         0.6230   -0.4720    5.5700 ca        1 FRF     -0.140500
     19 CE3        -2.1090   -0.9460    5.8960 ca        1 FRF     -0.117000
     20 CE4        -0.0910    0.2060    6.5570 ca        1 FRF     -0.117000
     21 CZ1        -1.4570   -0.0280    6.7200 ca        1 FRF     -0.110000
     22 OXT         0.7850   -2.9180    0.6160 o         1 FRF     -0.760800
     23 HN1        -0.5270   -0.7880   -1.5980 hn        1 FRF      0.476133
     24 HN2         1.0980   -0.7580   -1.9580 hn        1 FRF      0.476133
     25 H1A         1.6830   -0.0430    0.2600 hx        1 FRF      0.157700
     26 HTC1       -0.1480    1.1810    1.5460 hx        1 FRF      0.112200
     27 HTC2       -1.4270    0.3990    0.4930 hx        1 FRF      0.112200
     28 HBC1        1.1710    2.2920   -0.0860 hc        1 FRF      0.083700
     29 HBC2       -0.3140    1.9490   -1.0700 hc        1 FRF      0.083700
     30 HD1         0.0050    2.4800   -3.3040 ha        1 FRF      0.141500
     31 HD2         3.3230    0.7750   -1.0880 ha        1 FRF      0.141500
     32 HE1         1.4210    2.5650   -5.3450 ha        1 FRF      0.159000
     33 HE2         4.7240    0.8510   -3.1360 ha        1 FRF      0.159000
     34 HZ          3.7830    1.7510   -5.2700 ha        1 FRF      0.160000
     35 H1         -1.0800   -0.6540    2.6580 hn        1 FRF      0.466800
     36 H2A         1.4920   -0.3920    2.6110 hx        1 FRF      0.101700
     37 HB11        0.2480   -3.1170    3.4680 hc        1 FRF      0.103200
     38 HB12        1.7800   -2.3520    4.0510 hc        1 FRF      0.103200
     39 HD3        -1.9060   -2.3870    4.2960 ha        1 FRF      0.137500
     40 HD4         1.7050   -0.3030    5.4600 ha        1 FRF      0.137500
     41 HE3        -3.1820   -1.1490    6.0380 ha        1 FRF      0.150500
     42 HE4         0.4290    0.9160    7.2190 ha        1 FRF      0.150500
     43 HZ1        -2.0180    0.5010    7.5070 ha        1 FRF      0.153000
     44 HN3         0.5360   -1.8380   -0.7800 hn        1 FRF      0.476133
     45 H12        -0.8360   -1.7270    1.3830 hn        1 FRF      0.466800
@<TRIPOS>BOND
     1    1    2 1   
     2    1   23 1   
     3    1   24 1   
     4    1   44 1   
     5    2    3 1   
     6    2    4 1   
     7    2   25 1   
     8    3   11 1   
     9    3   26 1   
    10    3   27 1   
    11    4    5 1   
    12    4   28 1   
    13    4   29 1   
    14    5    6 ar  
    15    5    7 ar  
    16    6    8 ar  
    17    6   30 1   
    18    7    9 ar  
    19    7   31 1   
    20    8   10 ar  
    21    8   32 1   
    22    9   10 ar  
    23    9   33 1   
    24   10   34 1   
    25   11   12 1   
    26   11   35 1   
    27   11   45 1   
    28   12   13 1   
    29   12   15 1   
    30   12   36 1   
    31   13   14 1   
    32   13   22 1   
    33   15   16 1   
    34   15   37 1   
    35   15   38 1   
    36   16   17 ar  
    37   16   18 ar  
    38   17   19 ar  
    39   17   39 1   
    40   18   20 ar  
    41   18   40 1   
    42   19   21 ar  
    43   19   41 1   
    44   20   21 ar  
    45   20   42 1   
    46   21   43 1   
@<TRIPOS>SUBSTRUCTURE
     1 FRF         1 TEMP              0 ****  ****    0 ROOT
