@<TRIPOS>MOLECULE
FRF
   43    40     1     0     0
SMALL
bcc


@<TRIPOS>ATOM
      1 N          -2.0270    2.2020   -1.5250 n3        1 FRF     -0.328000
      2 C1A        -0.9130    1.3490   -1.5420 c3        1 FRF     -0.090000
      3 CT         -0.3020    1.2750   -0.1430 c3        1 FRF     -0.058000
      4 CB          0.1340    1.8920   -2.5290 c3        1 FRF     -0.174000
      5 CG          0.0390    1.1140   -3.8680 c2        1 FRF     -0.065000
      6 CD1        -0.4050    1.7620   -5.0190 c2        1 FRF     -0.152000
      7 CD2         0.5020   -0.2040   -3.9420 c1        1 FRF     -0.097000
      8 CE1        -0.3860    1.0890   -6.2520 c1        1 FRF     -0.152000
      9 CE2         0.5210   -0.8700   -5.1630 c1        1 FRF     -0.145750
     10 CZ          0.0760   -0.2230   -6.3210 c1        1 FRF     -0.145750
     11 N1         -0.7780    0.0860    0.5280 n3        1 FRF     -0.290000
     12 C2A         0.0040   -0.1440    1.7250 c3        1 FRF     -0.106000
     13 CT1         1.4580   -0.2880    1.3560 c2        1 FRF      0.300000
     14 O           2.3410    0.5260    1.8550 o         1 FRF     -0.576500
     15 CB1        -0.4780   -1.4170    2.4050 c3        1 FRF     -0.111000
     16 CG1        -0.0110   -1.4300    3.8670 c2        1 FRF     -0.049000
     17 CD3        -0.9410   -1.4010    4.8930 c2        1 FRF     -0.144000
     18 CD4         1.3270   -1.5980    4.1550 c1        1 FRF     -0.123000
     19 CE3        -0.5250   -1.5420    6.2070 c1        1 FRF     -0.150000
     20 CE4         1.7390   -1.7380    5.4640 c1        1 FRF     -0.145750
     21 CZ1         0.8110   -1.7100    6.4910 c1        1 FRF     -0.145750
     22 OXT         1.8250   -1.2170    0.5560 o         1 FRF     -0.576500
     23 HN1        -2.6950    1.8300   -1.9930 hn        1 FRF      0.125500
     24 HN2        -1.8030    3.0030   -1.8980 hn        1 FRF      0.125500
     25 H1A        -1.1910    0.4600   -1.8220 h1        1 FRF      0.151000
     26 HTC1       -0.5610    2.0610    0.3670 h1        1 FRF      0.074500
     27 HTC2        0.6530    1.2400   -0.2140 h1        1 FRF      0.074500
     28 HBC1        1.0210    1.7780   -2.1510 hc        1 FRF      0.104500
     29 HBC2       -0.0320    2.8410   -2.6900 hc        1 FRF      0.104500
     30 HD1        -0.7180    2.6800   -4.9690 ha        1 FRF      0.112000
     31 HD2         0.7950   -0.6650   -3.1310 ha        1 FRF      0.214000
     32 HE1        -0.6960    1.5410   -7.0610 ha        1 FRF      0.108000
     33 HE2         0.8450   -1.7920   -5.2110 ha        1 FRF      0.115750
     34 HZ          0.0300   -0.7110   -7.1610 ha        1 FRF      0.115750
     35 H1         -0.6940   -0.6330   -0.0310 hn        1 FRF      0.167000
     36 H2A        -0.1040    0.6130    2.3360 h1        1 FRF      0.089000
     37 HB11       -1.4640   -1.4530    2.3750 hc        1 FRF      0.090500
     38 HB12       -0.1000   -2.2110    1.9310 hc        1 FRF      0.090500
     39 HD3        -1.8770   -1.2840    4.6920 ha        1 FRF      0.119000
     40 HD4         1.9650   -1.7160    3.4340 ha        1 FRF      0.203000
     41 HE3        -1.1640   -1.4640    6.9250 ha        1 FRF      0.108000
     42 HE4         2.6730   -1.8560    5.6640 ha        1 FRF      0.115750
     43 HZ1         1.1060   -1.7720    7.4110 ha        1 FRF      0.115750
@<TRIPOS>BOND
     1    1    2 1   
     2    1   23 1   
     3    1   24 1   
     4    2    3 1   
     5    2    4 1   
     6    2   25 1   
     7    3   11 1   
     8    3   26 1   
     9    3   27 1   
    10    4    5 1   
    11    4   28 1   
    12    4   29 1   
    13    5    6 1   
    14    5    7 1   
    15    6    8 1   
    16    6   30 1   
    17    7   31 1   
    18    8   32 1   
    19    9   10 1   
    20    9   33 1   
    21   10   34 1   
    22   11   12 1   
    23   11   35 1   
    24   12   13 1   
    25   12   15 1   
    26   12   36 1   
    27   13   14 1   
    28   13   22 1   
    29   15   16 1   
    30   15   37 1   
    31   15   38 1   
    32   16   17 1   
    33   16   18 1   
    34   17   19 1   
    35   17   39 1   
    36   18   40 1   
    37   19   41 1   
    38   20   21 1   
    39   20   42 1   
    40   21   43 1   
@<TRIPOS>SUBSTRUCTURE
     1 FRF         1 TEMP              0 ****  ****    0 ROOT
