@<TRIPOS>MOLECULE
FRF
   45    46     1     0     0
SMALL
bcc


@<TRIPOS>ATOM
      1 N           0.3760   -0.9190   -1.1820 n4        1 FRF     -0.873600
      2 C1A         0.6390    0.1690   -0.1940 c3        1 FRF      0.100500
      3 CT         -0.4000    0.2540    0.9460 c3        1 FRF      0.094800
      4 CB          0.6860    1.5500   -0.8760 c3        1 FRF     -0.048100
      5 CG          1.5020    1.5350   -2.1190 ca        1 FRF     -0.172300
      6 CD1         0.9590    2.0170   -3.3160 ca        1 FRF     -0.128000
      7 CD2         2.8330    1.0950   -2.0910 ca        1 FRF     -0.128000
      8 CE1         1.7370    2.0510   -4.4730 ca        1 FRF     -0.113500
      9 CE2         3.6050    1.1280   -3.2500 ca        1 FRF     -0.113500
     10 CZ          3.0590    1.6060   -4.4420 ca        1 FRF     -0.095000
     11 N1         -0.4410   -0.8770    1.9030 n4        1 FRF     -0.768000
     12 C2A         0.9130   -1.2870    2.4310 c3        1 FRF     -0.029500
     13 CT1         1.5970   -2.1890    1.3390 c         1 FRF      0.901600
     14 O           2.8090   -2.0290    1.1370 o         1 FRF     -0.760800
     15 CB1         0.7880   -2.0720    3.7330 c3        1 FRF     -0.049100
     16 CG1         0.0390   -1.3150    4.7710 ca        1 FRF     -0.142300
     17 CD3        -1.3270   -1.5540    4.9690 ca        1 FRF     -0.140500
     18 CD4         0.6980   -0.3790    5.5770 ca        1 FRF     -0.140500
     19 CE3        -2.0260   -0.8590    5.9550 ca        1 FRF     -0.117000
     20 CE4        -0.0040    0.3160    6.5610 ca        1 FRF     -0.117000
     21 CZ1        -1.3660    0.0790    6.7500 ca        1 FRF     -0.110000
     22 OXT         0.7930   -2.9240    0.6700 o         1 FRF     -0.760800
     23 HN1         1.0540   -0.8150   -1.9510 hn        1 FRF      0.476133
     24 HN2         0.5160   -1.8740   -0.7430 hn        1 FRF      0.476133
     25 H1A         1.6710   -0.0520    0.2410 hx        1 FRF      0.157700
     26 HTC1       -0.1450    1.1880    1.5320 hx        1 FRF      0.112200
     27 HTC2       -1.4370    0.3790    0.5160 hx        1 FRF      0.112200
     28 HBC1        1.1410    2.2730   -0.1430 hc        1 FRF      0.083700
     29 HBC2       -0.3570    1.9020   -1.0960 hc        1 FRF      0.083700
     30 HD1        -0.0760    2.3900   -3.3450 ha        1 FRF      0.141500
     31 HD2         3.2840    0.7440   -1.1490 ha        1 FRF      0.141500
     32 HE1         1.3070    2.4410   -5.4100 ha        1 FRF      0.159000
     33 HE2         4.6520    0.7850   -3.2200 ha        1 FRF      0.159000
     34 HZ          3.6740    1.6390   -5.3560 ha        1 FRF      0.160000
     35 H1         -1.0500   -0.6280    2.6960 hn        1 FRF      0.466800
     36 H2A         1.5190   -0.3540    2.6020 hx        1 FRF      0.101700
     37 HB11        1.8400   -2.2830    4.0770 hc        1 FRF      0.103200
     38 HB12        0.3030   -3.0670    3.5340 hc        1 FRF      0.103200
     39 HD3        -1.8420   -2.3300    4.3810 ha        1 FRF      0.137500
     40 HD4         1.7780   -0.2070    5.4460 ha        1 FRF      0.137500
     41 HE3        -3.0950   -1.0630    6.1180 ha        1 FRF      0.150500
     42 HE4         0.5230    1.0420    7.2000 ha        1 FRF      0.150500
     43 HZ1        -1.9160    0.6210    7.5350 ha        1 FRF      0.153000
     44 HN3        -0.5650   -0.8460   -1.5650 hn        1 FRF      0.476133
     45 H12        -0.8220   -1.7250    1.4400 hn        1 FRF      0.466800
@<TRIPOS>BOND
     1    1    2 1   
     2    1   23 1   
     3    1   24 1   
     4    1   44 1   
     5    2    3 1   
     6    2    4 1   
     7    2   25 1   
     8    3   11 1   
     9    3   26 1   
    10    3   27 1   
    11    4    5 1   
    12    4   28 1   
    13    4   29 1   
    14    5    6 ar  
    15    5    7 ar  
    16    6    8 ar  
    17    6   30 1   
    18    7    9 ar  
    19    7   31 1   
    20    8   10 ar  
    21    8   32 1   
    22    9   10 ar  
    23    9   33 1   
    24   10   34 1   
    25   11   12 1   
    26   11   35 1   
    27   11   45 1   
    28   12   13 1   
    29   12   15 1   
    30   12   36 1   
    31   13   14 1   
    32   13   22 1   
    33   15   16 1   
    34   15   37 1   
    35   15   38 1   
    36   16   17 ar  
    37   16   18 ar  
    38   17   19 ar  
    39   17   39 1   
    40   18   20 ar  
    41   18   40 1   
    42   19   21 ar  
    43   19   41 1   
    44   20   21 ar  
    45   20   42 1   
    46   21   43 1   
@<TRIPOS>SUBSTRUCTURE
     1 FRF         1 TEMP              0 ****  ****    0 ROOT
