@<TRIPOS>MOLECULE
FRF
   43    44     1     0     0
SMALL
bcc


@<TRIPOS>ATOM
      1 N           1.3370   -0.1430   -1.5750 n3        1 FRF     -0.901800
      2 C1A        -0.1110   -0.1800   -1.5370 c3        1 FRF      0.158500
      3 CT         -0.6630   -0.7500   -0.2030 c3        1 FRF      0.161800
      4 CB         -0.7660   -1.0000   -2.6710 c3        1 FRF     -0.088100
      5 CG         -0.4060   -0.4810   -4.0160 ca        1 FRF     -0.061300
      6 CD1         0.6370   -1.0580   -4.7500 ca        1 FRF     -0.132500
      7 CD2        -1.1100    0.5980   -4.5670 ca        1 FRF     -0.132500
      8 CE1         0.9680   -0.5690   -6.0130 ca        1 FRF     -0.132000
      9 CE2        -0.7770    1.0870   -5.8290 ca        1 FRF     -0.132000
     10 CZ          0.2620    0.5040   -6.5550 ca        1 FRF     -0.146000
     11 N1         -0.4280    0.1250    0.9220 n3        1 FRF     -0.798200
     12 C2A        -0.9710   -0.3950    2.1730 c3        1 FRF      0.054500
     13 CT1        -2.5340   -0.5460    2.1470 c         1 FRF      0.926600
     14 O          -3.0130   -1.4370    1.3900 o         1 FRF     -0.837800
     15 CB1        -0.5850    0.4900    3.3660 c3        1 FRF     -0.040100
     16 CG1         0.8750    0.4720    3.6510 ca        1 FRF     -0.050300
     17 CD3         1.7320    1.4080    3.0570 ca        1 FRF     -0.135000
     18 CD4         1.4160   -0.4800    4.5260 ca        1 FRF     -0.135000
     19 CE3         3.0980    1.3920    3.3330 ca        1 FRF     -0.138500
     20 CE4         2.7810   -0.4940    4.8020 ca        1 FRF     -0.138500
     21 CZ1         3.6260    0.4430    4.2070 ca        1 FRF     -0.159000
     22 OXT        -3.2170    0.1820    2.9150 o         1 FRF     -0.837800
     23 HN1         1.7210   -1.0050   -1.2390 hn        1 FRF      0.335300
     24 HN2         1.6540    0.0030   -2.5150 hn        1 FRF      0.335300
     25 H1A        -0.4600    0.8900   -1.6480 h1        1 FRF      0.073700
     26 HTC1       -1.7820   -0.8780   -0.3000 h1        1 FRF      0.052700
     27 HTC2       -0.2250   -1.7820   -0.0520 h1        1 FRF      0.052700
     28 HBC1       -0.4630   -2.0760   -2.5770 hc        1 FRF      0.060700
     29 HBC2       -1.8800   -0.9540   -2.5350 hc        1 FRF      0.060700
     30 HD1         1.1950   -1.9070   -4.3270 ha        1 FRF      0.135000
     31 HD2        -1.9270    1.0600   -3.9910 ha        1 FRF      0.135000
     32 HE1         1.7890   -1.0300   -6.5810 ha        1 FRF      0.122000
     33 HE2        -1.3350    1.9340   -6.2520 ha        1 FRF      0.122000
     34 HZ          0.5230    0.8900   -7.5500 ha        1 FRF      0.120000
     35 H1          0.5580    0.2880    1.0330 hn        1 FRF      0.335800
     36 H2A        -0.5680   -1.4360    2.3770 h1        1 FRF      0.000700
     37 HB11       -0.9360    1.5380    3.1740 hc        1 FRF      0.070700
     38 HB12       -1.1590    0.1110    4.2540 hc        1 FRF      0.070700
     39 HD3         1.3160    2.1540    2.3620 ha        1 FRF      0.138000
     40 HD4         0.7500   -1.2220    4.9920 ha        1 FRF      0.138000
     41 HE3         3.7600    2.1290    2.8580 ha        1 FRF      0.114500
     42 HE4         3.1940   -1.2460    5.4890 ha        1 FRF      0.114500
     43 HZ1         4.7030    0.4310    4.4250 ha        1 FRF      0.111000
@<TRIPOS>BOND
     1    1    2 1   
     2    1   23 1   
     3    1   24 1   
     4    2    3 1   
     5    2    4 1   
     6    2   25 1   
     7    3   11 1   
     8    3   26 1   
     9    3   27 1   
    10    4    5 1   
    11    4   28 1   
    12    4   29 1   
    13    5    6 ar  
    14    5    7 ar  
    15    6    8 ar  
    16    6   30 1   
    17    7    9 ar  
    18    7   31 1   
    19    8   10 ar  
    20    8   32 1   
    21    9   10 ar  
    22    9   33 1   
    23   10   34 1   
    24   11   12 1   
    25   11   35 1   
    26   12   13 1   
    27   12   15 1   
    28   12   36 1   
    29   13   14 1   
    30   13   22 1   
    31   15   16 1   
    32   15   37 1   
    33   15   38 1   
    34   16   17 ar  
    35   16   18 ar  
    36   17   19 ar  
    37   17   39 1   
    38   18   20 ar  
    39   18   40 1   
    40   19   21 ar  
    41   19   41 1   
    42   20   21 ar  
    43   20   42 1   
    44   21   43 1   
@<TRIPOS>SUBSTRUCTURE
     1 FRF         1 TEMP              0 ****  ****    0 ROOT
