@<TRIPOS>MOLECULE
FRF
   45    46     1     0     0
SMALL
bcc


@<TRIPOS>ATOM
      1 N           0.4090   -0.9460   -1.1760 nz        1 FRF     -0.873600
      2 C1A         0.6360    0.1570   -0.1950 c3        1 FRF      0.100500
      3 CT         -0.4100    0.2200    0.9390 c3        1 FRF      0.094800
      4 CB          0.6460    1.5330   -0.8880 c3        1 FRF     -0.048100
      5 CG          1.4680    1.5320   -2.1280 ca        1 FRF     -0.172300
      6 CD1         0.9160    1.9890   -3.3300 ca        1 FRF     -0.128000
      7 CD2         2.8110    1.1310   -2.0910 ca        1 FRF     -0.128000
      8 CE1         1.6970    2.0370   -4.4850 ca        1 FRF     -0.113500
      9 CE2         3.5860    1.1770   -3.2480 ca        1 FRF     -0.113500
     10 CZ          3.0310    1.6300   -4.4460 ca        1 FRF     -0.095000
     11 N1         -0.4230   -0.9040    1.9050 ny        1 FRF     -0.768000
     12 C2A         0.9400   -1.2700    2.4410 c3        1 FRF     -0.029500
     13 CT1         1.6550   -2.1610    1.3600 c         1 FRF      0.901600
     14 O           2.8630   -1.9680    1.1610 o         1 FRF     -0.760800
     15 CB1         0.8330   -2.0490    3.7490 c3        1 FRF     -0.049100
     16 CG1         0.0580   -1.3050    4.7790 ca        1 FRF     -0.142300
     17 CD3        -1.3020   -1.5820    4.9730 ca        1 FRF     -0.140500
     18 CD4         0.6860   -0.3430    5.5780 ca        1 FRF     -0.140500
     19 CE3        -2.0240   -0.8990    5.9510 ca        1 FRF     -0.117000
     20 CE4        -0.0400    0.3390    6.5540 ca        1 FRF     -0.117000
     21 CZ1        -1.3950    0.0650    6.7400 ca        1 FRF     -0.110000
     22 OXT         0.8750   -2.9240    0.6940 o         1 FRF     -0.760800
     23 HN1         0.5750   -1.8930   -0.7290 hn        1 FRF      0.476133
     24 HN2         1.0870   -0.8290   -1.9430 hn        1 FRF      0.476133
     25 H1A         1.6720   -0.0310    0.2460 hx        1 FRF      0.157700
     26 HTC1       -1.4480    0.3120    0.5040 hx        1 FRF      0.112200
     27 HTC2       -0.1850    1.1670    1.5190 hx        1 FRF      0.112200
     28 HBC1       -0.4060    1.8530   -1.1150 hc        1 FRF      0.083700
     29 HBC2        1.0770    2.2740   -0.1590 hc        1 FRF      0.083700
     30 HD1        -0.1300    2.3320   -3.3660 ha        1 FRF      0.141500
     31 HD2         3.2680    0.8000   -1.1450 ha        1 FRF      0.141500
     32 HE1         1.2600    2.4060   -5.4260 ha        1 FRF      0.159000
     33 HE2         4.6420    0.8650   -3.2120 ha        1 FRF      0.159000
     34 HZ          3.6480    1.6730   -5.3580 ha        1 FRF      0.160000
     35 H1         -1.0420   -0.6660    2.6940 hn        1 FRF      0.466800
     36 H2A         1.5190   -0.3190    2.6080 hx        1 FRF      0.101700
     37 HB11        0.3770   -3.0580    3.5570 hc        1 FRF      0.103200
     38 HB12        1.8890   -2.2260    4.0990 hc        1 FRF      0.103200
     39 HD3        -1.7910   -2.3780    4.3910 ha        1 FRF      0.137500
     40 HD4         1.7600   -0.1400    5.4500 ha        1 FRF      0.137500
     41 HE3        -3.0880   -1.1340    6.1120 ha        1 FRF      0.150500
     42 HE4         0.4630    1.0860    7.1890 ha        1 FRF      0.150500
     43 HZ1        -1.9640    0.5960    7.5190 ha        1 FRF      0.153000
     44 HN3        -0.5320   -0.9030   -1.5630 hn        1 FRF      0.476133
     45 H12        -0.7770   -1.7660    1.4470 hn        1 FRF      0.466800
@<TRIPOS>BOND
     1    1    2 1   
     2    1   23 1   
     3    1   24 1   
     4    1   44 1   
     5    2    3 1   
     6    2    4 1   
     7    2   25 1   
     8    3   11 1   
     9    3   26 1   
    10    3   27 1   
    11    4    5 1   
    12    4   28 1   
    13    4   29 1   
    14    5    6 ar  
    15    5    7 ar  
    16    6    8 ar  
    17    6   30 1   
    18    7    9 ar  
    19    7   31 1   
    20    8   10 ar  
    21    8   32 1   
    22    9   10 ar  
    23    9   33 1   
    24   10   34 1   
    25   11   12 1   
    26   11   35 1   
    27   11   45 1   
    28   12   13 1   
    29   12   15 1   
    30   12   36 1   
    31   13   14 1   
    32   13   22 1   
    33   15   16 1   
    34   15   37 1   
    35   15   38 1   
    36   16   17 ar  
    37   16   18 ar  
    38   17   19 ar  
    39   17   39 1   
    40   18   20 ar  
    41   18   40 1   
    42   19   21 ar  
    43   19   41 1   
    44   20   21 ar  
    45   20   42 1   
    46   21   43 1   
@<TRIPOS>SUBSTRUCTURE
     1 FRF         1 TEMP              0 ****  ****    0 ROOT
