@<TRIPOS>MOLECULE
FRG
   63    58     1     0     0
SMALL
bcc


@<TRIPOS>ATOM
      1 N33         5.4690   -3.9410    4.8210 n1        1 FRG     -0.325000
      2 C31         5.2760   -4.9280    3.9850 c1        1 FRG      0.151000
      3 N32         5.9640   -6.1550    4.1650 n2        1 FRG     -0.365000
      4 N29         4.3770   -4.7710    2.8990 n3        1 FRG     -0.232000
      5 C30         4.4920   -3.6120    2.0160 c3        1 FRG     -0.053000
      6 C28         3.8330   -5.9550    2.2190 c3        1 FRG     -0.066000
      7 C27         2.5330   -5.6590    1.4860 c3        1 FRG     -0.155000
      8 C26         2.6450   -4.4970    0.5920 c3        1 FRG     -0.168000
      9 C24         3.1930   -3.3080    1.2830 c3        1 FRG     -0.106000
     10 C23         3.4580   -2.2000    0.2370 c3        1 FRG     -0.177000
     11 C22         2.4030   -1.1230    0.3640 c2        1 FRG      0.307000
     12 O25         2.1100   -0.6870    1.4590 o         1 FRG     -0.357000
     13 N21         1.7860   -0.5940   -0.7990 n         1 FRG     -0.360000
     14 C16         0.4210   -0.2010   -0.7620 c3        1 FRG      0.036000
     15 C17        -0.4460   -1.4110   -0.4940 c2        1 FRG      0.269000
     16 O19        -0.2390   -2.4500   -1.0890 o         1 FRG     -0.358000
     17 O18        -1.4840   -1.3360    0.4480 os        1 FRG     -0.271000
     18 C20        -2.2550   -2.5130    0.5430 c3        1 FRG     -0.065000
     19 C15         0.0370    0.4100   -2.0900 c3        1 FRG     -0.126000
     20 C12        -0.8700    1.6010   -1.8550 c2        1 FRG     -0.064000
     21 C13        -0.4230    2.8790   -2.1570 c2        1 FRG     -0.125000
     22 C14        -1.2950    3.9550   -2.0830 c1        1 FRG     -0.106000
     23 C11        -2.1890    1.4010   -1.4790 c1        1 FRG     -0.123000
     24 C10        -3.0610    2.4770   -1.4050 c1        1 FRG     -0.102000
     25 C9         -2.6140    3.7540   -1.7080 c1        1 FRG      0.032000
     26 C8         -3.5980    4.9060   -1.7610 c1        1 FRG     -0.109000
     27 C7         -4.3730    5.8140   -1.8040 c1        1 FRG     -0.103000
     28 C4         -5.3570    6.9660   -1.8580 c1        1 FRG      0.027000
     29 C5         -6.4610    6.8940   -2.6930 c2        1 FRG     -0.105000
     30 C6         -7.3130    7.9820   -2.8120 c1        1 FRG     -0.133000
     31 C3         -5.1040    8.1260   -1.1430 c1        1 FRG     -0.106000
     32 C2         -5.9560    9.2140   -1.2620 c1        1 FRG     -0.127000
     33 C1         -7.0600    9.1410   -2.0960 c1        1 FRG     -0.127000
     34 H33         6.0480   -4.0420    5.5200 DU        1 FRG      0.149000
     35 H321        6.4040   -6.3210    4.9470 hn        1 FRG      0.188500
     36 H322        5.9590   -6.7830    3.5000 hn        1 FRG      0.188500
     37 H301        5.1940   -3.7850    1.3580 h1        1 FRG      0.090500
     38 H302        4.7440   -2.8330    2.5500 h1        1 FRG      0.090500
     39 H281        3.6690   -6.6540    2.8830 h1        1 FRG      0.083000
     40 H282        4.4920   -6.2790    1.5740 h1        1 FRG      0.083000
     41 H271        2.2830   -6.4420    0.9570 hc        1 FRG      0.091500
     42 H272        1.8310   -5.4850    2.1450 hc        1 FRG      0.091500
     43 H261        3.2320   -4.7280   -0.1550 hc        1 FRG      0.090000
     44 H262        1.7580   -4.2790    0.2420 hc        1 FRG      0.090000
     45 H24         2.5350   -2.9840    1.9260 hc        1 FRG      0.116000
     46 H231        4.3420   -1.8110    0.3910 hc        1 FRG      0.113000
     47 H232        3.4240   -2.5860   -0.6620 hc        1 FRG      0.113000
     48 H21         2.2520   -0.5490   -1.5810 hn        1 FRG      0.228000
     49 H16         0.2910    0.4570   -0.0510 h1        1 FRG      0.165000
     50 H201       -2.3340   -2.9250   -0.3440 h1        1 FRG      0.092333
     51 H202       -1.8190   -3.1420    1.1580 h1        1 FRG      0.092333
     52 H203       -3.1490   -2.2920    0.8820 h1        1 FRG      0.092333
     53 H151        0.8430    0.7020   -2.5600 hc        1 FRG      0.106000
     54 H152       -0.4340   -0.2560   -2.6310 hc        1 FRG      0.106000
     55 H13         0.5060    3.0200   -2.4220 ha        1 FRG      0.132000
     56 H14        -0.9790    4.8540   -2.2960 ha        1 FRG      0.140000
     57 H11        -2.5050    0.5020   -1.2660 ha        1 FRG      0.139000
     58 H10        -3.9900    2.3360   -1.1410 ha        1 FRG      0.142000
     59 H5         -6.6390    6.0780   -3.1970 ha        1 FRG      0.139000
     60 H6         -8.0910    7.9310   -3.4000 ha        1 FRG      0.134000
     61 H3         -4.3270    8.1770   -0.5550 ha        1 FRG      0.139000
     62 H2         -5.7780   10.0310   -0.7570 ha        1 FRG      0.133500
     63 H1         -7.6600    9.9070   -2.1800 ha        1 FRG      0.133500
@<TRIPOS>BOND
     1    1    2 1   
     2    2    4 1   
     3    3   35 1   
     4    3   36 1   
     5    4    5 1   
     6    4    6 1   
     7    5    9 1   
     8    5   37 1   
     9    5   38 1   
    10    6    7 1   
    11    6   39 1   
    12    6   40 1   
    13    7    8 1   
    14    7   41 1   
    15    7   42 1   
    16    8    9 1   
    17    8   43 1   
    18    8   44 1   
    19    9   10 1   
    20    9   45 1   
    21   10   11 1   
    22   10   46 1   
    23   10   47 1   
    24   11   12 1   
    25   11   13 1   
    26   13   14 1   
    27   13   48 1   
    28   14   15 1   
    29   14   19 1   
    30   14   49 1   
    31   15   16 1   
    32   15   17 1   
    33   17   18 1   
    34   18   50 1   
    35   18   51 1   
    36   18   52 1   
    37   19   20 1   
    38   19   53 1   
    39   19   54 1   
    40   20   21 1   
    41   20   23 1   
    42   21   22 1   
    43   21   55 1   
    44   22   56 1   
    45   23   57 1   
    46   24   25 1   
    47   24   58 1   
    48   25   26 1   
    49   26   27 1   
    50   28   29 1   
    51   28   31 1   
    52   29   30 1   
    53   29   59 1   
    54   30   60 1   
    55   31   61 1   
    56   32   33 1   
    57   32   62 1   
    58   33   63 1   
@<TRIPOS>SUBSTRUCTURE
     1 FRG         1 TEMP              0 ****  ****    0 ROOT
