@<TRIPOS>MOLECULE
FRG
   65    67     1     0     0
SMALL
bcc


@<TRIPOS>ATOM
      1 N33         1.0140   -0.7030    0.3900 n2        1 FRG     -0.708100
      2 C31         2.1880   -0.2560    0.1760 c2        1 FRG      0.710100
      3 N32         2.9500    0.6410    1.1870 nz        1 FRG     -0.878600
      4 N29         3.0050   -0.4370   -0.9970 nh        1 FRG     -0.688600
      5 C30         2.2880   -0.3560   -2.2650 c3        1 FRG      0.171800
      6 C28         3.9090   -1.5870   -0.9120 c3        1 FRG      0.158800
      7 C27         3.3030   -2.9150   -1.3510 c3        1 FRG     -0.110400
      8 C26         2.6800   -2.7970   -2.7250 c3        1 FRG     -0.084400
      9 C24         1.6570   -1.6670   -2.7650 c3        1 FRG     -0.090700
     10 C23         1.1480   -1.5150   -4.1930 c3        1 FRG     -0.162400
     11 C22        -0.1400   -0.7460   -4.2610 c         1 FRG      0.555100
     12 O25        -0.6830   -0.0910   -3.3840 o         1 FRG     -0.424100
     13 N21        -0.8470   -0.7790   -5.5990 ny        1 FRG     -0.681800
     14 C16        -2.1520   -1.5340   -5.5560 c3        1 FRG      0.070500
     15 C17        -1.9020   -3.0370   -5.5490 c         1 FRG      0.618100
     16 O19        -0.7930   -3.5790   -5.5840 o         1 FRG     -0.553000
     17 O18        -3.0390   -3.7530   -5.4890 os        1 FRG     -0.389900
     18 C20        -2.9090   -5.1900   -5.5140 c3        1 FRG      0.122700
     19 C15        -3.0490   -1.1650   -6.7520 c3        1 FRG     -0.041100
     20 C12        -3.2340    0.3040   -6.8580 ca        1 FRG     -0.184300
     21 C13        -2.4440    1.0510   -7.7440 ca        1 FRG     -0.127000
     22 C14        -2.6390    2.4210   -7.8790 ca        1 FRG     -0.111500
     23 C11        -4.2320    0.9490   -6.1170 ca        1 FRG     -0.127000
     24 C10        -4.4310    2.3200   -6.2460 ca        1 FRG     -0.111500
     25 C9         -3.6350    3.0730   -7.1280 ca        1 FRG      0.105000
     26 C8         -3.8390    4.4520   -7.2680 cg        1 FRG     -0.202000
     27 C7         -4.0280    5.6310   -7.4020 ch        1 FRG      0.013000
     28 C4         -4.2520    7.0090   -7.5600 ca        1 FRG     -0.029000
     29 C5         -5.2520    7.6540   -6.8110 ca        1 FRG     -0.090000
     30 C6         -5.4750    9.0180   -6.9770 ca        1 FRG     -0.132000
     31 C3         -3.4840    7.7500   -8.4750 ca        1 FRG     -0.090000
     32 C2         -3.7160    9.1140   -8.6330 ca        1 FRG     -0.132000
     33 C1         -4.7090    9.7490   -7.8870 ca        1 FRG     -0.092000
     34 H33         0.4800   -0.4770    1.2010 hn        1 FRG      0.470400
     35 H321        2.3930    0.8160    2.0260 hn        1 FRG      0.466800
     36 H322        3.8270    0.1840    1.4580 hn        1 FRG      0.466800
     37 H301        1.4880    0.4340   -2.1990 h1        1 FRG      0.081700
     38 H302        3.0710   -0.0170   -3.0060 h1        1 FRG      0.081700
     39 H281        4.7760   -1.3280   -1.5880 h1        1 FRG      0.078700
     40 H282        4.3020   -1.6830    0.1380 h1        1 FRG      0.078700
     41 H271        2.5340   -3.2570   -0.6100 hc        1 FRG      0.081200
     42 H272        4.1190   -3.6870   -1.3720 hc        1 FRG      0.081200
     43 H261        3.4810   -2.6070   -3.4880 hc        1 FRG      0.072200
     44 H262        2.1820   -3.7670   -2.9910 hc        1 FRG      0.072200
     45 H24         0.7920   -1.9350   -2.0950 hc        1 FRG      0.091700
     46 H231        0.9860   -2.5470   -4.6300 hc        1 FRG      0.125700
     47 H232        1.9150   -0.9910   -4.8290 hc        1 FRG      0.125700
     48 H21        -1.0710    0.1880   -5.9010 hn        1 FRG      0.478300
     49 H16        -2.6800   -1.2410   -4.5950 hx        1 FRG      0.146700
     50 H201       -3.9750   -5.5310   -5.4800 h1        1 FRG      0.080367
     51 H202       -2.3990   -5.5030   -6.4550 h1        1 FRG      0.080367
     52 H203       -2.3330   -5.5260   -4.6190 h1        1 FRG      0.080367
     53 H151       -4.0360   -1.6820   -6.5800 hc        1 FRG      0.104700
     54 H152       -2.6150   -1.5810   -7.7000 hc        1 FRG      0.104700
     55 H13        -1.7010    0.5460   -8.3810 ha        1 FRG      0.136500
     56 H14        -2.0300    2.9990   -8.5920 ha        1 FRG      0.163500
     57 H11        -4.8800    0.3660   -5.4430 ha        1 FRG      0.136500
     58 H10        -5.2280    2.8180   -5.6700 ha        1 FRG      0.163500
     59 H5         -5.8600    7.0780   -6.0970 ha        1 FRG      0.139000
     60 H6         -6.2610    9.5190   -6.3920 ha        1 FRG      0.148000
     61 H3         -2.7040    7.2500   -9.0690 ha        1 FRG      0.139000
     62 H2         -3.1160    9.6910   -9.3540 ha        1 FRG      0.148000
     63 H1         -4.8910   10.8280   -8.0180 ha        1 FRG      0.149000
     64 H323        3.1760    1.5370    0.7410 hn        1 FRG      0.466800
     65 H212       -0.2370   -1.2190   -6.2990 hn        1 FRG      0.478300
@<TRIPOS>BOND
     1    1    2 2   
     2    1   34 1   
     3    2    3 1   
     4    2    4 1   
     5    3   35 1   
     6    3   36 1   
     7    3   64 1   
     8    4    5 1   
     9    4    6 1   
    10    5    9 1   
    11    5   37 1   
    12    5   38 1   
    13    6    7 1   
    14    6   39 1   
    15    6   40 1   
    16    7    8 1   
    17    7   41 1   
    18    7   42 1   
    19    8    9 1   
    20    8   43 1   
    21    8   44 1   
    22    9   10 1   
    23    9   45 1   
    24   10   11 1   
    25   10   46 1   
    26   10   47 1   
    27   11   12 2   
    28   11   13 1   
    29   13   14 1   
    30   13   48 1   
    31   13   65 1   
    32   14   15 1   
    33   14   19 1   
    34   14   49 1   
    35   15   16 2   
    36   15   17 1   
    37   17   18 1   
    38   18   50 1   
    39   18   51 1   
    40   18   52 1   
    41   19   20 1   
    42   19   53 1   
    43   19   54 1   
    44   20   21 ar  
    45   20   23 ar  
    46   21   22 ar  
    47   21   55 1   
    48   22   25 ar  
    49   22   56 1   
    50   23   24 ar  
    51   23   57 1   
    52   24   25 ar  
    53   24   58 1   
    54   25   26 1   
    55   26   27 3   
    56   27   28 1   
    57   28   29 ar  
    58   28   31 ar  
    59   29   30 ar  
    60   29   59 1   
    61   30   33 ar  
    62   30   60 1   
    63   31   32 ar  
    64   31   61 1   
    65   32   33 ar  
    66   32   62 1   
    67   33   63 1   
@<TRIPOS>SUBSTRUCTURE
     1 FRG         1 TEMP              0 ****  ****    0 ROOT
