@<TRIPOS>MOLECULE
FRG
   63    65     1     0     0
SMALL
bcc


@<TRIPOS>ATOM
      1 N33         4.2050   -4.1680   -1.7730 n2        1 FRG     -0.857100
      2 C31         2.9440   -3.9730   -1.4940 c2        1 FRG      0.741100
      3 N32         1.9090   -3.8270   -2.4750 nh        1 FRG     -0.920800
      4 N29         2.4540   -4.0050   -0.1150 nh        1 FRG     -0.693600
      5 C30         2.1690   -2.6770    0.4060 c3        1 FRG      0.169800
      6 C28         3.2220   -4.8170    0.8150 c3        1 FRG      0.186800
      7 C27         4.4310   -4.1410    1.4620 c3        1 FRG     -0.108400
      8 C26         4.0710   -2.7820    2.0240 c3        1 FRG     -0.073400
      9 C24         3.3850   -1.9240    0.9710 c3        1 FRG     -0.089700
     10 C23         2.9600   -0.5960    1.5690 c3        1 FRG     -0.144400
     11 C22         2.6090    0.4280    0.5040 c         1 FRG      0.667100
     12 O25         2.5360    0.1540   -0.7090 o         1 FRG     -0.608100
     13 N21         2.3250    1.7090    0.9590 n         1 FRG     -0.563900
     14 C16         2.0660    2.8010    0.0640 c3        1 FRG      0.067700
     15 C17         3.2430    3.7780    0.0190 c         1 FRG      0.601100
     16 O19         4.0760    4.0210    0.8930 o         1 FRG     -0.541000
     17 O18         3.3160    4.4490   -1.1670 os        1 FRG     -0.432900
     18 C20         4.3860    5.3850   -1.3110 c3        1 FRG      0.124700
     19 C15         0.8240    3.6340    0.4460 c3        1 FRG     -0.044100
     20 C12        -0.4340    2.8480    0.3450 ca        1 FRG     -0.073300
     21 C13        -1.1820    2.5580    1.4910 ca        1 FRG     -0.124500
     22 C14        -2.3720    1.8420    1.3970 ca        1 FRG     -0.105000
     23 C11        -0.8970    2.4130   -0.9030 ca        1 FRG     -0.124500
     24 C10        -2.0840    1.6960   -1.0060 ca        1 FRG     -0.105000
     25 C9         -2.8350    1.4020    0.1460 ca        1 FRG      0.029000
     26 C8         -4.0350    0.6780    0.0460 cg        1 FRG     -0.108000
     27 C7         -5.0600    0.0600   -0.0400 ch        1 FRG     -0.095000
     28 C4         -6.2600   -0.6650   -0.1400 ca        1 FRG      0.021000
     29 C5         -6.6970   -1.1440   -1.3880 ca        1 FRG     -0.105000
     30 C6         -7.8870   -1.8610   -1.4820 ca        1 FRG     -0.133000
     31 C3         -7.0340   -0.9180    1.0050 ca        1 FRG     -0.105000
     32 C2         -8.2220   -1.6370    0.9000 ca        1 FRG     -0.133000
     33 C1         -8.6500   -2.1090   -0.3410 ca        1 FRG     -0.120000
     34 H33         4.4360   -4.1980   -2.7430 hn        1 FRG      0.393400
     35 H321        0.9990   -3.6600   -2.1030 hn        1 FRG      0.390800
     36 H322        2.1430   -3.1790   -3.1960 hn        1 FRG      0.390800
     37 H301        1.4160   -2.8220    1.2340 h1        1 FRG      0.060700
     38 H302        1.6950   -2.0420   -0.3940 h1        1 FRG      0.060700
     39 H281        3.5560   -5.7590    0.2990 h1        1 FRG      0.057200
     40 H282        2.4940   -5.1050    1.6280 h1        1 FRG      0.057200
     41 H271        5.2540   -4.0320    0.7090 hc        1 FRG      0.058700
     42 H272        4.8090   -4.8010    2.2850 hc        1 FRG      0.058700
     43 H261        4.9990   -2.2670    2.3860 hc        1 FRG      0.037700
     44 H262        3.3880   -2.9050    2.9050 hc        1 FRG      0.037700
     45 H24         4.1080   -1.7290    0.1280 hc        1 FRG      0.082700
     46 H231        3.7980   -0.1950    2.2000 hc        1 FRG      0.069700
     47 H232        2.0680   -0.7420    2.2340 hc        1 FRG      0.069700
     48 H21         2.5200    1.9420    1.9040 hn        1 FRG      0.319500
     49 H16         1.9170    2.3850   -0.9810 h1        1 FRG      0.124700
     50 H201        4.2950    6.1880   -0.5400 h1        1 FRG      0.053700
     51 H202        5.3660    4.8610   -1.2050 h1        1 FRG      0.053700
     52 H203        4.2450    5.7890   -2.3440 h1        1 FRG      0.053700
     53 H151        0.9470    4.0460    1.4830 hc        1 FRG      0.067200
     54 H152        0.7790    4.5040   -0.2650 hc        1 FRG      0.067200
     55 H13        -0.8310    2.8990    2.4770 ha        1 FRG      0.136000
     56 H14        -2.9540    1.6190    2.3030 ha        1 FRG      0.141000
     57 H11        -0.3150    2.6380   -1.8100 ha        1 FRG      0.136000
     58 H10        -2.4390    1.3550   -1.9900 ha        1 FRG      0.141000
     59 H5         -6.0950   -0.9490   -2.2880 ha        1 FRG      0.139000
     60 H6         -8.2230   -2.2340   -2.4600 ha        1 FRG      0.135000
     61 H3         -6.6970   -0.5450    1.9840 ha        1 FRG      0.139000
     62 H2         -8.8240   -1.8310    1.8000 ha        1 FRG      0.135000
     63 H1         -9.5890   -2.6770   -0.4200 ha        1 FRG      0.134000
@<TRIPOS>BOND
     1    1    2 2   
     2    1   34 1   
     3    2    3 1   
     4    2    4 1   
     5    3   35 1   
     6    3   36 1   
     7    4    5 1   
     8    4    6 1   
     9    5    9 1   
    10    5   37 1   
    11    5   38 1   
    12    6    7 1   
    13    6   39 1   
    14    6   40 1   
    15    7    8 1   
    16    7   41 1   
    17    7   42 1   
    18    8    9 1   
    19    8   43 1   
    20    8   44 1   
    21    9   10 1   
    22    9   45 1   
    23   10   11 1   
    24   10   46 1   
    25   10   47 1   
    26   11   12 2   
    27   11   13 1   
    28   13   14 1   
    29   13   48 1   
    30   14   15 1   
    31   14   19 1   
    32   14   49 1   
    33   15   16 2   
    34   15   17 1   
    35   17   18 1   
    36   18   50 1   
    37   18   51 1   
    38   18   52 1   
    39   19   20 1   
    40   19   53 1   
    41   19   54 1   
    42   20   21 ar  
    43   20   23 ar  
    44   21   22 ar  
    45   21   55 1   
    46   22   25 ar  
    47   22   56 1   
    48   23   24 ar  
    49   23   57 1   
    50   24   25 ar  
    51   24   58 1   
    52   25   26 1   
    53   26   27 3   
    54   27   28 1   
    55   28   29 ar  
    56   28   31 ar  
    57   29   30 ar  
    58   29   59 1   
    59   30   33 ar  
    60   30   60 1   
    61   31   32 ar  
    62   31   61 1   
    63   32   33 ar  
    64   32   62 1   
    65   33   63 1   
@<TRIPOS>SUBSTRUCTURE
     1 FRG         1 TEMP              0 ****  ****    0 ROOT
