@<TRIPOS>MOLECULE
FRG
   65    65     1     0     0
SMALL
bcc


@<TRIPOS>ATOM
      1 N33       115.1790   51.5310  288.2100 n2        1 FRG     -0.692100
      2 C31       116.0780   52.1780  288.8290 c2        1 FRG      0.607100
      3 N32       115.8790   52.8200  290.2220 n4        1 FRG     -0.890600
      4 N29       117.4390   52.4460  288.2630 nh        1 FRG     -0.285200
      5 C30       117.6440   52.9340  287.0890 c1        1 FRG      0.023500
      6 C28       118.5120   51.9760  289.0870 c2        1 FRG      0.027000
      7 C27       118.4270   50.9760  289.9700 c2        1 FRG     -0.237000
      8 C26       -33.4350  -14.1410  -96.7530 c3        1 FRG     -0.101100
      9 C24       -34.6640  -13.3860  -96.3070 c3        1 FRG     -0.093400
     10 C23       -35.6040  -14.3140  -95.5690 c3        1 FRG     -0.160700
     11 C22       -36.9300  -13.6870  -95.2070 c2        1 FRG      0.584600
     12 O25       -37.8460  -14.6420  -94.9430 os        1 FRG     -0.370400
     13 N21       -37.1630  -12.3840  -95.1630 nh        1 FRG     -0.426100
     14 C16       -39.1270  -14.4210  -94.3200 c3        1 FRG      0.082100
     15 C17       -40.0770  -13.7090  -95.2640 c         1 FRG      0.607100
     16 O19       -39.8670  -12.6440  -95.8550 o         1 FRG     -0.558000
     17 O18       -41.2540  -14.3510  -95.4070 os        1 FRG     -0.395900
     18 C20       -42.2400  -13.7330  -96.2540 c3        1 FRG      0.121700
     19 C15       -39.0830  -13.7100  -92.9740 c3        1 FRG     -0.062100
     20 C12       -37.9950  -14.1900  -92.0840 ca        1 FRG     -0.142300
     21 C13       -37.0960  -13.2750  -91.5240 ca        1 FRG     -0.122500
     22 C14       -36.1000  -13.7050  -90.6530 ca        1 FRG     -0.110000
     23 C11       -37.8960  -15.5450  -91.7440 ca        1 FRG     -0.122500
     24 C10       -36.9010  -15.9840  -90.8770 ca        1 FRG     -0.110000
     25 C9        -35.9870  -15.0680  -90.3240 ca        1 FRG      0.080000
     26 C8        -34.9810  -15.5070  -89.4510 cg        1 FRG     -0.174000
     27 C7        -34.1250  -15.8830  -88.6970 ch        1 FRG     -0.020000
     28 C4        -33.1230  -16.3240  -87.8160 ca        1 FRG     -0.013000
     29 C5        -32.9870  -17.6930  -87.5280 ca        1 FRG     -0.094500
     30 C6        -31.9940  -18.1250  -86.6520 ca        1 FRG     -0.132000
     31 C3        -32.2530  -15.3990  -87.2140 ca        1 FRG     -0.094500
     32 C2        -31.2640  -15.8420  -86.3390 ca        1 FRG     -0.132000
     33 C1        -31.1320  -17.2020  -86.0570 ca        1 FRG     -0.101000
     34 H33       114.2550   51.3820  288.5500 hn        1 FRG      0.472400
     35 H321      115.9390   53.8380  290.1360 hn        1 FRG      0.457800
     36 H322      116.6280   52.4970  290.8460 hn        1 FRG      0.457800
     37 H301      -35.1770  -12.9490  -97.2060 hc        1 FRG      0.055200
     38 H302      116.8640   53.2390  286.3760 ha        1 FRG      0.089500
     39 H281      119.4580   52.5160  288.8650 h4        1 FRG      0.210000
     40 H282      117.5300   50.3710  290.1570 ha        1 FRG      0.151500
     41 H271      -32.7370  -13.4460  -97.2810 hc        1 FRG      0.058700
     42 H272      119.3190   50.6750  290.5430 ha        1 FRG      0.151500
     43 H261      -32.9000  -14.5810  -95.8760 hc        1 FRG      0.058700
     44 H262      -33.7080  -14.9660  -97.4540 hc        1 FRG      0.058700
     45 H24       -34.3510  -12.5380  -95.6410 hc        1 FRG      0.055200
     46 H231      -35.1360  -14.6680  -94.6060 hc        1 FRG      0.125700
     47 H232      -35.8180  -15.2300  -96.1900 hc        1 FRG      0.125700
     48 H21       -36.4360  -11.7390  -95.4070 hn        1 FRG      0.340700
     49 H16       -39.4560  -15.5030  -94.1860 h1        1 FRG      0.157700
     50 H201      -41.8390  -13.6450  -97.2910 h1        1 FRG      0.074033
     51 H202      -42.5050  -12.7280  -95.8480 h1        1 FRG      0.074033
     52 H203      -43.0990  -14.4470  -96.1970 h1        1 FRG      0.074033
     53 H151      -40.0770  -13.9080  -92.4760 hc        1 FRG      0.085200
     54 H152      -39.0160  -12.5980  -93.1180 hc        1 FRG      0.085200
     55 H13       -37.1890  -12.2010  -91.7480 ha        1 FRG      0.133000
     56 H14       -35.4050  -12.9780  -90.2060 ha        1 FRG      0.156500
     57 H11       -38.6150  -16.2700  -92.1550 ha        1 FRG      0.133000
     58 H10       -36.8320  -17.0500  -90.6110 ha        1 FRG      0.156500
     59 H5        -33.6670  -18.4220  -87.9940 ha        1 FRG      0.139000
     60 H6        -31.8910  -19.1970  -86.4280 ha        1 FRG      0.143500
     61 H3        -32.3570  -14.3260  -87.4320 ha        1 FRG      0.139000
     62 H2        -30.5850  -15.1150  -85.8680 ha        1 FRG      0.143500
     63 H1        -30.3500  -17.5470  -85.3640 ha        1 FRG      0.144000
     64 H323      114.9760   52.5750  290.6340 hn        1 FRG      0.457800
     65 H212      -38.0790  -12.0050  -94.9850 hn        1 FRG      0.340700
@<TRIPOS>BOND
     1    1    2 2   
     2    1   34 1   
     3    2    3 1   
     4    2    4 1   
     5    3   35 1   
     6    3   36 1   
     7    3   64 1   
     8    4    5 3   
     9    4    6 1   
    10    5   38 1   
    11    6    7 2   
    12    6   39 1   
    13    7   40 1   
    14    7   42 1   
    15    8    9 1   
    16    8   41 1   
    17    8   43 1   
    18    8   44 1   
    19    9   10 1   
    20    9   37 1   
    21    9   45 1   
    22   10   11 1   
    23   10   46 1   
    24   10   47 1   
    25   11   12 1   
    26   11   13 2   
    27   12   14 1   
    28   13   48 1   
    29   13   65 1   
    30   14   15 1   
    31   14   19 1   
    32   14   49 1   
    33   15   16 2   
    34   15   17 1   
    35   17   18 1   
    36   18   50 1   
    37   18   51 1   
    38   18   52 1   
    39   19   20 1   
    40   19   53 1   
    41   19   54 1   
    42   20   21 ar  
    43   20   23 ar  
    44   21   22 ar  
    45   21   55 1   
    46   22   25 ar  
    47   22   56 1   
    48   23   24 ar  
    49   23   57 1   
    50   24   25 ar  
    51   24   58 1   
    52   25   26 1   
    53   26   27 3   
    54   27   28 1   
    55   28   29 ar  
    56   28   31 ar  
    57   29   30 ar  
    58   29   59 1   
    59   30   33 ar  
    60   30   60 1   
    61   31   32 ar  
    62   31   61 1   
    63   32   33 ar  
    64   32   62 1   
    65   33   63 1   
@<TRIPOS>SUBSTRUCTURE
     1 FRG         1 TEMP              0 ****  ****    0 ROOT
