@<TRIPOS>MOLECULE
FRG
   65    67     1     0     0
SMALL
bcc


@<TRIPOS>ATOM
      1 N33         3.4940    1.1230   -0.0530 n2        1 FRG     -0.702100
      2 C31         2.8880    0.0820    0.3630 c2        1 FRG      0.714100
      3 N32         2.4320   -0.1040    1.8330 n4        1 FRG     -0.878600
      4 N29         2.4860   -1.0620   -0.4110 nh        1 FRG     -0.697600
      5 C30         2.0460   -0.7200   -1.7670 c3        1 FRG      0.171800
      6 C28         3.4710   -2.1500   -0.3700 c3        1 FRG      0.161800
      7 C27         2.9690   -3.3930   -1.1000 c3        1 FRG     -0.080400
      8 C26         2.5430   -3.0670   -2.5140 c3        1 FRG     -0.087400
      9 C24         1.5050   -1.9520   -2.5140 c3        1 FRG     -0.059700
     10 C23         1.1560   -1.5940   -3.9530 c3        1 FRG     -0.166400
     11 C22        -0.1420   -0.8470   -4.0550 c         1 FRG      0.554100
     12 O25        -0.8030   -0.3450   -3.1590 o         1 FRG     -0.423100
     13 N21        -0.6940   -0.6870   -5.4560 n4        1 FRG     -0.680800
     14 C16        -1.9700   -1.4600   -5.6770 c3        1 FRG      0.070500
     15 C17        -1.6740   -2.9420   -5.8600 c         1 FRG      0.618100
     16 O19        -0.5510   -3.4570   -5.8390 o         1 FRG     -0.554000
     17 O18        -2.7860   -3.6760   -6.0440 os        1 FRG     -0.389900
     18 C20        -2.6080   -5.0920   -6.2600 c3        1 FRG      0.122700
     19 C15        -2.7370   -0.9290   -6.9030 c3        1 FRG     -0.041100
     20 C12        -2.9570    0.5360   -6.8110 ca        1 FRG     -0.184300
     21 C13        -2.0970    1.4200   -7.4790 ca        1 FRG     -0.127000
     22 C14        -2.3210    2.7910   -7.4330 ca        1 FRG     -0.111000
     23 C11        -4.0530    1.0450   -6.1050 ca        1 FRG     -0.127000
     24 C10        -4.2820    2.4170   -6.0530 ca        1 FRG     -0.111000
     25 C9         -3.4170    3.3070   -6.7150 ca        1 FRG      0.105000
     26 C8         -3.6510    4.6880   -6.6740 cg        1 FRG     -0.201000
     27 C7         -3.8640    5.8700   -6.6540 ch        1 FRG      0.012000
     28 C4         -4.1160    7.2520   -6.6330 ca        1 FRG     -0.029000
     29 C5         -5.2120    7.7600   -5.9140 ca        1 FRG     -0.090000
     30 C6         -5.4620    9.1300   -5.9030 ca        1 FRG     -0.132000
     31 C3         -3.2790    8.1350   -7.3380 ca        1 FRG     -0.090000
     32 C2         -3.5390    9.5030   -7.3210 ca        1 FRG     -0.132000
     33 C1         -4.6280   10.0020   -6.6050 ca        1 FRG     -0.092000
     34 H33         3.6840    1.9180    0.5180 hn        1 FRG      0.474400
     35 H321        2.9300   -0.8990    2.2470 hn        1 FRG      0.466800
     36 H322        1.4260   -0.3040    1.8540 hn        1 FRG      0.466800
     37 H301        2.8920   -0.2750   -2.3690 h1        1 FRG      0.067700
     38 H302        1.2220    0.0450   -1.6820 h1        1 FRG      0.067700
     39 H281        3.6610   -2.4140    0.7080 h1        1 FRG      0.060700
     40 H282        4.4490   -1.8230   -0.8300 h1        1 FRG      0.060700
     41 H271        2.1130   -3.8520   -0.5380 hc        1 FRG      0.082200
     42 H272        3.8050   -4.1430   -1.1170 hc        1 FRG      0.082200
     43 H261        2.1150   -3.9860   -2.9940 hc        1 FRG      0.072700
     44 H262        3.4350   -2.7530   -3.1180 hc        1 FRG      0.072700
     45 H24         0.5760   -2.3180   -1.9900 hc        1 FRG      0.087700
     46 H231        1.0800   -2.5510   -4.5540 hc        1 FRG      0.126700
     47 H232        1.9710   -0.9670   -4.4110 hc        1 FRG      0.126700
     48 H21        -0.9140    0.3110   -5.6340 hn        1 FRG      0.478300
     49 H16        -2.6120   -1.3210   -4.7520 hx        1 FRG      0.147700
     50 H201       -1.9800   -5.2550   -7.1680 h1        1 FRG      0.080367
     51 H202       -2.1310   -5.5480   -5.3600 h1        1 FRG      0.080367
     52 H203       -3.6590   -5.4500   -6.4060 h1        1 FRG      0.080367
     53 H151       -2.1840   -1.1920   -7.8440 hc        1 FRG      0.105200
     54 H152       -3.7190   -1.4820   -6.9260 hc        1 FRG      0.105200
     55 H13        -1.2710    1.0290   -8.0920 ha        1 FRG      0.136500
     56 H14        -1.6560    3.4800   -7.9780 ha        1 FRG      0.163500
     57 H11        -4.7530    0.3570   -5.6040 ha        1 FRG      0.136500
     58 H10        -5.1550    2.8100   -5.5070 ha        1 FRG      0.163500
     59 H5         -5.8740    7.0740   -5.3650 ha        1 FRG      0.139000
     60 H6         -6.3230    9.5240   -5.3420 ha        1 FRG      0.148000
     61 H3         -2.4240    7.7430   -7.9080 ha        1 FRG      0.139000
     62 H2         -2.8850   10.1910   -7.8770 ha        1 FRG      0.148000
     63 H1         -4.8320   11.0840   -6.5960 ha        1 FRG      0.149000
     64 H323        2.6190    0.7330    2.3890 hn        1 FRG      0.466800
     65 H212        0.0050   -1.0060   -6.1380 hn        1 FRG      0.478300
@<TRIPOS>BOND
     1    1    2 2   
     2    1   34 1   
     3    2    3 1   
     4    2    4 1   
     5    3   35 1   
     6    3   36 1   
     7    3   64 1   
     8    4    5 1   
     9    4    6 1   
    10    5    9 1   
    11    5   37 1   
    12    5   38 1   
    13    6    7 1   
    14    6   39 1   
    15    6   40 1   
    16    7    8 1   
    17    7   41 1   
    18    7   42 1   
    19    8    9 1   
    20    8   43 1   
    21    8   44 1   
    22    9   10 1   
    23    9   45 1   
    24   10   11 1   
    25   10   46 1   
    26   10   47 1   
    27   11   12 2   
    28   11   13 1   
    29   13   14 1   
    30   13   48 1   
    31   13   65 1   
    32   14   15 1   
    33   14   19 1   
    34   14   49 1   
    35   15   16 2   
    36   15   17 1   
    37   17   18 1   
    38   18   50 1   
    39   18   51 1   
    40   18   52 1   
    41   19   20 1   
    42   19   53 1   
    43   19   54 1   
    44   20   21 ar  
    45   20   23 ar  
    46   21   22 ar  
    47   21   55 1   
    48   22   25 ar  
    49   22   56 1   
    50   23   24 ar  
    51   23   57 1   
    52   24   25 ar  
    53   24   58 1   
    54   25   26 1   
    55   26   27 3   
    56   27   28 1   
    57   28   29 ar  
    58   28   31 ar  
    59   29   30 ar  
    60   29   59 1   
    61   30   33 ar  
    62   30   60 1   
    63   31   32 ar  
    64   31   61 1   
    65   32   33 ar  
    66   32   62 1   
    67   33   63 1   
@<TRIPOS>SUBSTRUCTURE
     1 FRG         1 TEMP              0 ****  ****    0 ROOT
