@<TRIPOS>MOLECULE
FRH
   84    87     1     0     0
SMALL
bcc


@<TRIPOS>ATOM
      1 O45         0.0000    0.0000    0.0000 o         1 FRH     -0.652100
      2 C26         1.2120    0.0000    0.0000 c         1 FRH      0.021100
      3 C25         1.9660    0.0000    1.3050 c3        1 FRH     -0.098500
      4 C32         2.2220    1.4420    1.7460 c3        1 FRH     -0.053400
      5 C36         3.0830    1.4430    3.0110 c3        1 FRH     -0.067700
      6 C38         4.4710    0.8890    2.6820 c3        1 FRH      0.008900
      7 C37         3.2170    2.8750    3.5350 c3        1 FRH      0.008900
      8 N5          1.1750   -0.6910    2.3260 ny        1 FRH      0.117000
      9 C17        -0.0220   -0.1580    2.7440 c2        1 FRH     -0.146900
     10 N4         -0.4530    0.9600    2.2310 nz        1 FRH      0.180400
     11 N1         -0.7650   -0.8060    3.7020 n2        1 FRH     -0.540100
     12 N2          1.8850    0.0010   -1.1670 ny        1 FRH      0.316200
     13 C28         1.1520    0.0010   -2.4360 c3        1 FRH     -0.108200
     14 C14         2.1300    0.0000   -3.5820 c         1 FRH      0.561100
     15 O44         3.3240   -0.0000   -3.3610 o         1 FRH     -0.662100
     16 N6          1.6810    0.0000   -4.8530 n         1 FRH     -0.070800
     17 C22         0.2410   -0.0050   -5.1360 c3        1 FRH      0.032500
     18 C15        -0.0770    1.1670   -6.0760 c3        1 FRH     -0.039400
     19 C19         0.8070    1.0710   -7.3200 c3        1 FRH      0.043600
     20 C27         2.2790    1.1670   -6.9110 c3        1 FRH     -0.039400
     21 C29         2.6230    0.0000   -5.9800 c3        1 FRH      0.032500
     22 C23         0.4750    2.1990   -8.2630 cc        1 FRH     -0.252600
     23 C11         1.0510    3.4200   -8.2740 cd        1 FRH     -0.318300
     24 C13         0.4530    4.1690   -9.3060 cd        1 FRH      0.423800
     25 N7         -0.4510    3.4090   -9.8870 nc        1 FRH     -0.615800
     26 N3         -0.4490    2.1630   -9.2470 na        1 FRH      0.510400
     27 C34        -1.3060    1.0230   -9.5810 c3        1 FRH      0.015600
     28 C24         0.7840    5.5680   -9.6740 ca        1 FRH     -0.128500
     29 C10         0.8340    5.9440  -11.0150 ca        1 FRH     -0.010000
     30 C21         1.0400    6.5100   -8.6780 ca        1 FRH      0.011400
     31 Cl8         0.9770    6.0470   -7.0080 cl        1 FRH     -0.004400
     32 C16         1.3520    7.8090   -9.0260 ca        1 FRH     -0.081600
     33 Cl9         1.6760    8.9840   -7.7880 cl        1 FRH      0.030600
     34 C30         1.4010    8.1800  -10.3630 ca        1 FRH      0.140100
     35 C33         1.1420    7.2440  -11.3540 ca        1 FRH     -0.212000
     36 O43         1.7050    9.4600  -10.7020 os        1 FRH     -0.262900
     37 C35         1.6770    9.5300  -12.1280 c3        1 FRH      0.153100
     38 C18         2.0070   10.9310  -12.5720 cc        1 FRH      0.371000
     39 C39         3.2460   11.4030  -12.8310 cd        1 FRH     -0.246300
     40 O42         1.1210   11.9150  -12.7680 os        1 FRH     -0.267800
     41 C31         1.7700   13.0310  -13.1600 cc        1 FRH      0.278200
     42 C12         3.1050   12.7460  -13.2130 cd        1 FRH     -0.089300
     43 C20         1.1530   14.3210  -13.4730 c         1 FRH      0.852100
     44 O40        -0.1850   14.4690  -13.3800 o         1 FRH     -0.438800
     45 O41         1.8460   15.2600  -13.8180 o         1 FRH     -0.438800
     46 H25         2.9130   -0.5110    1.1740 hx        1 FRH      0.097700
     47 H321        2.7380    1.9750    0.9570 hc        1 FRH      0.038700
     48 H322        1.2770    1.9300    1.9520 hc        1 FRH      0.038700
     49 H36         2.6160    0.8240    3.7670 hc        1 FRH      0.012700
     50 H381        4.7620    1.2090    1.6880 hc        1 FRH      0.021033
     51 H382        5.1880    1.2600    3.4040 hc        1 FRH      0.021033
     52 H383        4.4460   -0.1930    2.7200 hc        1 FRH      0.021033
     53 H371        3.8430    2.8780    4.4190 hc        1 FRH      0.021033
     54 H372        3.6650    3.4990    2.7720 hc        1 FRH      0.021033
     55 H373        2.2360    3.2600    3.7870 hc        1 FRH      0.021033
     56 HN5         0.9790   -1.6060    1.9730 hn        1 FRH      0.237300
     57 HN41       -0.4100    1.6820    2.9220 hn        1 FRH      0.231467
     58 HN42       -1.4000    0.8450    1.9280 hn        1 FRH      0.231467
     59 HN1        -0.4360   -1.6650    4.0960 hn        1 FRH      0.357400
     60 HN2         2.4670    0.8150   -1.1670 hn        1 FRH      0.220800
     61 H281        0.5290   -0.8840   -2.4930 hx        1 FRH      0.097700
     62 H282        0.5300    0.8850   -2.4940 hx        1 FRH      0.097700
     63 H221       -0.3120    0.1110   -4.2110 h1        1 FRH      0.040950
     64 H222       -0.0320   -0.9380   -5.6140 h1        1 FRH      0.040950
     65 H151        0.1200    2.1020   -5.5650 hc        1 FRH      0.039450
     66 H152       -1.1190    1.1220   -6.3700 hc        1 FRH      0.039450
     67 H19         0.6330    0.1210   -7.8110 hc        1 FRH      0.037700
     68 H271        2.9020    1.1190   -7.7950 hc        1 FRH      0.039450
     69 H272        2.4480    2.1030   -6.3930 hc        1 FRH      0.039450
     70 H291        3.6340    0.1200   -5.6080 h1        1 FRH      0.040950
     71 H292        2.5390   -0.9340   -6.5230 h1        1 FRH      0.040950
     72 H11         1.8330    3.7620   -7.6080 ha        1 FRH      0.147000
     73 H341       -1.9660    0.8110   -8.7490 h1        1 FRH      0.027367
     74 H342       -1.8960    1.2590  -10.4590 h1        1 FRH      0.027367
     75 H343       -0.6900    0.1550   -9.7830 h1        1 FRH      0.027367
     76 H10         0.6330    5.2140  -11.7900 ha        1 FRH      0.127000
     77 H33         1.1820    7.5360  -12.3970 ha        1 FRH      0.134000
     78 H351        2.4070    8.8410  -12.5370 h1        1 FRH      0.041200
     79 H352        0.6890    9.2620  -12.4840 h1        1 FRH      0.041200
     80 H39         4.1740   10.8480  -12.7630 ha        1 FRH      0.161000
     81 H12         3.9010   13.4260  -13.4920 ha        1 FRH      0.167000
     82 H52         1.7550   -0.7750    3.1370 hn        1 FRH      0.237300
     83 H43         0.1170    1.2110    1.4470 hn        1 FRH      0.231467
     84 H22         2.4690   -0.8120   -1.1660 hn        1 FRH      0.220800
@<TRIPOS>BOND
     1    1    2 2   
     2    2    3 1   
     3    2   12 1   
     4    3    4 1   
     5    3    8 1   
     6    3   46 1   
     7    4    5 1   
     8    4   47 1   
     9    4   48 1   
    10    5    6 1   
    11    5    7 1   
    12    5   49 1   
    13    6   50 1   
    14    6   51 1   
    15    6   52 1   
    16    7   53 1   
    17    7   54 1   
    18    7   55 1   
    19    8    9 1   
    20    8   56 1   
    21    8   82 1   
    22    9   10 1   
    23    9   11 2   
    24   10   57 1   
    25   10   58 1   
    26   10   83 1   
    27   11   59 1   
    28   12   13 1   
    29   12   60 1   
    30   12   84 1   
    31   13   14 1   
    32   13   61 1   
    33   13   62 1   
    34   14   15 2   
    35   14   16 1   
    36   16   17 1   
    37   16   21 1   
    38   17   18 1   
    39   17   63 1   
    40   17   64 1   
    41   18   19 1   
    42   18   65 1   
    43   18   66 1   
    44   19   20 1   
    45   19   22 1   
    46   19   67 1   
    47   20   21 1   
    48   20   68 1   
    49   20   69 1   
    50   21   70 1   
    51   21   71 1   
    52   22   23 2   
    53   22   26 1   
    54   23   24 1   
    55   23   72 1   
    56   24   25 2   
    57   24   28 1   
    58   25   26 1   
    59   26   27 1   
    60   27   73 1   
    61   27   74 1   
    62   27   75 1   
    63   28   29 ar  
    64   28   30 ar  
    65   29   35 ar  
    66   29   76 1   
    67   30   31 1   
    68   30   32 ar  
    69   32   33 1   
    70   32   34 ar  
    71   34   35 ar  
    72   34   36 1   
    73   35   77 1   
    74   36   37 1   
    75   37   38 1   
    76   37   78 1   
    77   37   79 1   
    78   38   39 2   
    79   38   40 1   
    80   39   42 1   
    81   39   80 1   
    82   40   41 1   
    83   41   42 2   
    84   41   43 1   
    85   42   81 1   
    86   43   44 1   
    87   43   45 1   
@<TRIPOS>SUBSTRUCTURE
     1 FRH         1 TEMP              0 ****  ****    0 ROOT
