@<TRIPOS>MOLECULE
FRH
   81    84     1     0     0
SMALL
bcc


@<TRIPOS>ATOM
      1 O45        -1.3000    0.9750    6.7760 o         1 FRH     -0.640100
      2 C26        -0.4010    0.1410    6.5300 c         1 FRH      0.629100
      3 C25         0.9980    0.6690    6.1200 c3        1 FRH      0.139500
      4 C32         2.1210   -0.3080    6.4760 c3        1 FRH     -0.075400
      5 C36         3.4930    0.3550    6.4890 c3        1 FRH     -0.068700
      6 C38         3.6860    1.2090    7.7250 c3        1 FRH     -0.091600
      7 C37         4.5720   -0.7080    6.4220 c3        1 FRH     -0.091600
      8 N5          1.0320    1.1710    4.7610 nh        1 FRH     -0.784200
      9 C17         1.0370    0.1920    3.6780 c2        1 FRH      0.752100
     10 N4          1.9320    0.5100    2.6260 nh        1 FRH     -0.930800
     11 N1          0.3170   -0.8970    3.7640 n2        1 FRH     -0.903100
     12 N2         -0.6120   -1.2120    6.6780 n         1 FRH     -0.531900
     13 C28        -1.8780   -1.7480    7.0790 c3        1 FRH      0.022000
     14 C14        -2.5960   -2.5380    5.9690 c         1 FRH      0.631100
     15 O44        -2.2910   -3.7390    5.8150 o         1 FRH     -0.612100
     16 N6         -3.6410   -1.9680    5.2540 n         1 FRH     -0.444800
     17 C22        -3.7930   -0.5380    5.0960 c3        1 FRH      0.075000
     18 C15        -3.4590   -0.0240    3.6940 c3        1 FRH     -0.097900
     19 C19        -4.1960   -0.8110    2.6160 c3        1 FRH      0.007600
     20 C27        -3.9570   -2.3070    2.7950 c3        1 FRH     -0.097900
     21 C29        -4.2950   -2.7470    4.2190 c3        1 FRH      0.075000
     22 C23        -3.7290   -0.3790    1.2740 cc        1 FRH     -0.105600
     23 C11        -2.4200   -0.3830    0.7670 cd        1 FRH     -0.272300
     24 C13        -2.5310    0.1510   -0.5740 cd        1 FRH      0.361800
     25 N7         -3.8380    0.4480   -0.8470 nc        1 FRH     -0.493800
     26 N3         -4.5470    0.1320    0.2450 na        1 FRH      0.092400
     27 C34        -5.9710    0.3240    0.3570 c3        1 FRH      0.039600
     28 C24        -1.4380    0.3240   -1.5180 ca        1 FRH     -0.149500
     29 C10        -1.5370   -0.2460   -2.7940 ca        1 FRH     -0.060000
     30 C21        -0.2750    1.0380   -1.1850 ca        1 FRH      0.060400
     31 CL8        -0.1550    1.7990    0.3380 cl        1 FRH     -0.100400
     32 C16         0.7880    1.1510   -2.0900 ca        1 FRH     -0.031600
     33 CL9         2.1890    2.0050   -1.6540 cl        1 FRH     -0.054400
     34 C30         0.6760    0.5500   -3.3690 ca        1 FRH      0.175100
     35 C33        -0.4990   -0.1400   -3.7090 ca        1 FRH     -0.211000
     36 O43         1.7500    0.6890   -4.2040 os        1 FRH     -0.301900
     37 C35         1.6530    0.0180   -5.4840 c3        1 FRH      0.120100
     38 C18         2.9110    0.2640   -6.1980 cc        1 FRH      0.134000
     39 C39         4.2400   -0.0450   -5.9640 cd        1 FRH     -0.210300
     40 O42         2.7860    0.9440   -7.4190 os        1 FRH     -0.326800
     41 C31         4.0630    1.0400   -7.9570 cc        1 FRH      0.272200
     42 C12         4.9810    0.4530   -7.0910 cd        1 FRH     -0.316300
     43 C20         4.2180    1.6980   -9.3190 c         1 FRH      0.827100
     44 O40         3.1790    1.9470   -9.9810 o         1 FRH     -0.798800
     45 O41         5.4010    1.9310   -9.6810 o         1 FRH     -0.798800
     46 H25         1.1360    1.5970    6.7650 h1        1 FRH      0.090700
     47 H321        2.1390   -1.1650    5.7520 hc        1 FRH      0.056700
     48 H322        1.9140   -0.7250    7.4970 hc        1 FRH      0.056700
     49 H36         3.5910    1.0140    5.5800 hc        1 FRH      0.069700
     50 H381        4.7040    1.6690    7.7180 hc        1 FRH      0.033700
     51 H382        2.9310    2.0310    7.7630 hc        1 FRH      0.033700
     52 H383        3.5840    0.5930    8.6510 hc        1 FRH      0.033700
     53 H371        4.4850   -1.4110    7.2840 hc        1 FRH      0.033700
     54 H372        4.4850   -1.2940    5.4750 hc        1 FRH      0.033700
     55 H373        5.5820   -0.2330    6.4530 hc        1 FRH      0.033700
     56 HN5         0.2760    1.8190    4.6110 hn        1 FRH      0.400800
     57 HN41        1.6520    0.2050    1.7200 hn        1 FRH      0.412800
     58 HN42        2.3310    1.4210    2.6390 hn        1 FRH      0.412800
     59 HN1         0.3850   -1.5320    2.9990 hn        1 FRH      0.401400
     60 HN2         0.0180   -1.8430    6.2350 hn        1 FRH      0.336500
     61 H281       -1.6900   -2.5000    7.9030 h1        1 FRH      0.081200
     62 H282       -2.5310   -0.9300    7.4940 h1        1 FRH      0.081200
     63 H221       -4.8730   -0.2970    5.3210 h1        1 FRH      0.063700
     64 H222       -3.1500    0.0200    5.8340 h1        1 FRH      0.063700
     65 H151       -2.3540   -0.0930    3.5150 hc        1 FRH      0.061200
     66 H152       -3.7470    1.0580    3.6390 hc        1 FRH      0.061200
     67 H19        -5.3010   -0.6140    2.7280 hc        1 FRH      0.048700
     68 H271       -2.8870   -2.5450    2.5620 hc        1 FRH      0.061200
     69 H272       -4.5990   -2.8830    2.0820 hc        1 FRH      0.061200
     70 H291       -4.0240   -3.8340    4.3390 h1        1 FRH      0.063700
     71 H292       -5.4070   -2.6390    4.3800 h1        1 FRH      0.063700
     72 H11        -1.5170   -0.7140    1.2650 ha        1 FRH      0.165000
     73 H341       -6.4580   -0.6590    0.5950 h1        1 FRH      0.056367
     74 H342       -6.1840    1.0520    1.1850 h1        1 FRH      0.056367
     75 H343       -6.3940    0.7240   -0.6020 h1        1 FRH      0.056367
     76 H10        -2.4560   -0.7860   -3.0720 ha        1 FRH      0.147000
     77 H33        -0.6100   -0.5950   -4.7040 ha        1 FRH      0.154000
     78 H351        1.5100   -1.0810   -5.2950 h1        1 FRH      0.053200
     79 H352        0.7820    0.4390   -6.0540 h1        1 FRH      0.053200
     80 H39         4.6500   -0.5570   -5.1000 ha        1 FRH      0.137000
     81 H12         6.0540    0.3910   -7.2450 ha        1 FRH      0.160000
@<TRIPOS>BOND
     1    1    2 2   
     2    2    3 1   
     3    2   12 1   
     4    3    4 1   
     5    3    8 1   
     6    3   46 1   
     7    4    5 1   
     8    4   47 1   
     9    4   48 1   
    10    5    6 1   
    11    5    7 1   
    12    5   49 1   
    13    6   50 1   
    14    6   51 1   
    15    6   52 1   
    16    7   53 1   
    17    7   54 1   
    18    7   55 1   
    19    8    9 1   
    20    8   56 1   
    21    9   10 1   
    22    9   11 2   
    23   10   57 1   
    24   10   58 1   
    25   11   59 1   
    26   12   13 1   
    27   12   60 1   
    28   13   14 1   
    29   13   61 1   
    30   13   62 1   
    31   14   15 2   
    32   14   16 1   
    33   16   17 1   
    34   16   21 1   
    35   17   18 1   
    36   17   63 1   
    37   17   64 1   
    38   18   19 1   
    39   18   65 1   
    40   18   66 1   
    41   19   20 1   
    42   19   22 1   
    43   19   67 1   
    44   20   21 1   
    45   20   68 1   
    46   20   69 1   
    47   21   70 1   
    48   21   71 1   
    49   22   23 2   
    50   22   26 1   
    51   23   24 1   
    52   23   72 1   
    53   24   25 2   
    54   24   28 1   
    55   25   26 1   
    56   26   27 1   
    57   27   73 1   
    58   27   74 1   
    59   27   75 1   
    60   28   29 ar  
    61   28   30 ar  
    62   29   35 ar  
    63   29   76 1   
    64   30   31 1   
    65   30   32 ar  
    66   32   33 1   
    67   32   34 ar  
    68   34   35 ar  
    69   34   36 1   
    70   35   77 1   
    71   36   37 1   
    72   37   38 1   
    73   37   78 1   
    74   37   79 1   
    75   38   39 2   
    76   38   40 1   
    77   39   42 1   
    78   39   80 1   
    79   40   41 1   
    80   41   42 2   
    81   41   43 1   
    82   42   81 1   
    83   43   44 1   
    84   43   45 1   
@<TRIPOS>SUBSTRUCTURE
     1 FRH         1 TEMP              0 ****  ****    0 ROOT
