@<TRIPOS>MOLECULE
FRH
   81    74     1     0     0
SMALL
bcc


@<TRIPOS>ATOM
      1 O45         4.0080   -1.0190    4.2820 o         1 FRH     -0.347000
      2 C26         4.2760   -2.0500    3.8100 c1        1 FRH      0.248000
      3 C25         5.2390   -2.9830    4.5260 c2        1 FRH     -0.010000
      4 C32         5.8920   -2.2600    5.6690 c3        1 FRH     -0.146000
      5 C36         7.3200   -2.8570    5.8990 c3        1 FRH     -0.109000
      6 C38         8.3360   -2.1010    5.0560 c3        1 FRH     -0.208000
      7 C37         7.6990   -2.7400    7.3750 c3        1 FRH     -0.208000
      8 N5          4.5200   -4.1290    5.0260 n3        1 FRH     -0.329000
      9 C17         4.4750   -5.3410    4.2460 c2        1 FRH      0.151000
     10 N4          3.2280   -5.9450    3.9390 n3        1 FRH     -0.331000
     11 N1          5.5760   -5.8770    3.8210 n1        1 FRH     -0.335000
     12 N2          3.8540   -2.3550    2.4790 n3        1 FRH     -0.353000
     13 C28         2.9840   -1.4590    1.7760 c3        1 FRH     -0.055000
     14 C14         1.7280   -2.2380    1.2710 c2        1 FRH      0.287000
     15 O44         1.0230   -2.8890    2.0850 o         1 FRH     -0.418000
     16 N6          1.3860   -2.2470   -0.1880 n         1 FRH     -0.319000
     17 C22         0.2380   -2.9930   -0.7360 c3        1 FRH     -0.025500
     18 C15        -0.6480   -2.1330   -1.5830 c3        1 FRH     -0.170000
     19 C19         0.1100   -1.3990   -2.6090 c3        1 FRH     -0.036000
     20 C27         1.2650   -0.6550   -2.0270 c3        1 FRH     -0.170000
     21 C29         2.1370   -1.5270   -1.1750 c3        1 FRH     -0.025500
     22 C23        -0.8550   -0.3660   -3.3120 c2        1 FRH     -0.092000
     23 C11        -1.8090    0.4040   -2.6880 c1        1 FRH     -0.192000
     24 C13        -2.4700    1.1110   -3.6480 c2        1 FRH     -0.065000
     25 N7         -1.9420    0.7890   -4.8350 n2        1 FRH     -0.055000
     26 N3         -0.9310   -0.1350   -4.6220 n2        1 FRH     -0.125000
     27 C34        -0.1790   -0.8100   -5.6450 c2        1 FRH     -0.056000
     28 C24        -3.4870    2.0500   -3.4250 c1        1 FRH     -0.046000
     29 C10        -3.1590    3.4110   -3.2630 c1        1 FRH     -0.120500
     30 C21        -4.8350    1.6390   -3.3800 c1        1 FRH     -0.021000
     31 CL8        -5.2490   -0.0860   -3.5620 cl        1 FRH     -0.016000
     32 C16        -5.8240    2.5630   -3.1770 c2        1 FRH     -0.108000
     33 CL9        -7.4890    2.0440   -3.0330 cl        1 FRH      0.001000
     34 C30        -5.4930    3.9320   -3.0150 c1        1 FRH      0.116000
     35 C33        -4.1520    4.3390   -3.0600 c1        1 FRH     -0.120500
     36 O43        -6.5380    4.8970   -2.7080 os        1 FRH     -0.208000
     37 C35        -6.8790    5.7720   -3.8090 c3        1 FRH      0.063000
     38 C18        -8.1050    6.6080   -3.4340 c2        1 FRH     -0.185000
     39 C39        -8.2200    8.0220   -3.5600 c1        1 FRH     -0.144000
     40 O42        -9.2690    6.1350   -2.9310 os        1 FRH     -0.085000
     41 C31       -10.1190    7.2060   -2.7340 c1        1 FRH     -0.013000
     42 C12        -9.4430    8.3770   -3.1350 c1        1 FRH     -0.251000
     43 C20       -11.5940    7.1150   -2.3070 c1        1 FRH      0.387000
     44 O40       -11.9170    7.2430   -1.0480 o         1 FRH     -0.534000
     45 O41       -12.5080    6.9520   -3.1900 o         1 FRH     -0.534000
     46 H25         5.9460   -3.2890    3.8830 h4        1 FRH      0.118000
     47 H321        5.9680   -1.2450    5.4410 hc        1 FRH      0.103500
     48 H322        5.3490   -2.3750    6.4930 hc        1 FRH      0.103500
     49 H36         7.3230   -3.7830    5.6420 hc        1 FRH      0.104000
     50 H381        9.2180   -2.3030    5.3690 hc        1 FRH      0.072667
     51 H382        8.1660   -1.0870    5.1340 hc        1 FRH      0.072667
     52 H383        8.2500   -2.3820    4.1000 hc        1 FRH      0.072667
     53 H371        8.6220   -3.1290    7.5140 hc        1 FRH      0.072667
     54 H372        7.6970   -1.7430    7.6540 hc        1 FRH      0.072667
     55 H373        7.0660   -3.2230    7.9100 hc        1 FRH      0.072667
     56 HN5         4.1160   -4.0910    5.8070 hn        1 FRH      0.204000
     57 HN41        2.4810   -5.5320    4.1340 hn        1 FRH      0.204500
     58 HN42        3.2050   -6.7440    3.5130 hn        1 FRH      0.204500
     59 HN1         6.3690   -5.4920    4.0160 DU        1 FRH      0.154750
     60 HN2         4.0710   -3.1200    2.1180 hn        1 FRH      0.232000
     61 H281        3.4590   -1.0810    1.0170 h1        1 FRH      0.129500
     62 H282        2.6890   -0.7140    2.3960 h1        1 FRH      0.129500
     63 H221        0.5700   -3.7270   -1.2770 h1        1 FRH      0.092250
     64 H222       -0.2870   -3.3580    0.0080 h1        1 FRH      0.092250
     65 H151       -1.3540   -2.7420   -2.0560 hc        1 FRH      0.103750
     66 H152       -1.0960   -1.5170   -1.0330 hc        1 FRH      0.103750
     67 H19         0.4420   -2.0320   -3.2800 hc        1 FRH      0.089000
     68 H271        0.9450    0.0360   -1.5140 hc        1 FRH      0.103750
     69 H272        1.7750   -0.3060   -2.7220 hc        1 FRH      0.103750
     70 H291        2.8510   -0.9250   -0.6890 h1        1 FRH      0.092250
     71 H292        2.6060   -2.1750   -1.7550 h1        1 FRH      0.092250
     72 H11        -1.9750    0.4380   -1.7500 DU        1 FRH      0.154750
     73 H341        0.8080   -0.9060   -5.3450 ha        1 FRH      0.093333
     74 H342       -0.2220   -0.2620   -6.5140 ha        1 FRH      0.093333
     75 H343       -0.5830   -1.7500   -5.8080 ha        1 FRH      0.093333
     76 H10        -2.2290    3.6910   -3.2950 ha        1 FRH      0.178000
     77 H33        -3.9240    5.2790   -2.9740 ha        1 FRH      0.178000
     78 H351       -7.0620    5.2760   -4.5430 h1        1 FRH      0.107000
     79 H352       -6.1290    6.3690   -3.9990 h1        1 FRH      0.107000
     80 H39        -7.5140    8.6410   -3.9050 DU        1 FRH      0.154750
     81 H12        -9.8020    9.2900   -3.1070 DU        1 FRH      0.154750
@<TRIPOS>BOND
     1    1    2 1   
     2    2   12 1   
     3    3    4 1   
     4    3    8 1   
     5    3   46 1   
     6    4    5 1   
     7    4   47 1   
     8    4   48 1   
     9    5    6 1   
    10    5    7 1   
    11    5   49 1   
    12    6   50 1   
    13    6   51 1   
    14    6   52 1   
    15    7   53 1   
    16    7   54 1   
    17    7   55 1   
    18    8    9 1   
    19    8   56 1   
    20    9   10 1   
    21    9   11 1   
    22   10   57 1   
    23   10   58 1   
    24   12   13 1   
    25   12   60 1   
    26   13   14 1   
    27   13   61 1   
    28   13   62 1   
    29   14   15 1   
    30   14   16 1   
    31   16   17 1   
    32   16   21 1   
    33   17   18 1   
    34   17   63 1   
    35   17   64 1   
    36   18   19 1   
    37   18   65 1   
    38   18   66 1   
    39   19   20 1   
    40   19   22 1   
    41   19   67 1   
    42   20   21 1   
    43   20   68 1   
    44   20   69 1   
    45   21   70 1   
    46   21   71 1   
    47   22   23 1   
    48   22   26 1   
    49   23   24 1   
    50   24   25 1   
    51   24   28 1   
    52   25   26 1   
    53   27   73 1   
    54   27   74 1   
    55   27   75 1   
    56   28   30 1   
    57   29   35 1   
    58   29   76 1   
    59   30   32 1   
    60   32   33 1   
    61   32   34 1   
    62   34   36 1   
    63   35   77 1   
    64   36   37 1   
    65   37   38 1   
    66   37   78 1   
    67   37   79 1   
    68   38   39 1   
    69   38   40 1   
    70   39   42 1   
    71   40   41 1   
    72   41   42 1   
    73   43   44 1   
    74   43   45 1   
@<TRIPOS>SUBSTRUCTURE
     1 FRH         1 TEMP              0 ****  ****    0 ROOT
