@<TRIPOS>MOLECULE
FRI
   92    95     1     0     0
SMALL
bcc


@<TRIPOS>ATOM
      1 O47         0.0000    0.0000    0.0000 o         1 FRI     -0.659100
      2 C30         1.2120    0.0000    0.0000 c         1 FRI      0.553100
      3 C29         1.9660    0.0000    1.3050 c3        1 FRI     -0.110200
      4 N3          1.0150    0.0010    2.4180 ny        1 FRI      0.237200
      5 C27         1.4630    0.0010    3.6880 c         1 FRI      0.208100
      6 O46         2.6560   -0.0000    3.9100 o         1 FRI     -0.506100
      7 C26         0.4850    0.0000    4.8340 c3        1 FRI     -0.114500
      8 C41         0.1540   -1.4420    5.2210 c3        1 FRI     -0.070400
      9 C32        -0.9290   -1.4440    6.3030 c3        1 FRI     -0.056700
     10 C37        -2.2280   -0.8810    5.7260 c3        1 FRI      0.006900
     11 C36        -1.1640   -2.8760    6.7870 c3        1 FRI      0.006900
     12 N7          1.0770    0.6900    5.9820 ny        1 FRI      0.130000
     13 C24         2.1800    0.1610    6.6090 c2        1 FRI     -0.124900
     14 N5          2.7000   -0.9550    6.1790 n2        1 FRI     -0.438100
     15 N4          2.7360    0.8090    7.6870 nz        1 FRI      0.234400
     16 N2          1.8870   -0.0000   -1.1670 n         1 FRI     -0.048800
     17 C31         3.3550    0.0060   -1.1840 c3        1 FRI      0.029500
     18 C39         3.8380   -1.1660   -2.0500 c3        1 FRI     -0.039400
     19 C19         3.1950   -1.0700   -3.4350 c3        1 FRI      0.044600
     20 C21         1.6740   -1.1660   -3.3000 c3        1 FRI     -0.039400
     21 C43         1.1650    0.0010   -2.4470 c3        1 FRI      0.029500
     22 C23         3.6950   -2.1980   -4.3010 cc        1 FRI     -0.261600
     23 N8          4.7810   -2.1620   -5.1020 na        1 FRI      0.514400
     24 C38         5.6850   -1.0210   -5.2740 c3        1 FRI      0.013600
     25 N6          4.9010   -3.4070   -5.7300 nc        1 FRI     -0.609800
     26 C13         3.1300   -3.4190   -4.4180 cd        1 FRI     -0.318300
     27 C14         3.9050   -4.1670   -5.3250 cd        1 FRI      0.427800
     28 C11         3.6480   -5.5660   -5.7460 ca        1 FRI     -0.135500
     29 C15         3.8410   -5.9420   -7.0740 ca        1 FRI     -0.007000
     30 C17         3.6010   -7.2430   -7.4640 ca        1 FRI     -0.211000
     31 C20         3.1650   -8.1790   -6.5360 ca        1 FRI      0.143100
     32 C33         2.9720   -7.8080   -5.2120 ca        1 FRI     -0.083600
     33 C34         3.2150   -6.5090   -4.8140 ca        1 FRI      0.015400
     34 Cl10        2.9730   -6.0450   -3.1590 cl        1 FRI     -0.013400
     35 Cl9         2.4280   -8.9830   -4.0540 cl        1 FRI      0.026600
     36 O45         2.9300   -9.4590   -6.9250 os        1 FRI     -0.263900
     37 C40         3.2160   -9.5270   -8.3220 c3        1 FRI      0.213700
     38 C22         2.9730  -10.9280   -8.8190 ca        1 FRI      0.004700
     39 C28         4.0010  -11.8540   -8.8040 ca        1 FRI     -0.060000
     40 C25         3.7800  -13.1400   -9.2530 ca        1 FRI     -0.064000
     41 C35         2.5270  -13.5030   -9.7290 ca        1 FRI     -0.074400
     42 C18         1.4990  -12.5700   -9.7470 ca        1 FRI     -0.064000
     43 C16         1.7250  -11.2870   -9.2930 ca        1 FRI     -0.060000
     44 N1          2.3020  -14.8040  -10.1910 ns        1 FRI      0.152900
     45 C12         1.4600  -15.0180  -11.2210 c         1 FRI      0.520100
     46 O44         0.9770  -14.0770  -11.8140 o         1 FRI     -0.529100
     47 C42         1.1180  -16.4270  -11.6350 c3        1 FRI     -0.060100
     48 H291        2.5890   -0.8850    1.3630 hx        1 FRI      0.102700
     49 H292        2.5890    0.8840    1.3620 hx        1 FRI      0.102700
     50 HN3         0.4430    0.8150    2.3110 hn        1 FRI      0.259800
     51 H26        -0.4220    0.5110    4.5340 hx        1 FRI      0.120700
     52 H411        1.0450   -1.9280    5.6010 hc        1 FRI      0.066200
     53 H412       -0.2050   -1.9770    4.3500 hc        1 FRI      0.066200
     54 H32        -0.6080   -0.8300    7.1360 hc        1 FRI     -0.003300
     55 H371       -2.3230   -1.1810    4.6890 hc        1 FRI      0.026700
     56 H372       -3.0700   -1.2630    6.2900 hc        1 FRI      0.026700
     57 H373       -2.2130    0.2000    5.7880 hc        1 FRI      0.026700
     58 H361       -1.9030   -2.8730    7.5790 hc        1 FRI      0.026700
     59 H362       -0.2350   -3.2880    7.1630 hc        1 FRI      0.026700
     60 H363       -1.5200   -3.4820    5.9630 hc        1 FRI      0.026700
     61 HN7         0.3590    0.7710    6.6760 hn        1 FRI      0.233300
     62 HN5         2.2970   -1.4280    5.3950 hn        1 FRI      0.397400
     63 HN41        2.0510    0.9030    8.4100 hn        1 FRI      0.227467
     64 HN42        3.0510    1.7160    7.4050 hn        1 FRI      0.227467
     65 H311        3.7090    0.9390   -1.6050 h1        1 FRI      0.042450
     66 H312        3.7300   -0.1100   -0.1740 h1        1 FRI      0.042450
     67 H391        3.5520   -2.1010   -1.5840 hc        1 FRI      0.042950
     68 H392        4.9160   -1.1210   -2.1490 hc        1 FRI      0.042950
     69 H19         3.4550   -0.1200   -3.8860 hc        1 FRI      0.040700
     70 H211        1.2210   -1.1170   -4.2830 hc        1 FRI      0.042950
     71 H212        1.4130   -2.1020   -2.8220 hc        1 FRI      0.042950
     72 H431        0.1040   -0.1180   -2.2660 h1        1 FRI      0.042450
     73 H432        1.3480    0.9350   -2.9650 h1        1 FRI      0.042450
     74 H381        6.6990   -1.3270   -5.0460 h1        1 FRI      0.028367
     75 H382        5.3900   -0.2220   -4.6050 h1        1 FRI      0.028367
     76 H383        5.6350   -0.6720   -6.2980 h1        1 FRI      0.028367
     77 H13         2.1990   -3.7350   -3.9640 ha        1 FRI      0.145000
     78 H15         4.1540   -5.2070   -7.8050 ha        1 FRI      0.127000
     79 H17         3.7530   -7.5340   -8.4960 ha        1 FRI      0.138000
     80 H401        4.2510   -9.2580   -8.4920 h1        1 FRI      0.033200
     81 H402        2.5720   -8.8380   -8.8560 h1        1 FRI      0.033200
     82 H28         4.9800  -11.5700   -8.4360 ha        1 FRI      0.135500
     83 H25         4.5850  -13.8650   -9.2400 ha        1 FRI      0.142500
     84 H18         0.5200  -12.8490  -10.1180 ha        1 FRI      0.142500
     85 H16         0.9220  -10.5600   -9.3040 ha        1 FRI      0.135500
     86 HN1         2.7510  -15.5780   -9.7430 hn        1 FRI      0.189500
     87 H421        0.3250  -16.4040  -12.3730 hc        1 FRI      0.045700
     88 H422        0.7890  -16.9880  -10.7690 hc        1 FRI      0.045700
     89 H423        1.9940  -16.9010  -12.0610 hc        1 FRI      0.045700
     90 H321        0.4420   -0.8130    2.3120 hn        1 FRI      0.259800
     91 H72         1.3280    1.6080    5.6720 hn        1 FRI      0.233300
     92 H43         3.5140    0.2800    8.0290 hn        1 FRI      0.227467
@<TRIPOS>BOND
     1    1    2 2   
     2    2    3 1   
     3    2   16 1   
     4    3    4 1   
     5    3   48 1   
     6    3   49 1   
     7    4    5 1   
     8    4   50 1   
     9    4   90 1   
    10    5    6 2   
    11    5    7 1   
    12    7    8 1   
    13    7   12 1   
    14    7   51 1   
    15    8    9 1   
    16    8   52 1   
    17    8   53 1   
    18    9   10 1   
    19    9   11 1   
    20    9   54 1   
    21   10   55 1   
    22   10   56 1   
    23   10   57 1   
    24   11   58 1   
    25   11   59 1   
    26   11   60 1   
    27   12   13 1   
    28   12   61 1   
    29   12   91 1   
    30   13   14 2   
    31   13   15 1   
    32   14   62 1   
    33   15   63 1   
    34   15   64 1   
    35   15   92 1   
    36   16   17 1   
    37   16   21 1   
    38   17   18 1   
    39   17   65 1   
    40   17   66 1   
    41   18   19 1   
    42   18   67 1   
    43   18   68 1   
    44   19   20 1   
    45   19   22 1   
    46   19   69 1   
    47   20   21 1   
    48   20   70 1   
    49   20   71 1   
    50   21   72 1   
    51   21   73 1   
    52   22   23 1   
    53   22   26 2   
    54   23   24 1   
    55   23   25 1   
    56   24   74 1   
    57   24   75 1   
    58   24   76 1   
    59   25   27 2   
    60   26   27 1   
    61   26   77 1   
    62   27   28 1   
    63   28   29 ar  
    64   28   33 ar  
    65   29   30 ar  
    66   29   78 1   
    67   30   31 ar  
    68   30   79 1   
    69   31   32 ar  
    70   31   36 1   
    71   32   33 ar  
    72   32   35 1   
    73   33   34 1   
    74   36   37 1   
    75   37   38 1   
    76   37   80 1   
    77   37   81 1   
    78   38   39 ar  
    79   38   43 ar  
    80   39   40 ar  
    81   39   82 1   
    82   40   41 ar  
    83   40   83 1   
    84   41   42 ar  
    85   41   44 1   
    86   42   43 ar  
    87   42   84 1   
    88   43   85 1   
    89   44   45 1   
    90   44   86 1   
    91   45   46 2   
    92   45   47 1   
    93   47   87 1   
    94   47   88 1   
    95   47   89 1   
@<TRIPOS>SUBSTRUCTURE
     1 FRI         1 TEMP              0 ****  ****    0 ROOT
