@<TRIPOS>MOLECULE
FRI
   89    92     1     0     0
SMALL
bcc


@<TRIPOS>ATOM
      1 O47         0.2370   -1.5930    5.6910 o         1 FRI     -0.613100
      2 C30        -0.7050   -0.7750    5.6470 c         1 FRI      0.632100
      3 C29        -0.6360    0.5520    6.4220 c3        1 FRI      0.019000
      4 N3          0.4670    0.6280    7.3330 n         1 FRI     -0.533900
      5 C27         0.2750    0.7470    8.6940 c         1 FRI      0.621100
      6 O46        -0.8480    0.9540    9.1930 o         1 FRI     -0.608100
      7 C26         1.5250    0.6750    9.6060 c3        1 FRI      0.123500
      8 C41         2.0040   -0.7800    9.6120 c3        1 FRI     -0.085400
      9 C32         3.0440   -1.0640   10.6880 c3        1 FRI     -0.068700
     10 C37         2.3920   -1.2410   12.0440 c3        1 FRI     -0.093100
     11 C36         3.8340   -2.3050   10.3240 c3        1 FRI     -0.093100
     12 N7          2.5230    1.6950    9.3570 nh        1 FRI     -0.782200
     13 C24         3.1920    1.7190    8.0670 c2        1 FRI      0.730100
     14 N5          2.9210    2.6860    7.2280 n2        1 FRI     -0.858100
     15 N4          4.1120    0.6540    7.8250 nh        1 FRI     -0.935800
     16 N2         -1.8590   -1.0710    4.9320 n         1 FRI     -0.459800
     17 C31        -2.8610   -0.0840    4.6060 c3        1 FRI      0.082500
     18 C39        -2.9540    0.2390    3.1120 c3        1 FRI     -0.098400
     19 C19        -3.1110   -1.0380    2.2930 c3        1 FRI      0.006600
     20 C21        -1.9810   -2.0060    2.6180 c3        1 FRI     -0.098400
     21 C43        -1.9160   -2.2730    4.1230 c3        1 FRI      0.082500
     22 C23        -3.1430   -0.7260    0.8430 cc        1 FRI     -0.107600
     23 N8         -4.3200   -0.4350    0.1180 na        1 FRI      0.095400
     24 C38        -5.6440   -0.4370    0.6890 c3        1 FRI      0.037600
     25 N6         -4.0650   -0.1820   -1.1700 nc        1 FRI     -0.492800
     26 C13        -2.0860   -0.6340   -0.0760 cd        1 FRI     -0.260300
     27 C14        -2.7100   -0.2870   -1.3360 cd        1 FRI      0.347800
     28 C11        -2.0350   -0.1070   -2.6120 ca        1 FRI     -0.128500
     29 C15        -2.4880   -0.8240   -3.7260 ca        1 FRI     -0.063000
     30 C17        -1.8590   -0.7050   -4.9600 ca        1 FRI     -0.205000
     31 C20        -0.7570    0.1480   -5.1020 ca        1 FRI      0.149100
     32 C33        -0.2900    0.8930   -3.9950 ca        1 FRI     -0.019600
     33 C34        -0.9390    0.7620   -2.7570 ca        1 FRI      0.061400
     34 CL10       -0.3970    1.6790   -1.4350 cl        1 FRI     -0.062400
     35 CL9         1.0370    1.9400   -4.1520 cl        1 FRI     -0.054400
     36 O45        -0.0620    0.3120   -6.2810 os        1 FRI     -0.313900
     37 C40        -0.6120   -0.3500   -7.4320 c3        1 FRI      0.181700
     38 C22         0.2160    0.0340   -8.6110 ca        1 FRI     -0.127300
     39 C28         0.8810    1.2610   -8.6720 ca        1 FRI     -0.083500
     40 C25         1.6200    1.6100   -9.7940 ca        1 FRI     -0.173500
     41 C35         1.7090    0.7290  -10.9010 ca        1 FRI      0.078600
     42 C18         1.0360   -0.5100  -10.8300 ca        1 FRI     -0.173500
     43 C16         0.3060   -0.8440   -9.6950 ca        1 FRI     -0.083500
     44 N1          2.4680    1.1300  -12.0110 n         1 FRI     -0.475100
     45 C12         2.6480    0.4520  -13.2110 c         1 FRI      0.666100
     46 O44         2.1290   -0.6510  -13.4550 o         1 FRI     -0.587100
     47 C42         3.5280    1.1410  -14.2300 c3        1 FRI     -0.179100
     48 H291       -1.5970    0.7080    6.9960 h1        1 FRI      0.087200
     49 H292       -0.5220    1.3770    5.6590 h1        1 FRI      0.087200
     50 HN3         1.3360    0.2680    7.0030 hn        1 FRI      0.332500
     51 H26         1.1400    0.9030   10.6530 h1        1 FRI      0.097700
     52 H411        2.3980   -1.0780    8.6060 hc        1 FRI      0.063200
     53 H412        1.0990   -1.4210    9.8020 hc        1 FRI      0.063200
     54 H32         3.7600   -0.1970   10.7560 hc        1 FRI      0.056700
     55 H371        3.1700   -1.4190   12.8240 hc        1 FRI      0.036033
     56 H372        1.8120   -0.3290   12.3240 hc        1 FRI      0.036033
     57 H373        1.6960   -2.1140   12.0360 hc        1 FRI      0.036033
     58 H361        3.1540   -3.1830   10.2080 hc        1 FRI      0.036033
     59 H362        4.3810   -2.1540    9.3620 hc        1 FRI      0.036033
     60 H363        4.5780   -2.5370   11.1230 hc        1 FRI      0.036033
     61 HN7         2.1250    2.6010    9.5480 hn        1 FRI      0.409800
     62 HN5         3.4740    2.7170    6.3990 hn        1 FRI      0.394400
     63 HN41        4.9090    0.9250    7.2930 hn        1 FRI      0.398800
     64 HN42        4.3490    0.1030    8.6230 hn        1 FRI      0.398800
     65 H311       -3.8580   -0.4940    4.9460 h1        1 FRI      0.060700
     66 H312       -2.6800    0.8750    5.1650 h1        1 FRI      0.060700
     67 H391       -2.0380    0.7900    2.7760 hc        1 FRI      0.059450
     68 H392       -3.8360    0.9100    2.9480 hc        1 FRI      0.059450
     69 H19        -4.0850   -1.5290    2.5930 hc        1 FRI      0.054700
     70 H211       -1.0060   -1.5870    2.2590 hc        1 FRI      0.059450
     71 H212       -2.1490   -2.9800    2.0900 hc        1 FRI      0.059450
     72 H431       -1.0170   -2.9160    4.3430 h1        1 FRI      0.060700
     73 H432       -2.8410   -2.8410    4.4330 h1        1 FRI      0.060700
     74 H381       -5.9310   -1.4890    0.9610 h1        1 FRI      0.059367
     75 H382       -5.6420    0.1980    1.6140 h1        1 FRI      0.059367
     76 H383       -6.3920   -0.0290   -0.0420 h1        1 FRI      0.059367
     77 H13        -1.0280   -0.7850    0.1020 ha        1 FRI      0.172000
     78 H15        -3.3560   -1.4940   -3.6200 ha        1 FRI      0.152000
     79 H17        -2.2370   -1.2860   -5.8120 ha        1 FRI      0.146000
     80 H401       -1.6760   -0.0150   -7.5780 h1        1 FRI      0.049700
     81 H402       -0.5810   -1.4600   -7.2640 h1        1 FRI      0.049700
     82 H28         0.8260    1.9520   -7.8140 ha        1 FRI      0.142500
     83 H25         2.1360    2.5820   -9.8100 ha        1 FRI      0.153000
     84 H18         1.0810   -1.2250  -11.6680 ha        1 FRI      0.153000
     85 H16        -0.2070   -1.8180   -9.6570 ha        1 FRI      0.142500
     86 HN1         2.9210    2.0120  -11.9210 hn        1 FRI      0.315500
     87 H421        3.5880    0.4950  -15.1400 hc        1 FRI      0.069367
     88 H422        3.0990    2.1310  -14.5160 hc        1 FRI      0.069367
     89 H423        4.5570    1.2910  -13.8230 hc        1 FRI      0.069367
@<TRIPOS>BOND
     1    1    2 2   
     2    2    3 1   
     3    2   16 1   
     4    3    4 1   
     5    3   48 1   
     6    3   49 1   
     7    4    5 1   
     8    4   50 1   
     9    5    6 2   
    10    5    7 1   
    11    7    8 1   
    12    7   12 1   
    13    7   51 1   
    14    8    9 1   
    15    8   52 1   
    16    8   53 1   
    17    9   10 1   
    18    9   11 1   
    19    9   54 1   
    20   10   55 1   
    21   10   56 1   
    22   10   57 1   
    23   11   58 1   
    24   11   59 1   
    25   11   60 1   
    26   12   13 1   
    27   12   61 1   
    28   13   14 2   
    29   13   15 1   
    30   14   62 1   
    31   15   63 1   
    32   15   64 1   
    33   16   17 1   
    34   16   21 1   
    35   17   18 1   
    36   17   65 1   
    37   17   66 1   
    38   18   19 1   
    39   18   67 1   
    40   18   68 1   
    41   19   20 1   
    42   19   22 1   
    43   19   69 1   
    44   20   21 1   
    45   20   70 1   
    46   20   71 1   
    47   21   72 1   
    48   21   73 1   
    49   22   23 1   
    50   22   26 2   
    51   23   24 1   
    52   23   25 1   
    53   24   74 1   
    54   24   75 1   
    55   24   76 1   
    56   25   27 2   
    57   26   27 1   
    58   26   77 1   
    59   27   28 1   
    60   28   29 ar  
    61   28   33 ar  
    62   29   30 ar  
    63   29   78 1   
    64   30   31 ar  
    65   30   79 1   
    66   31   32 ar  
    67   31   36 1   
    68   32   33 ar  
    69   32   35 1   
    70   33   34 1   
    71   36   37 1   
    72   37   38 1   
    73   37   80 1   
    74   37   81 1   
    75   38   39 ar  
    76   38   43 ar  
    77   39   40 ar  
    78   39   82 1   
    79   40   41 ar  
    80   40   83 1   
    81   41   42 ar  
    82   41   44 1   
    83   42   43 ar  
    84   42   84 1   
    85   43   85 1   
    86   44   45 1   
    87   44   86 1   
    88   45   46 2   
    89   45   47 1   
    90   47   87 1   
    91   47   88 1   
    92   47   89 1   
@<TRIPOS>SUBSTRUCTURE
     1 FRI         1 TEMP              0 ****  ****    0 ROOT
