@<TRIPOS>MOLECULE
FRI
   89    92     1     0     0
SMALL
bcc


@<TRIPOS>ATOM
      1 O47         0.2110   -0.6060    0.3730 o         1 FRI     -0.617100
      2 C30         1.4580   -0.5210    0.3700 c         1 FRI      0.633100
      3 C29         2.2560   -0.7040    1.6730 c3        1 FRI      0.012000
      4 N3          1.4300   -0.7370    2.8460 n         1 FRI     -0.536900
      5 C27         1.5680    0.2100    3.8480 c         1 FRI      0.609100
      6 O46         2.5490    0.9820    3.8710 o         1 FRI     -0.618100
      7 C26         0.4760    0.2470    4.9490 c3        1 FRI      0.130500
      8 C41         0.5430   -1.0550    5.7580 c3        1 FRI     -0.078400
      9 C32        -0.6770   -1.2690    6.6450 c3        1 FRI     -0.065700
     10 C37        -1.9010   -1.6370    5.8320 c3        1 FRI     -0.093600
     11 C36        -0.3810   -2.3600    7.6570 c3        1 FRI     -0.093600
     12 N7          0.4740    1.4600    5.7350 nh        1 FRI     -0.827200
     13 C24         1.4110    1.5460    6.8600 c2        1 FRI      0.731100
     14 N5          2.6930    1.3050    6.8540 n2        1 FRI     -0.861100
     15 N4          0.7920    2.0360    8.0450 nh        1 FRI     -0.881800
     16 N2          2.1410   -0.2120   -0.7960 n         1 FRI     -0.456800
     17 C31         3.5720   -0.3520   -0.9360 c3        1 FRI      0.083000
     18 C39         3.9960   -1.4430   -1.9240 c3        1 FRI     -0.097900
     19 C19         3.2960   -1.2580   -3.2670 c3        1 FRI      0.006600
     20 C21         1.7870   -1.2020   -3.0630 c3        1 FRI     -0.097900
     21 C43         1.4200   -0.1160   -2.0510 c3        1 FRI      0.083000
     22 C23         3.6660   -2.3510   -4.2000 cc        1 FRI     -0.109600
     23 N8          4.7700   -2.3060   -5.0790 na        1 FRI      0.096400
     24 C38         5.6590   -1.1770   -5.2070 c3        1 FRI      0.037600
     25 N6          4.8810   -3.4260   -5.8010 nc        1 FRI     -0.491800
     26 C13         3.0600   -3.6020   -4.3970 cd        1 FRI     -0.260300
     27 C14         3.8590   -4.2510   -5.4150 cd        1 FRI      0.348800
     28 C11         3.6180   -5.5650   -5.9920 ca        1 FRI     -0.129500
     29 C15         3.5390   -5.6910   -7.3840 ca        1 FRI     -0.063000
     30 C17         3.2860   -6.9210   -7.9790 ca        1 FRI     -0.205000
     31 C20         3.1100   -8.0590   -7.1830 ca        1 FRI      0.150100
     32 C33         3.1990   -7.9600   -5.7750 ca        1 FRI     -0.019600
     33 C34         3.4580   -6.7100   -5.1920 ca        1 FRI      0.062400
     34 CL10        3.5950   -6.5950   -3.5020 cl        1 FRI     -0.064400
     35 CL9         2.9990   -9.3300   -4.7940 cl        1 FRI     -0.053400
     36 O45         2.8380   -9.3140   -7.6850 os        1 FRI     -0.313900
     37 C40         2.8470   -9.4310   -9.1180 c3        1 FRI      0.181700
     38 C22         2.6170  -10.8660   -9.4530 ca        1 FRI     -0.128300
     39 C28         3.0200  -11.8930   -8.5950 ca        1 FRI     -0.083500
     40 C25         2.8250  -13.2230   -8.9430 ca        1 FRI     -0.174000
     41 C35         2.2170  -13.5630  -10.1780 ca        1 FRI      0.078600
     42 C18         1.8110  -12.5190  -11.0370 ca        1 FRI     -0.174000
     43 C16         2.0090  -11.1930  -10.6680 ca        1 FRI     -0.083500
     44 N1          2.0440  -14.9210  -10.4820 n         1 FRI     -0.475100
     45 C12         1.5230  -15.4760  -11.6450 c         1 FRI      0.666100
     46 O44         1.1260  -14.7940  -12.6060 o         1 FRI     -0.587100
     47 C42         1.4610  -16.9860  -11.6830 c3        1 FRI     -0.179100
     48 H291        3.0160    0.1250    1.7780 h1        1 FRI      0.087700
     49 H292        2.7980   -1.6920    1.5970 h1        1 FRI      0.087700
     50 HN3         0.5380   -1.1700    2.7320 hn        1 FRI      0.324500
     51 H26        -0.5230    0.2690    4.4050 h1        1 FRI      0.082700
     52 H411        0.6210   -1.9200    5.0480 hc        1 FRI      0.059700
     53 H412        1.4690   -1.0630    6.3920 hc        1 FRI      0.059700
     54 H32        -0.8960   -0.3170    7.2060 hc        1 FRI      0.056700
     55 H371       -1.7120   -2.5590    5.2300 hc        1 FRI      0.036700
     56 H372       -2.1800   -0.8090    5.1370 hc        1 FRI      0.036700
     57 H373       -2.7670   -1.8310    6.5100 hc        1 FRI      0.036700
     58 H361       -1.2690   -2.5290    8.3120 hc        1 FRI      0.036700
     59 H362        0.4860   -2.0740    8.3000 hc        1 FRI      0.036700
     60 H363       -0.1360   -3.3180    7.1390 hc        1 FRI      0.036700
     61 HN7         0.5790    2.2690    5.1490 hn        1 FRI      0.402800
     62 HN5         3.0980    1.0810    5.9710 hn        1 FRI      0.421400
     63 HN41        1.3270    1.8810    8.8730 hn        1 FRI      0.400300
     64 HN42       -0.1660    1.7790    8.1410 hn        1 FRI      0.400300
     65 H311        4.0550   -0.5660    0.0560 h1        1 FRI      0.061950
     66 H312        3.9700    0.6390   -1.3040 h1        1 FRI      0.061950
     67 H391        5.1070   -1.3850   -2.0600 hc        1 FRI      0.060200
     68 H392        3.7550   -2.4560   -1.5110 hc        1 FRI      0.060200
     69 H19         3.6240   -0.2670   -3.7000 hc        1 FRI      0.055700
     70 H211        1.2790   -0.9700   -4.0340 hc        1 FRI      0.060200
     71 H212        1.4140   -2.1980   -2.7110 hc        1 FRI      0.060200
     72 H431        0.3110   -0.1610   -1.8510 h1        1 FRI      0.061950
     73 H432        1.6580    0.8930   -2.4960 h1        1 FRI      0.061950
     74 H381        6.5400   -1.4360   -5.8520 h1        1 FRI      0.059367
     75 H382        5.1040   -0.3160   -5.6670 h1        1 FRI      0.059367
     76 H383        6.0200   -0.8820   -4.1860 h1        1 FRI      0.059367
     77 H13         2.1860   -4.0090   -3.9030 ha        1 FRI      0.172000
     78 H15         3.6800   -4.8000   -8.0160 ha        1 FRI      0.152000
     79 H17         3.2270   -6.9840   -9.0750 ha        1 FRI      0.146000
     80 H401        3.8450   -9.0950   -9.5110 h1        1 FRI      0.049700
     81 H402        2.0330   -8.7840   -9.5430 h1        1 FRI      0.049700
     82 H28         3.4870  -11.6410   -7.6290 ha        1 FRI      0.143000
     83 H25         3.1500  -14.0080   -8.2440 ha        1 FRI      0.153000
     84 H18         1.3320  -12.7410  -12.0050 ha        1 FRI      0.153000
     85 H16         1.6790  -10.3940  -11.3500 ha        1 FRI      0.143000
     86 HN1         2.3410  -15.5570   -9.7750 hn        1 FRI      0.315500
     87 H421        2.4830  -17.4250  -11.5840 hc        1 FRI      0.069367
     88 H422        0.8130  -17.3740  -10.8610 hc        1 FRI      0.069367
     89 H423        1.0270  -17.2980  -12.6650 hc        1 FRI      0.069367
@<TRIPOS>BOND
     1    1    2 2   
     2    2    3 1   
     3    2   16 1   
     4    3    4 1   
     5    3   48 1   
     6    3   49 1   
     7    4    5 1   
     8    4   50 1   
     9    5    6 2   
    10    5    7 1   
    11    7    8 1   
    12    7   12 1   
    13    7   51 1   
    14    8    9 1   
    15    8   52 1   
    16    8   53 1   
    17    9   10 1   
    18    9   11 1   
    19    9   54 1   
    20   10   55 1   
    21   10   56 1   
    22   10   57 1   
    23   11   58 1   
    24   11   59 1   
    25   11   60 1   
    26   12   13 1   
    27   12   61 1   
    28   13   14 2   
    29   13   15 1   
    30   14   62 1   
    31   15   63 1   
    32   15   64 1   
    33   16   17 1   
    34   16   21 1   
    35   17   18 1   
    36   17   65 1   
    37   17   66 1   
    38   18   19 1   
    39   18   67 1   
    40   18   68 1   
    41   19   20 1   
    42   19   22 1   
    43   19   69 1   
    44   20   21 1   
    45   20   70 1   
    46   20   71 1   
    47   21   72 1   
    48   21   73 1   
    49   22   23 1   
    50   22   26 2   
    51   23   24 1   
    52   23   25 1   
    53   24   74 1   
    54   24   75 1   
    55   24   76 1   
    56   25   27 2   
    57   26   27 1   
    58   26   77 1   
    59   27   28 1   
    60   28   29 ar  
    61   28   33 ar  
    62   29   30 ar  
    63   29   78 1   
    64   30   31 ar  
    65   30   79 1   
    66   31   32 ar  
    67   31   36 1   
    68   32   33 ar  
    69   32   35 1   
    70   33   34 1   
    71   36   37 1   
    72   37   38 1   
    73   37   80 1   
    74   37   81 1   
    75   38   39 ar  
    76   38   43 ar  
    77   39   40 ar  
    78   39   82 1   
    79   40   41 ar  
    80   40   83 1   
    81   41   42 ar  
    82   41   44 1   
    83   42   43 ar  
    84   42   84 1   
    85   43   85 1   
    86   44   45 1   
    87   44   86 1   
    88   45   46 2   
    89   45   47 1   
    90   47   87 1   
    91   47   88 1   
    92   47   89 1   
@<TRIPOS>SUBSTRUCTURE
     1 FRI         1 TEMP              0 ****  ****    0 ROOT
