@<TRIPOS>MOLECULE
FRJ
   60    64     1     0     0
SMALL
bcc


@<TRIPOS>ATOM
      1 O36         0.6940    0.7510   -0.0510 o         1 FRJ     -0.643800
      2 S33         2.0100    0.3330   -0.2850 sy        1 FRJ      1.527200
      3 O35         2.8650    0.2900    0.8400 o         1 FRJ     -0.643800
      4 N34         2.7800    1.3360   -1.3540 nu        1 FRJ     -0.837800
      5 C37         2.3250    1.7100   -2.6060 cc        1 FRJ      0.664300
      6 N38         1.2390    1.1830   -3.2110 nd        1 FRJ     -0.703000
      7 C39         1.0630    1.7910   -4.4410 cd        1 FRJ      0.372200
      8 C40         1.9960    2.7560   -4.7760 cc        1 FRJ     -0.264400
      9 S41         3.1240    2.9430   -3.5500 ss        1 FRJ     -0.126300
     10 C30         2.0180   -1.1540   -1.0360 ca        1 FRJ     -0.437500
     11 C31         3.1140   -2.0190   -0.9040 ca        1 FRJ      0.038000
     12 C32         3.1220   -3.2750   -1.4860 ca        1 FRJ     -0.221500
     13 C29         0.9200   -1.5970   -1.7860 ca        1 FRJ      0.038000
     14 C28         0.9010   -2.8500   -2.3830 ca        1 FRJ     -0.221500
     15 C27         2.0060   -3.7210   -2.2410 ca        1 FRJ      0.254600
     16 N16         2.0240   -4.9920   -2.8170 nu        1 FRJ     -0.763500
     17 S15         0.8000   -5.8680   -3.4820 sy        1 FRJ      1.518200
     18 O17         1.4140   -6.9260   -4.1810 o         1 FRJ     -0.640300
     19 O18        -0.0860   -5.0450   -4.1950 o         1 FRJ     -0.640300
     20 C2          0.0060   -6.4840   -2.1330 ca        1 FRJ     -0.390500
     21 C1          0.4160   -7.7120   -1.5810 ca        1 FRJ     -0.027000
     22 C3         -1.0790   -5.7950   -1.5760 ca        1 FRJ      0.014000
     23 C6         -1.6990   -6.3730   -0.4810 ca        1 FRJ      0.018100
     24 O7         -2.7830   -5.8450    0.2310 os        1 FRJ     -0.182200
     25 C5         -1.2930   -7.6210    0.0910 ca        1 FRJ     -0.004800
     26 C4         -0.2120   -8.2890   -0.4820 ca        1 FRJ     -0.122000
     27 C9         -2.1860   -7.8450    1.2140 cc        1 FRJ     -0.254400
     28 C8         -3.0420   -6.7490    1.2660 cd        1 FRJ      0.160900
     29 C13        -4.1510   -6.3830    2.1680 c3        1 FRJ     -0.038200
     30 C14        -3.6460   -5.6660    3.4000 c3        1 FRJ     -0.095100
     31 C10        -2.1850   -8.9490    2.1700 c         1 FRJ      0.623900
     32 O12        -2.5150   -8.7710    3.3530 o         1 FRJ     -0.534100
     33 C11        -1.7970  -10.2950    1.6930 ca        1 FRJ     -0.208600
     34 C19        -2.0280  -10.7000    0.3760 ca        1 FRJ     -0.013000
     35 C20        -1.7020  -11.9880   -0.0480 ca        1 FRJ     -0.108400
     36 Br26       -2.0550  -12.4480   -1.8280 br        1 FRJ     -0.053600
     37 C21        -1.1220  -12.8900    0.8740 ca        1 FRJ      0.211100
     38 O25        -0.8100  -14.1370    0.4110 oh        1 FRJ     -0.468100
     39 C22        -0.8880  -12.4850    2.2070 ca        1 FRJ     -0.108400
     40 C23        -1.2380  -11.1960    2.6070 ca        1 FRJ     -0.013000
     41 Br24       -0.1230  -13.6400    3.4690 br        1 FRJ     -0.053600
     42 H34         3.6580    1.7370   -1.1080 hn        1 FRJ      0.461800
     43 H39         0.2130    1.4700   -5.0550 h4        1 FRJ      0.049100
     44 H40         2.0140    3.3270   -5.7010 h4        1 FRJ      0.185000
     45 H31         3.9830   -1.6960   -0.3010 ha        1 FRJ      0.163000
     46 H32         4.0010   -3.9250   -1.3560 ha        1 FRJ      0.156500
     47 H29         0.0440   -0.9310   -1.9030 ha        1 FRJ      0.163000
     48 H28         0.0240   -3.1380   -2.9880 ha        1 FRJ      0.156500
     49 H16         2.9270   -5.4200   -2.7780 hn        1 FRJ      0.455800
     50 H1          1.2600   -8.2460   -2.0550 ha        1 FRJ      0.158000
     51 H3         -1.4310   -4.8400   -2.0000 ha        1 FRJ      0.175000
     52 H4          0.1300   -9.2530   -0.0770 ha        1 FRJ      0.157000
     53 H131       -4.6750   -7.3290    2.4760 hc        1 FRJ      0.078200
     54 H132       -4.8830   -5.7320    1.6170 hc        1 FRJ      0.078200
     55 H141       -3.0950   -4.7360    3.1200 hc        1 FRJ      0.053033
     56 H142       -4.5110   -5.3880    4.0480 hc        1 FRJ      0.053033
     57 H143       -2.9620   -6.3330    3.9810 hc        1 FRJ      0.053033
     58 H19        -2.4790   -9.9850   -0.3350 ha        1 FRJ      0.168500
     59 H25        -0.4360  -14.6590    1.1430 ho        1 FRJ      0.442000
     60 H23        -1.0850  -10.8690    3.6510 ha        1 FRJ      0.168500
@<TRIPOS>BOND
     1    1    2 2   
     2    2    3 2   
     3    2    4 1   
     4    2   10 1   
     5    4    5 1   
     6    4   42 1   
     7    5    6 2   
     8    5    9 1   
     9    6    7 1   
    10    7    8 2   
    11    7   43 1   
    12    8    9 1   
    13    8   44 1   
    14   10   11 ar  
    15   10   13 ar  
    16   11   12 ar  
    17   11   45 1   
    18   12   15 ar  
    19   12   46 1   
    20   13   14 ar  
    21   13   47 1   
    22   14   15 ar  
    23   14   48 1   
    24   15   16 1   
    25   16   17 1   
    26   16   49 1   
    27   17   18 2   
    28   17   19 2   
    29   17   20 1   
    30   20   21 ar  
    31   20   22 ar  
    32   21   26 ar  
    33   21   50 1   
    34   22   23 ar  
    35   22   51 1   
    36   23   24 1   
    37   23   25 ar  
    38   24   28 1   
    39   25   26 ar  
    40   25   27 1   
    41   26   52 1   
    42   27   28 2   
    43   27   31 1   
    44   28   29 1   
    45   29   30 1   
    46   29   53 1   
    47   29   54 1   
    48   30   55 1   
    49   30   56 1   
    50   30   57 1   
    51   31   32 2   
    52   31   33 1   
    53   33   34 ar  
    54   33   40 ar  
    55   34   35 ar  
    56   34   58 1   
    57   35   36 1   
    58   35   37 ar  
    59   37   38 1   
    60   37   39 ar  
    61   38   59 1   
    62   39   40 ar  
    63   39   41 1   
    64   40   60 1   
@<TRIPOS>SUBSTRUCTURE
     1 FRJ         1 TEMP              0 ****  ****    0 ROOT
