@<TRIPOS>MOLECULE
FRJ
   62    64     1     0     0
SMALL
bcc


@<TRIPOS>ATOM
      1 O36       207.0040  367.7000 -123.1840 o         1 FRJ     -0.448400
      2 S33       207.9210  367.9450 -122.2120 s4        1 FRJ      1.689300
      3 O35       207.8220  369.0450 -121.4100 o         1 FRJ     -0.448400
      4 N34       209.4910  369.0970 -123.5960 nh        1 FRJ     -0.950500
      5 C37       209.3570  368.6210 -124.9310 cc        1 FRJ      0.428300
      6 N38       209.3320  367.2940 -125.2180 nd        1 FRJ     -0.654000
      7 C39       209.1480  367.1320 -126.5690 cd        1 FRJ      0.354200
      8 C40       209.0310  368.3160 -127.2990 cc        1 FRJ     -0.242400
      9 S41       209.1610  369.6350 -126.3080 ss        1 FRJ      0.052700
     10 C30       208.8450  366.8120 -121.7440 ca        1 FRJ     -0.698500
     11 C31       209.6370  366.9240 -120.5600 ca        1 FRJ      0.081000
     12 C32       210.4370  365.9150 -120.1090 ca        1 FRJ     -0.244500
     13 C29       208.9430  365.5730 -122.4500 ca        1 FRJ      0.081000
     14 C28       209.7340  364.5440 -122.0250 ca        1 FRJ     -0.244500
     15 C27       210.5180  364.6690 -120.8270 ca        1 FRJ      0.327600
     16 N16       211.3000  363.6630 -120.3930 nh        1 FRJ     -0.796200
     17 S15      -147.9510 -268.8940   87.9800 s4        1 FRJ      1.657300
     18 O17      -146.7140 -268.8740   88.5250 o         1 FRJ     -0.400900
     19 O18      -148.5530 -267.7780   87.5080 o         1 FRJ     -0.400900
     20 C2       -148.7030 -270.2210   87.8940 ca        1 FRJ     -0.663500
     21 C1       -148.1010 -271.4350   88.3780 ca        1 FRJ      0.011000
     22 C3       -150.0150 -270.2980   87.3250 ca        1 FRJ      0.070000
     23 C6       -150.6190 -271.5230   87.2840 ca        1 FRJ     -0.002900
     24 O7       -151.8850 -271.8170   86.7570 os        1 FRJ     -0.167200
     25 C5       -150.0140 -272.7370   87.7820 ca        1 FRJ      0.103200
     26 C4       -148.7230 -272.6610   88.3300 ca        1 FRJ     -0.108000
     27 C9       -150.9700 -273.7820   87.5570 cc        1 FRJ     -0.256400
     28 C8       -152.0710 -273.1920   86.9240 cd        1 FRJ      0.224900
     29 C13      -153.3410 -273.7190   86.3890 c3        1 FRJ     -0.064200
     30 C14      -153.3110 -273.8170   84.8800 c3        1 FRJ     -0.097100
     31 C10      -150.7200 -275.1950   87.8910 c         1 FRJ      0.622900
     32 O12      -149.5900 -275.6680   87.7130 o         1 FRJ     -0.506100
     33 C11      -151.8240 -275.9880   88.4520 ca        1 FRJ     -0.233600
     34 C19      -151.7990 -277.3800   88.2970 ca        1 FRJ     -0.012500
     35 C20      -152.8090 -278.1720   88.8390 ca        1 FRJ     -0.109900
     36 BR26     -152.7320 -280.0240   88.5800 br        1 FRJ     -0.029600
     37 C21      -153.8540 -277.5660   89.5730 ca        1 FRJ      0.233100
     38 O25      -154.8750 -278.2690   90.1350 oh        1 FRJ     -0.455100
     39 C22      -153.8730 -276.1600   89.7510 ca        1 FRJ     -0.109900
     40 C23      -152.8560 -275.3940   89.1870 ca        1 FRJ     -0.012500
     41 BR24     -155.2090 -275.2780   90.7190 br        1 FRJ     -0.029600
     42 H34       210.4200  368.9080 -123.2470 hn        1 FRJ      0.415300
     43 H39       209.1010  366.1150 -126.9810 h4        1 FRJ      0.065100
     44 H40       208.8700  368.3650 -128.3770 h4        1 FRJ      0.209000
     45 H31       209.5830  367.8710 -119.9860 ha        1 FRJ      0.172000
     46 H32       211.0230  366.0470 -119.1840 ha        1 FRJ      0.169500
     47 H29       208.3480  365.4530 -123.3790 ha        1 FRJ      0.172000
     48 H28       209.7730  363.6060 -122.6040 ha        1 FRJ      0.169500
     49 H16       211.8350  363.7570 -119.5600 hn        1 FRJ      0.463300
     50 H1       -147.0810 -271.3680   88.8070 ha        1 FRJ      0.178000
     51 H3       -150.5120 -269.3900   86.9330 ha        1 FRJ      0.194000
     52 H4       -148.2280 -273.5810   88.6930 ha        1 FRJ      0.205000
     53 H131     -153.5230 -274.7340   86.8410 hc        1 FRJ      0.100700
     54 H132     -154.1810 -273.0390   86.7050 hc        1 FRJ      0.100700
     55 H141     -153.1270 -272.8150   84.4220 hc        1 FRJ      0.061700
     56 H142     -152.5140 -274.5210   84.5390 hc        1 FRJ      0.061700
     57 H143     -154.2980 -274.1990   84.5190 hc        1 FRJ      0.061700
     58 H19      -150.9610 -277.8400   87.7400 ha        1 FRJ      0.161000
     59 H25      -154.7420 -279.2210   89.9660 ho        1 FRJ      0.453000
     60 H23      -152.8550 -274.3000   89.3320 ha        1 FRJ      0.161000
     61 H342      209.3190  370.0890 -123.5600 hn        1 FRJ      0.415300
     62 H162      211.3480  362.8050 -120.8920 hn        1 FRJ      0.463300
@<TRIPOS>BOND
     1    1    2 1   
     2    2    3 1   
     3    2   10 1   
     4    4    5 1   
     5    4   42 1   
     6    4   61 1   
     7    5    6 2   
     8    5    9 1   
     9    6    7 1   
    10    7    8 2   
    11    7   43 1   
    12    8    9 1   
    13    8   44 1   
    14   10   11 ar  
    15   10   13 ar  
    16   11   12 ar  
    17   11   45 1   
    18   12   15 ar  
    19   12   46 1   
    20   13   14 ar  
    21   13   47 1   
    22   14   15 ar  
    23   14   48 1   
    24   15   16 1   
    25   16   49 1   
    26   16   62 1   
    27   17   18 1   
    28   17   19 1   
    29   17   20 1   
    30   20   21 ar  
    31   20   22 ar  
    32   21   26 ar  
    33   21   50 1   
    34   22   23 ar  
    35   22   51 1   
    36   23   24 1   
    37   23   25 ar  
    38   24   28 1   
    39   25   26 ar  
    40   25   27 1   
    41   26   52 1   
    42   27   28 2   
    43   27   31 1   
    44   28   29 1   
    45   29   30 1   
    46   29   53 1   
    47   29   54 1   
    48   30   55 1   
    49   30   56 1   
    50   30   57 1   
    51   31   32 2   
    52   31   33 1   
    53   33   34 ar  
    54   33   40 ar  
    55   34   35 ar  
    56   34   58 1   
    57   35   36 1   
    58   35   37 ar  
    59   37   38 1   
    60   37   39 ar  
    61   38   59 1   
    62   39   40 ar  
    63   39   41 1   
    64   40   60 1   
@<TRIPOS>SUBSTRUCTURE
     1 FRJ         1 TEMP              0 ****  ****    0 ROOT
