@<TRIPOS>MOLECULE
FRJ
   60    64     1     0     0
SMALL
bcc


@<TRIPOS>ATOM
      1 O36         2.5530   -0.7130    6.8000 o         1 FRJ     -0.643800
      2 S33         2.0550    0.5940    6.8840 sy        1 FRJ      1.527200
      3 O35         3.0070    1.6360    6.7930 o         1 FRJ     -0.643800
      4 N34         1.2910    0.8550    8.3300 nh        1 FRJ     -0.837800
      5 C37         0.2850    0.0810    8.8800 cc        1 FRJ      0.664300
      6 N38        -0.3370   -0.9310    8.2380 nd        1 FRJ     -0.703000
      7 C39        -1.2770   -1.4960    9.0800 cd        1 FRJ      0.372200
      8 C40        -1.3810   -0.9270   10.3360 cc        1 FRJ     -0.264400
      9 S41        -0.2910    0.3350   10.5100 ss        1 FRJ     -0.126300
     10 C30         0.8680    0.8340    5.7410 ca        1 FRJ     -0.437500
     11 C31         0.5940    2.1190    5.2500 ca        1 FRJ      0.038000
     12 C32        -0.3590    2.3340    4.2700 ca        1 FRJ     -0.221500
     13 C29         0.1390   -0.2390    5.2120 ca        1 FRJ      0.038000
     14 C28        -0.8250   -0.0540    4.2300 ca        1 FRJ     -0.221500
     15 C27        -1.0930    1.2430    3.7330 ca        1 FRJ      0.254600
     16 N16        -2.0470    1.4720    2.7420 nh        1 FRJ     -0.763500
     17 S15        -2.8220    0.4070    1.7560 sy        1 FRJ      1.518200
     18 O17        -3.8870    1.1210    1.1720 o         1 FRJ     -0.640300
     19 O18        -3.1320   -0.7830    2.4340 o         1 FRJ     -0.640300
     20 C2         -1.6670    0.0780    0.5790 ca        1 FRJ     -0.390500
     21 C1         -1.5860    0.8900   -0.5690 ca        1 FRJ     -0.027000
     22 C3         -0.8050   -1.0170    0.7200 ca        1 FRJ      0.014000
     23 C6          0.1060   -1.2400   -0.2990 ca        1 FRJ      0.018100
     24 O7          1.0620   -2.2630   -0.3450 os        1 FRJ     -0.182200
     25 C5          0.1990   -0.4230   -1.4700 ca        1 FRJ     -0.004800
     26 C4         -0.6710    0.6590   -1.5900 ca        1 FRJ     -0.122000
     27 C9          1.2790   -0.9910   -2.2580 cc        1 FRJ     -0.254400
     28 C8          1.7720   -2.0730   -1.5350 cd        1 FRJ      0.161900
     29 C13         2.8570   -3.0400   -1.7890 c3        1 FRJ     -0.038200
     30 C14         4.1920   -2.5050   -1.3220 c3        1 FRJ     -0.095100
     31 C10         1.8220   -0.5180   -3.5280 c         1 FRJ      0.623900
     32 O12         3.0270   -0.6460   -3.7950 o         1 FRJ     -0.535100
     33 C11         0.8990    0.1020   -4.5040 ca        1 FRJ     -0.208600
     34 C19        -0.4460   -0.2700   -4.5790 ca        1 FRJ     -0.013000
     35 C20        -1.2940    0.2880   -5.5350 ca        1 FRJ     -0.108400
     36 BR26       -3.0780   -0.2760   -5.5700 br        1 FRJ     -0.053600
     37 C21        -0.7780    1.2500   -6.4350 ca        1 FRJ      0.211100
     38 O25        -1.6490    1.7750   -7.3480 oh        1 FRJ     -0.468100
     39 C22         0.5810    1.6270   -6.3630 ca        1 FRJ     -0.108400
     40 C23         1.4090    1.0430   -5.4070 ca        1 FRJ     -0.013000
     41 BR24        1.3140    2.8960   -7.5320 br        1 FRJ     -0.053600
     42 H34         1.5570    1.6320    8.8950 hn        1 FRJ      0.461800
     43 H39        -1.8660   -2.3390    8.6990 h4        1 FRJ      0.049100
     44 H40        -2.0680   -1.2390   11.1190 h4        1 FRJ      0.185000
     45 H31         1.1710    2.9770    5.6410 ha        1 FRJ      0.163000
     46 H32        -0.5430    3.3580    3.9100 ha        1 FRJ      0.156500
     47 H29         0.3390   -1.2620    5.5840 ha        1 FRJ      0.163000
     48 H28        -1.3920   -0.9290    3.8690 ha        1 FRJ      0.156500
     49 H16        -2.2460    2.4440    2.6160 hn        1 FRJ      0.455800
     50 H1         -2.2950    1.7340   -0.6660 ha        1 FRJ      0.158000
     51 H3         -0.8580   -1.6790    1.6010 ha        1 FRJ      0.175000
     52 H4         -0.6370    1.3100   -2.4760 ha        1 FRJ      0.157000
     53 H131        2.8990   -3.2320   -2.8970 hc        1 FRJ      0.078200
     54 H132        2.6260   -4.0080   -1.2680 hc        1 FRJ      0.078200
     55 H141        4.9840   -3.2690   -1.5130 hc        1 FRJ      0.053033
     56 H142        4.4520   -1.5720   -1.8820 hc        1 FRJ      0.053033
     57 H143        4.1690   -2.2780   -0.2300 hc        1 FRJ      0.053033
     58 H19        -0.8360   -1.0210   -3.8680 ha        1 FRJ      0.168500
     59 H25        -1.1690    2.4070   -7.9120 ho        1 FRJ      0.442000
     60 H23         2.4810    1.3070   -5.3510 ha        1 FRJ      0.168500
@<TRIPOS>BOND
     1    1    2 2   
     2    2    3 2   
     3    2    4 1   
     4    2   10 1   
     5    4    5 1   
     6    4   42 1   
     7    5    6 2   
     8    5    9 1   
     9    6    7 1   
    10    7    8 2   
    11    7   43 1   
    12    8    9 1   
    13    8   44 1   
    14   10   11 ar  
    15   10   13 ar  
    16   11   12 ar  
    17   11   45 1   
    18   12   15 ar  
    19   12   46 1   
    20   13   14 ar  
    21   13   47 1   
    22   14   15 ar  
    23   14   48 1   
    24   15   16 1   
    25   16   17 1   
    26   16   49 1   
    27   17   18 2   
    28   17   19 2   
    29   17   20 1   
    30   20   21 ar  
    31   20   22 ar  
    32   21   26 ar  
    33   21   50 1   
    34   22   23 ar  
    35   22   51 1   
    36   23   24 1   
    37   23   25 ar  
    38   24   28 1   
    39   25   26 ar  
    40   25   27 1   
    41   26   52 1   
    42   27   28 2   
    43   27   31 1   
    44   28   29 1   
    45   29   30 1   
    46   29   53 1   
    47   29   54 1   
    48   30   55 1   
    49   30   56 1   
    50   30   57 1   
    51   31   32 2   
    52   31   33 1   
    53   33   34 ar  
    54   33   40 ar  
    55   34   35 ar  
    56   34   58 1   
    57   35   36 1   
    58   35   37 ar  
    59   37   38 1   
    60   37   39 ar  
    61   38   59 1   
    62   39   40 ar  
    63   39   41 1   
    64   40   60 1   
@<TRIPOS>SUBSTRUCTURE
     1 FRJ         1 TEMP              0 ****  ****    0 ROOT
