@<TRIPOS>MOLECULE
FRJ
   60    49     1     0     0
SMALL
bcc


@<TRIPOS>ATOM
      1 O36        -4.9680    0.8600    5.8490 o         1 FRJ     -0.914500
      2 S33        -3.9170    1.8190    6.0830 ss        1 FRJ      2.881000
      3 O35        -4.6750    3.0400    6.2100 o         1 FRJ     -0.914500
      4 N34        -3.0900    1.4760    7.4780 n2        1 FRJ     -0.779000
      5 C37        -3.7110    1.6910    8.7470 c2        1 FRJ     -0.118000
      6 N38        -4.9940    2.2820    8.9670 n2        1 FRJ     -0.162000
      7 C39        -5.2880    2.2740   10.5120 c1        1 FRJ     -0.090000
      8 C40        -4.1610    1.6710   11.1860 c1        1 FRJ     -0.470000
      9 S41        -3.1340    1.2830   10.1230 ss        1 FRJ      0.453000
     10 C30        -2.7910    1.8960    4.7000 c1        1 FRJ     -0.861000
     11 C31        -1.9060    2.9640    4.5850 c2        1 FRJ     -0.004000
     12 C32        -0.9630    2.9790    3.5620 c1        1 FRJ     -0.166500
     13 C29        -2.7320    0.8430    3.7930 c1        1 FRJ      0.018500
     14 C28        -1.7880    0.8590    2.7690 c1        1 FRJ     -0.225000
     15 C27        -0.9030    1.9270    2.6540 c1        1 FRJ      0.171000
     16 N16         0.1290    1.8990    1.6560 n3        1 FRJ     -0.811000
     17 S15         0.8940    0.4790    1.3010 s4        1 FRJ      2.073800
     18 O17         0.1110   -0.6590    1.7240 o         1 FRJ     -0.527900
     19 O18         2.0850    0.3120    2.1020 o         1 FRJ     -0.527900
     20 C2          1.2680    0.3960   -0.4390 c1        1 FRJ     -0.861000
     21 C1          2.5010    0.6730   -1.0260 c2        1 FRJ     -0.004000
     22 C3          0.4870   -0.6490   -0.9210 c1        1 FRJ      0.018500
     23 C6          0.9450   -1.4290   -2.0040 c1        1 FRJ     -0.009000
     24 O7          0.4160   -2.5590   -2.6270 o         1 FRJ     -0.094000
     25 C5          2.1620   -1.1560   -2.5830 c1        1 FRJ     -0.009000
     26 C4          2.9520   -0.0960   -2.0940 c1        1 FRJ     -0.166500
     27 C9          2.3940   -2.1130   -3.5660 c1        1 FRJ     -0.247000
     28 C8          1.3100   -2.9760   -3.5870 c1        1 FRJ      0.124000
     29 C13         1.7140   -4.0710   -4.5770 c2        1 FRJ     -0.132000
     30 C14         1.9080   -5.3950   -3.8240 c3        1 FRJ     -0.212000
     31 C10         1.4120   -1.4320   -4.5120 c1        1 FRJ      0.347000
     32 O12         0.2190   -1.3990   -4.2360 o         1 FRJ     -0.296000
     33 C11         1.9130   -0.7890   -5.7940 c2        1 FRJ     -0.188000
     34 C19         2.5070    0.4690   -5.7530 c2        1 FRJ     -0.024000
     35 C20         2.8660    1.1060   -6.9330 c1        1 FRJ     -0.220000
     36 BR26        3.6260    2.8610   -6.8790 br        1 FRJ      0.098000
     37 C21         2.6320    0.4870   -8.1550 c2        1 FRJ      0.167000
     38 O25         2.9500    1.1580   -9.3590 oh        1 FRJ     -0.222000
     39 C22         2.0390   -0.7690   -8.1960 c1        1 FRJ     -0.278000
     40 C23         1.6800   -1.4060   -7.0160 c1        1 FRJ     -0.002000
     41 BR24        1.7260   -1.6250   -9.8790 br        1 FRJ      0.076000
     42 H34        -2.2470    1.1060    7.4340 hn        1 FRJ      0.254000
     43 H39        -6.1000    2.6210   10.9460 DU        1 FRJ      0.185500
     44 H40        -4.0710    1.5350   12.1540 DU        1 FRJ      0.185500
     45 H31        -1.9470    3.7070    5.2250 ha        1 FRJ      0.160000
     46 H32        -0.3390    3.7320    3.4810 ha        1 FRJ      0.151000
     47 H29        -3.3570    0.0880    3.8740 ha        1 FRJ      0.166500
     48 H28        -1.7470    0.1170    2.1300 ha        1 FRJ      0.172000
     49 H16         0.4030    2.6800    1.2560 hn        1 FRJ      0.252000
     50 H1          3.0580    1.4000   -0.6760 ha        1 FRJ      0.160000
     51 H3         -0.4100   -0.7990   -0.5550 ha        1 FRJ      0.166500
     52 H4          3.8240    0.0990   -2.5090 ha        1 FRJ      0.151000
     53 H131        2.5580   -3.8180   -5.0200 ha        1 FRJ      0.130000
     54 H132        1.0070   -4.1780   -5.2550 ha        1 FRJ      0.130000
     55 H141        2.7180   -5.3410   -3.2680 hc        1 FRJ      0.088000
     56 H142        1.1260   -5.5650   -3.2480 hc        1 FRJ      0.088000
     57 H143        2.0040   -6.1280   -4.4690 hc        1 FRJ      0.088000
     58 H19         2.6570    0.9130   -4.8890 ha        1 FRJ      0.164000
     59 H25         3.7790    0.9450   -9.6080 ho        1 FRJ      0.241000
     60 H23         1.2610   -2.2950   -7.0450 ha        1 FRJ      0.173000
@<TRIPOS>BOND
     1    1    2 1   
     2    2    3 1   
     3    4    5 1   
     4    4   42 1   
     5    5    6 1   
     6    5    9 1   
     7    6    7 1   
     8    7    8 1   
     9    8    9 1   
    10   10   11 1   
    11   10   13 1   
    12   11   12 1   
    13   11   45 1   
    14   12   46 1   
    15   13   47 1   
    16   14   15 1   
    17   14   48 1   
    18   15   16 1   
    19   16   17 1   
    20   16   49 1   
    21   17   18 1   
    22   17   19 1   
    23   20   21 1   
    24   20   22 1   
    25   21   26 1   
    26   21   50 1   
    27   22   51 1   
    28   23   25 1   
    29   24   28 1   
    30   26   52 1   
    31   27   28 1   
    32   29   30 1   
    33   29   53 1   
    34   29   54 1   
    35   30   55 1   
    36   30   56 1   
    37   30   57 1   
    38   31   32 1   
    39   31   33 1   
    40   33   34 1   
    41   33   40 1   
    42   34   35 1   
    43   34   58 1   
    44   35   37 1   
    45   37   38 1   
    46   37   39 1   
    47   38   59 1   
    48   39   41 1   
    49   40   60 1   
@<TRIPOS>SUBSTRUCTURE
     1 FRJ         1 TEMP              0 ****  ****    0 ROOT
