@<TRIPOS>MOLECULE
FRK
   50    52     1     0     0
SMALL
bcc


@<TRIPOS>ATOM
      1 C1          0.0830   -0.5950   -0.1980 cc        1 FRK      0.286300
      2 S2          1.7820   -0.6010   -0.0900 ss        1 FRK      0.102700
      3 C3          1.7130   -0.2510    1.5420 cc        1 FRK     -0.045400
      4 C4          0.3620   -0.1320    1.9650 cd        1 FRK      0.419800
      5 N5         -0.5610   -0.3240    0.9700 nd        1 FRK     -0.580000
      6 C6          2.9070   -0.0780    2.3220 ca        1 FRK     -0.122000
      7 N7         -0.6560   -0.8640   -1.4170 n4        1 FRK     -0.618500
      8 C8         -1.3340    0.4050   -1.9460 c         1 FRK      0.570100
      9 C9         -2.7170    0.6690   -1.4380 c3        1 FRK     -0.158400
     10 O10        -0.6660    1.0430   -2.7400 o         1 FRK     -0.409100
     11 C11        -3.7150   -0.3430   -1.9710 c3        1 FRK     -0.084400
     12 C12        -5.1240    0.0720   -1.5940 c3        1 FRK     -0.081400
     13 C15        -6.1360   -0.9360   -2.0980 c3        1 FRK     -0.079400
     14 C18        -7.5400   -0.5270   -1.7320 c3        1 FRK     -0.097100
     15 C21        -0.0750    0.1470    3.3340 ca        1 FRK     -0.202500
     16 C22        -0.6720    1.3800    3.6380 ca        1 FRK     -0.061500
     17 C23        -1.1060    1.6510    4.9280 ca        1 FRK     -0.188000
     18 C24        -0.9490    0.6690    5.9250 ca        1 FRK      0.157100
     19 C25        -0.3610   -0.5700    5.6270 ca        1 FRK     -0.188000
     20 C26         0.0710   -0.8270    4.3300 ca        1 FRK     -0.061500
     21 C31         2.9670    0.8730    3.3530 ca        1 FRK     -0.051000
     22 C32         4.1360    1.0550    4.0820 ca        1 FRK     -0.188000
     23 C33         5.2650    0.2750    3.7840 ca        1 FRK      0.178100
     24 C34         5.2210   -0.6890    2.7540 ca        1 FRK     -0.188000
     25 C35         4.0500   -0.8540    2.0350 ca        1 FRK     -0.051000
     26 O40        -1.3980    0.9990    7.1770 oh        1 FRK     -0.481100
     27 O41         6.4500    0.3910    4.4530 oh        1 FRK     -0.473100
     28 HN7        -1.3800   -1.5730   -1.2310 hn        1 FRK      0.463800
     29 H91        -2.9990    1.7040   -1.7850 hc        1 FRK      0.124200
     30 H92        -2.7250    0.6700   -0.3130 hc        1 FRK      0.124200
     31 H111       -3.6350   -0.4130   -3.0880 hc        1 FRK      0.050700
     32 H112       -3.5070   -1.3600   -1.5460 hc        1 FRK      0.050700
     33 H121       -5.2060    0.1630   -0.4780 hc        1 FRK      0.057200
     34 H122       -5.3500    1.0810   -2.0300 hc        1 FRK      0.057200
     35 H151       -5.9120   -1.9450   -1.6600 hc        1 FRK      0.043700
     36 H152       -6.0490   -1.0300   -3.2130 hc        1 FRK      0.043700
     37 H181       -7.6540   -0.4510   -0.6240 hc        1 FRK      0.044367
     38 H182       -7.7930    0.4640   -2.1810 hc        1 FRK      0.044367
     39 H183       -8.2710   -1.2820   -2.1110 hc        1 FRK      0.044367
     40 H22        -0.7980    2.1390    2.8510 ha        1 FRK      0.141000
     41 H23        -1.5720    2.6130    5.1860 ha        1 FRK      0.158000
     42 H25        -0.2470   -1.3340    6.4100 ha        1 FRK      0.158000
     43 H26         0.5300   -1.7980    4.0910 ha        1 FRK      0.141000
     44 H31         2.0760    1.4800    3.5870 ha        1 FRK      0.144000
     45 H32         4.1760    1.8050    4.8860 ha        1 FRK      0.163000
     46 H34         6.1160   -1.2930    2.5420 ha        1 FRK      0.163000
     47 H35         4.0100   -1.6120    1.2360 ha        1 FRK      0.144000
     48 H40        -1.2510    0.2430    7.7660 ho        1 FRK      0.432000
     49 H41         6.3590    1.0770    5.1330 ho        1 FRK      0.437000
     50 H72         0.0010   -1.2250   -2.1190 hn        1 FRK      0.463800
@<TRIPOS>BOND
     1    1    2 1   
     2    1    5 2   
     3    1    7 1   
     4    2    3 1   
     5    3    4 2   
     6    3    6 1   
     7    4    5 1   
     8    4   15 1   
     9    6   21 ar  
    10    6   25 ar  
    11    7    8 1   
    12    7   28 1   
    13    7   50 1   
    14    8    9 1   
    15    8   10 2   
    16    9   11 1   
    17    9   29 1   
    18    9   30 1   
    19   11   12 1   
    20   11   31 1   
    21   11   32 1   
    22   12   13 1   
    23   12   33 1   
    24   12   34 1   
    25   13   14 1   
    26   13   35 1   
    27   13   36 1   
    28   14   37 1   
    29   14   38 1   
    30   14   39 1   
    31   15   16 ar  
    32   15   20 ar  
    33   16   17 ar  
    34   16   40 1   
    35   17   18 ar  
    36   17   41 1   
    37   18   19 ar  
    38   18   26 1   
    39   19   20 ar  
    40   19   42 1   
    41   20   43 1   
    42   21   22 ar  
    43   21   44 1   
    44   22   23 ar  
    45   22   45 1   
    46   23   24 ar  
    47   23   27 1   
    48   24   25 ar  
    49   24   46 1   
    50   25   47 1   
    51   26   48 1   
    52   27   49 1   
@<TRIPOS>SUBSTRUCTURE
     1 FRK         1 TEMP              0 ****  ****    0 ROOT
