@<TRIPOS>MOLECULE
FRK
   49    51     1     0     0
SMALL
bcc


@<TRIPOS>ATOM
      1 C1         -0.8480   -0.4880    0.8330 cc        1 FRK      0.485300
      2 S2          0.7380    0.0750    0.4480 ss        1 FRK      0.030700
      3 C3          1.1920   -0.0350    2.0600 cc        1 FRK     -0.203400
      4 C4          0.1320   -0.4990    2.8480 cd        1 FRK      0.439800
      5 N5         -1.0420   -0.7550    2.1480 nd        1 FRK     -0.688000
      6 C6          2.5170    0.3480    2.4960 ca        1 FRK     -0.046000
      7 N7         -1.8520   -0.6640   -0.1200 ns        1 FRK     -0.530400
      8 C8         -1.6910   -0.3710   -1.4700 c         1 FRK      0.658100
      9 C9         -2.8810   -0.6170   -2.3750 c3        1 FRK     -0.149400
     10 O10        -0.6060    0.0580   -1.9060 o         1 FRK     -0.585100
     11 C11        -4.0540    0.2730   -2.0260 c3        1 FRK     -0.080400
     12 C12        -5.1650    0.1150   -3.0450 c3        1 FRK     -0.080400
     13 C15        -6.3520    0.9870   -2.6970 c3        1 FRK     -0.080400
     14 C18        -7.4590    0.8380   -3.7080 c3        1 FRK     -0.093100
     15 C21         0.1810   -0.7300    4.2910 ca        1 FRK     -0.156500
     16 C22        -0.9160   -0.3980    5.1020 ca        1 FRK     -0.066500
     17 C23        -0.8750   -0.6180    6.4730 ca        1 FRK     -0.193000
     18 C24         0.2770   -1.1850    7.0420 ca        1 FRK      0.129100
     19 C25         1.3770   -1.5280    6.2440 ca        1 FRK     -0.193000
     20 C26         1.3220   -1.2990    4.8730 ca        1 FRK     -0.066500
     21 C31         2.7190    1.5650    3.1630 ca        1 FRK     -0.076000
     22 C32         3.9940    1.9490    3.5660 ca        1 FRK     -0.188500
     23 C33         5.0820    1.1070    3.2980 ca        1 FRK      0.129100
     24 C34         4.8980   -0.1160    2.6310 ca        1 FRK     -0.188500
     25 C35         3.6180   -0.4850    2.2370 ca        1 FRK     -0.076000
     26 O40         0.2590   -1.3790    8.4050 oh        1 FRK     -0.498100
     27 O41         6.3710    1.4180    3.6640 oh        1 FRK     -0.497100
     28 HN7        -2.7360   -0.9970    0.1990 hn        1 FRK      0.339500
     29 H91        -3.1790   -1.6970   -2.3150 hc        1 FRK      0.079200
     30 H92        -2.5430   -0.4120   -3.4270 hc        1 FRK      0.079200
     31 H111       -4.4470    0.0180   -1.0070 hc        1 FRK      0.049700
     32 H112       -3.7210    1.3440   -1.9980 hc        1 FRK      0.049700
     33 H121       -4.7830    0.3880   -4.0640 hc        1 FRK      0.044200
     34 H122       -5.4870   -0.9590   -3.0880 hc        1 FRK      0.044200
     35 H151       -6.0260    2.0600   -2.6500 hc        1 FRK      0.041700
     36 H152       -6.7330    0.7130   -1.6780 hc        1 FRK      0.041700
     37 H181       -8.3240    1.4890   -3.4340 hc        1 FRK      0.035033
     38 H182       -7.1060    1.1320   -4.7260 hc        1 FRK      0.035033
     39 H183       -7.8140   -0.2200   -3.7520 hc        1 FRK      0.035033
     40 H22        -1.8200    0.0400    4.6510 ha        1 FRK      0.146000
     41 H23        -1.7270   -0.3590    7.1170 ha        1 FRK      0.142000
     42 H25         2.2740   -1.9750    6.6960 ha        1 FRK      0.142000
     43 H26         2.1830   -1.5620    4.2380 ha        1 FRK      0.146000
     44 H31         1.8590    2.2200    3.3740 ha        1 FRK      0.142000
     45 H32         4.1460    2.9030    4.0890 ha        1 FRK      0.144000
     46 H34         5.7650   -0.7610    2.4300 ha        1 FRK      0.144000
     47 H35         3.4650   -1.4430    1.7160 ha        1 FRK      0.142000
     48 H40         1.1030   -1.7790    8.6590 ho        1 FRK      0.419000
     49 H41         6.3560    2.2800    4.1040 ho        1 FRK      0.420000
@<TRIPOS>BOND
     1    1    2 1   
     2    1    5 2   
     3    1    7 1   
     4    2    3 1   
     5    3    4 2   
     6    3    6 1   
     7    4    5 1   
     8    4   15 1   
     9    6   21 ar  
    10    6   25 ar  
    11    7    8 1   
    12    7   28 1   
    13    8    9 1   
    14    8   10 2   
    15    9   11 1   
    16    9   29 1   
    17    9   30 1   
    18   11   12 1   
    19   11   31 1   
    20   11   32 1   
    21   12   13 1   
    22   12   33 1   
    23   12   34 1   
    24   13   14 1   
    25   13   35 1   
    26   13   36 1   
    27   14   37 1   
    28   14   38 1   
    29   14   39 1   
    30   15   16 ar  
    31   15   20 ar  
    32   16   17 ar  
    33   16   40 1   
    34   17   18 ar  
    35   17   41 1   
    36   18   19 ar  
    37   18   26 1   
    38   19   20 ar  
    39   19   42 1   
    40   20   43 1   
    41   21   22 ar  
    42   21   44 1   
    43   22   23 ar  
    44   22   45 1   
    45   23   24 ar  
    46   23   27 1   
    47   24   25 ar  
    48   24   46 1   
    49   25   47 1   
    50   26   48 1   
    51   27   49 1   
@<TRIPOS>SUBSTRUCTURE
     1 FRK         1 TEMP              0 ****  ****    0 ROOT
