@<TRIPOS>MOLECULE
FRK
   49    44     1     0     0
SMALL
bcc


@<TRIPOS>ATOM
      1 C1         -0.6550    0.7330    0.1110 c1        1 FRK      0.379900
      2 S2          0.8880    0.7570    0.1150 ss        1 FRK      0.147300
      3 C3          1.3430    0.7590    1.5710 ce        1 FRK     -0.134100
      4 C4          0.1660    0.7380    2.4020 cf        1 FRK      0.528000
      5 N5         -1.0970    0.7220    1.4700 n1        1 FRK     -0.977500
      6 C6          2.6570    0.7280    2.0150 cg        1 FRK     -0.078300
      7 N7         -1.4890    0.8450   -1.0370 n2        1 FRK     -0.545400
      8 C8         -1.7000   -0.2830   -1.8740 c2        1 FRK      0.617300
      9 C9         -2.6700   -0.1920   -3.0340 c3        1 FRK     -0.144400
     10 O10        -1.1680   -1.3420   -1.6100 o         1 FRK     -0.609300
     11 C11        -2.1850   -1.0730   -4.1690 c3        1 FRK     -0.075400
     12 C12        -3.2330   -1.1080   -5.2640 c3        1 FRK     -0.080400
     13 C15        -2.5880   -1.5280   -6.5640 c3        1 FRK     -0.079400
     14 C18        -3.6520   -1.6900   -7.6240 c3        1 FRK     -0.093100
     15 C21         0.1500    0.7560    3.7890 ch        1 FRK     -0.082300
     16 C22         0.3320   -0.4210    4.4970 c1        1 FRK     -0.071750
     17 C23         0.2150   -0.4240    5.8780 c1        1 FRK     -0.071750
     18 C24        -0.0830    0.7500    6.5500 c1        1 FRK      0.113100
     19 C25        -0.2650    1.9270    5.8420 c1        1 FRK     -0.135000
     20 C26        -0.1480    1.9300    4.4620 c1        1 FRK     -0.006500
     21 C31         3.0900   -0.5070    1.5610 c1        1 FRK     -0.024500
     22 C32         4.4360   -0.7170    1.2990 c1        1 FRK     -0.135000
     23 C33         5.3470    0.3100    1.4920 c1        1 FRK      0.113100
     24 C34         4.9140    1.5450    1.9470 c1        1 FRK     -0.071750
     25 C35         3.5680    1.7550    2.2080 c1        1 FRK     -0.071750
     26 O40        -0.2560    0.7360    7.9480 oh        1 FRK     -0.480600
     27 O41         6.7080    0.1110    1.1810 oh        1 FRK     -0.480600
     28 HN7        -1.9070    1.6340   -1.2210 hn        1 FRK      0.495400
     29 H91        -2.7240    0.7360   -3.3420 hc        1 FRK      0.070200
     30 H92        -3.5550   -0.4920   -2.7440 hc        1 FRK      0.070200
     31 H111       -2.0320   -1.9800   -3.8350 hc        1 FRK      0.061700
     32 H112       -1.3490   -0.7110   -4.5290 hc        1 FRK      0.061700
     33 H121       -3.9320   -1.7480   -5.0260 hc        1 FRK      0.039700
     34 H122       -3.6260   -0.2190   -5.3680 hc        1 FRK      0.039700
     35 H151       -1.9480   -0.8440   -6.8460 hc        1 FRK      0.042700
     36 H152       -2.1220   -2.3770   -6.4370 hc        1 FRK      0.042700
     37 H181       -4.2870   -2.3830   -7.3460 hc        1 FRK      0.033700
     38 H182       -4.1260   -0.8410   -7.7440 hc        1 FRK      0.033700
     39 H183       -3.2330   -1.9530   -8.4690 hc        1 FRK      0.033700
     40 H22         0.5420   -1.2490    4.0240 ha        1 FRK      0.086500
     41 H23         0.3430   -1.2540    6.3780 ha        1 FRK      0.086500
     42 H25        -0.4750    2.7530    6.3160 ha        1 FRK      0.085000
     43 H26        -0.2760    2.7610    3.9620 ha        1 FRK      0.090500
     44 H31         2.4480   -1.2300    1.4250 ha        1 FRK      0.081500
     45 H32         4.7410   -1.5860    0.9800 ha        1 FRK      0.085000
     46 H34         5.5550    2.2680    2.0830 ha        1 FRK      0.086500
     47 H35         3.2630    2.6240    2.5280 ha        1 FRK      0.086500
     48 H40        -1.0710    0.4340    8.1440 ho        1 FRK      0.419000
     49 H41         7.1420   -0.1610    1.9070 ho        1 FRK      0.419000
@<TRIPOS>BOND
     1    1    2 1   
     2    1    5 3   
     3    2    3 1   
     4    3    4 2   
     5    3    6 1   
     6    4    5 1   
     7    4   15 1   
     8    6   21 3   
     9    7    8 2   
    10    7   28 1   
    11    8    9 1   
    12    8   10 1   
    13    9   11 1   
    14    9   29 1   
    15    9   30 1   
    16   11   12 1   
    17   11   31 1   
    18   11   32 1   
    19   12   13 1   
    20   12   33 1   
    21   12   34 1   
    22   13   14 1   
    23   13   35 1   
    24   13   36 1   
    25   14   37 1   
    26   14   38 1   
    27   14   39 1   
    28   15   20 3   
    29   16   17 3   
    30   16   40 1   
    31   17   41 1   
    32   18   19 3   
    33   18   26 1   
    34   19   42 1   
    35   20   43 1   
    36   21   44 1   
    37   22   23 3   
    38   22   45 1   
    39   23   27 1   
    40   24   25 3   
    41   24   46 1   
    42   25   47 1   
    43   26   48 1   
    44   27   49 1   
@<TRIPOS>SUBSTRUCTURE
     1 FRK         1 TEMP              0 ****  ****    0 ROOT
