@<TRIPOS>MOLECULE
FRK
   49    51     1     0     0
SMALL
bcc


@<TRIPOS>ATOM
      1 C1         -0.8520   -0.4950    0.8390 cc        1 FRK      0.485300
      2 S2          0.7390    0.0480    0.4430 ss        1 FRK      0.030700
      3 C3          1.1940   -0.0420    2.0570 cc        1 FRK     -0.203400
      4 C4          0.1300   -0.4840    2.8530 cd        1 FRK      0.439800
      5 N5         -1.0460   -0.7400    2.1580 nd        1 FRK     -0.688000
      6 C6          2.5220    0.3370    2.4850 ca        1 FRK     -0.046000
      7 N7         -1.8580   -0.6780   -0.1110 n         1 FRK     -0.530400
      8 C8         -1.6970   -0.4050   -1.4640 c         1 FRK      0.658100
      9 C9         -2.8900   -0.6540   -2.3640 c3        1 FRK     -0.149400
     10 O10        -0.6100    0.0090   -1.9080 o         1 FRK     -0.585100
     11 C11        -4.0580    0.2450   -2.0230 c3        1 FRK     -0.080400
     12 C12        -5.1700    0.0840   -3.0390 c3        1 FRK     -0.080400
     13 C15        -6.3530    0.9650   -2.6980 c3        1 FRK     -0.080400
     14 C18        -7.4620    0.8130   -3.7070 c3        1 FRK     -0.093100
     15 C21         0.1800   -0.6930    4.2990 ca        1 FRK     -0.156500
     16 C22        -0.9130   -0.3390    5.1060 ca        1 FRK     -0.066500
     17 C23        -0.8730   -0.5370    6.4810 ca        1 FRK     -0.193000
     18 C24         0.2750   -1.1060    7.0570 ca        1 FRK      0.129100
     19 C25         1.3710   -1.4720    6.2630 ca        1 FRK     -0.193000
     20 C26         1.3160   -1.2630    4.8880 ca        1 FRK     -0.066500
     21 C31         2.7360    1.5620    3.1330 ca        1 FRK     -0.076000
     22 C32         4.0150    1.9410    3.5280 ca        1 FRK     -0.188500
     23 C33         5.0950    1.0850    3.2720 ca        1 FRK      0.129100
     24 C34         4.9000   -0.1470    2.6260 ca        1 FRK     -0.188500
     25 C35         3.6160   -0.5100    2.2390 ca        1 FRK     -0.076000
     26 O40         0.2570   -1.2780    8.4220 oh        1 FRK     -0.498100
     27 O41         6.3870    1.3910    3.6330 oh        1 FRK     -0.497100
     28 HN7        -2.7440   -0.9990    0.2150 hn        1 FRK      0.339500
     29 H91        -2.5540   -0.4630   -3.4190 hc        1 FRK      0.079200
     30 H92        -3.1930   -1.7320   -2.2920 hc        1 FRK      0.079200
     31 H111       -4.4510    0.0030   -1.0010 hc        1 FRK      0.049700
     32 H112       -3.7190    1.3150   -2.0050 hc        1 FRK      0.049700
     33 H121       -5.4980   -0.9890   -3.0720 hc        1 FRK      0.044200
     34 H122       -4.7890    0.3460   -4.0610 hc        1 FRK      0.044200
     35 H151       -6.0220    2.0370   -2.6600 hc        1 FRK      0.041700
     36 H152       -6.7350    0.7010   -1.6760 hc        1 FRK      0.041700
     37 H181       -8.3230    1.4700   -3.4380 hc        1 FRK      0.035033
     38 H182       -7.8210   -0.2430   -3.7430 hc        1 FRK      0.035033
     39 H183       -7.1080    1.0970   -4.7280 hc        1 FRK      0.035033
     40 H22        -1.8140    0.1000    4.6490 ha        1 FRK      0.146000
     41 H23        -1.7220   -0.2610    7.1210 ha        1 FRK      0.142000
     42 H25         2.2640   -1.9190    6.7200 ha        1 FRK      0.142000
     43 H26         2.1740   -1.5430    4.2560 ha        1 FRK      0.146000
     44 H31         1.8830    2.2280    3.3330 ha        1 FRK      0.142000
     45 H32         4.1760    2.9030    4.0350 ha        1 FRK      0.144000
     46 H34         5.7600   -0.8020    2.4350 ha        1 FRK      0.144000
     47 H35         3.4530   -1.4750    1.7340 ha        1 FRK      0.142000
     48 H40         1.0970   -1.6820    8.6820 ho        1 FRK      0.419000
     49 H41         6.3800    2.2600    4.0590 ho        1 FRK      0.420000
@<TRIPOS>BOND
     1    1    2 1   
     2    1    5 2   
     3    1    7 1   
     4    2    3 1   
     5    3    4 2   
     6    3    6 1   
     7    4    5 1   
     8    4   15 1   
     9    6   21 ar  
    10    6   25 ar  
    11    7    8 1   
    12    7   28 1   
    13    8    9 1   
    14    8   10 2   
    15    9   11 1   
    16    9   29 1   
    17    9   30 1   
    18   11   12 1   
    19   11   31 1   
    20   11   32 1   
    21   12   13 1   
    22   12   33 1   
    23   12   34 1   
    24   13   14 1   
    25   13   35 1   
    26   13   36 1   
    27   14   37 1   
    28   14   38 1   
    29   14   39 1   
    30   15   16 ar  
    31   15   20 ar  
    32   16   17 ar  
    33   16   40 1   
    34   17   18 ar  
    35   17   41 1   
    36   18   19 ar  
    37   18   26 1   
    38   19   20 ar  
    39   19   42 1   
    40   20   43 1   
    41   21   22 ar  
    42   21   44 1   
    43   22   23 ar  
    44   22   45 1   
    45   23   24 ar  
    46   23   27 1   
    47   24   25 ar  
    48   24   46 1   
    49   25   47 1   
    50   26   48 1   
    51   27   49 1   
@<TRIPOS>SUBSTRUCTURE
     1 FRK         1 TEMP              0 ****  ****    0 ROOT
