@<TRIPOS>MOLECULE
FRK
   49    51     1     0     0
SMALL
bcc


@<TRIPOS>ATOM
      1 C1         -0.3000   -0.5010    1.3690 cc        1 FRK      0.484300
      2 S2         -1.5400    0.1030    0.3300 ss        1 FRK      0.030700
      3 C3         -0.5160   -0.0110   -0.9950 cc        1 FRK     -0.201400
      4 C4          0.7380   -0.5070   -0.6170 cd        1 FRK      0.438800
      5 N5          0.8660   -0.7840    0.7390 nd        1 FRK     -0.689000
      6 C6         -0.9460    0.4000   -2.3130 ca        1 FRK     -0.047000
      7 N7         -0.4750   -0.6930    2.7400 n         1 FRK     -0.530400
      8 C8         -1.6490   -0.3840    3.4170 c         1 FRK      0.658100
      9 C9         -1.6750   -0.6540    4.9080 c3        1 FRK     -0.149400
     10 O10        -2.6350    0.0760    2.8110 o         1 FRK     -0.585100
     11 C11        -0.6800    0.2040    5.6590 c3        1 FRK     -0.080400
     12 C12        -0.8420    0.0250    7.1540 c3        1 FRK     -0.080400
     13 C15         0.1610    0.8660    7.9160 c3        1 FRK     -0.080400
     14 C18         0.0020    0.6960    9.4050 c3        1 FRK     -0.093100
     15 C21         1.8630   -0.7500   -1.5180 ca        1 FRK     -0.156500
     16 C22         3.1730   -0.4590   -1.1120 ca        1 FRK     -0.066500
     17 C23         4.2460   -0.6940   -1.9670 ca        1 FRK     -0.193500
     18 C24         4.0060   -1.2340   -3.2390 ca        1 FRK      0.129100
     19 C25         2.7000   -1.5370   -3.6570 ca        1 FRK     -0.193500
     20 C26         1.6400   -1.2930   -2.7920 ca        1 FRK     -0.066500
     21 C31        -0.4950    1.6090   -2.8610 ca        1 FRK     -0.076000
     22 C32        -0.9230    2.0190   -4.1200 ca        1 FRK     -0.187500
     23 C33        -1.8130    1.2120   -4.8410 ca        1 FRK      0.130100
     24 C34        -2.2740   -0.0040   -4.3070 ca        1 FRK     -0.187500
     25 C35        -1.8360   -0.3990   -3.0500 ca        1 FRK     -0.076000
     26 O40         5.0160   -1.4930   -4.1370 oh        1 FRK     -0.498100
     27 O41        -2.2820    1.5510   -6.0890 oh        1 FRK     -0.496100
     28 HN7         0.2990   -1.0520    3.2560 hn        1 FRK      0.339500
     29 H91        -1.4730   -1.7410    5.0950 hc        1 FRK      0.079200
     30 H92        -2.7170   -0.4330    5.2650 hc        1 FRK      0.079200
     31 H111       -0.8330    1.2830    5.3910 hc        1 FRK      0.049700
     32 H112        0.3680   -0.0670    5.3640 hc        1 FRK      0.049700
     33 H121       -0.7070   -1.0560    7.4210 hc        1 FRK      0.044200
     34 H122       -1.8830    0.3150    7.4580 hc        1 FRK      0.044200
     35 H151        0.0270    1.9460    7.6430 hc        1 FRK      0.041200
     36 H152        1.2010    0.5750    7.6120 hc        1 FRK      0.041200
     37 H181        0.7500    1.3230    9.9480 hc        1 FRK      0.035033
     38 H182       -1.0200    1.0050    9.7310 hc        1 FRK      0.035033
     39 H183        0.1560   -0.3700    9.7000 hc        1 FRK      0.035033
     40 H22         3.3600   -0.0420   -0.1100 ha        1 FRK      0.146000
     41 H23         5.2710   -0.4630   -1.6470 ha        1 FRK      0.142000
     42 H25         2.5340   -1.9620   -4.6560 ha        1 FRK      0.142000
     43 H26         0.6100   -1.5240   -3.1100 ha        1 FRK      0.146000
     44 H31         0.2070    2.2370   -2.2920 ha        1 FRK      0.141500
     45 H32        -0.5650    2.9670   -4.5460 ha        1 FRK      0.144000
     46 H34        -2.9720   -0.6220   -4.8890 ha        1 FRK      0.144000
     47 H35        -2.1910   -1.3520   -2.6260 ha        1 FRK      0.141500
     48 H40         5.8550   -1.2530   -3.7190 ho        1 FRK      0.418000
     49 H41        -1.8830    2.3980   -6.3380 ho        1 FRK      0.420000
@<TRIPOS>BOND
     1    1    2 1   
     2    1    5 2   
     3    1    7 1   
     4    2    3 1   
     5    3    4 2   
     6    3    6 1   
     7    4    5 1   
     8    4   15 1   
     9    6   21 ar  
    10    6   25 ar  
    11    7    8 1   
    12    7   28 1   
    13    8    9 1   
    14    8   10 2   
    15    9   11 1   
    16    9   29 1   
    17    9   30 1   
    18   11   12 1   
    19   11   31 1   
    20   11   32 1   
    21   12   13 1   
    22   12   33 1   
    23   12   34 1   
    24   13   14 1   
    25   13   35 1   
    26   13   36 1   
    27   14   37 1   
    28   14   38 1   
    29   14   39 1   
    30   15   16 ar  
    31   15   20 ar  
    32   16   17 ar  
    33   16   40 1   
    34   17   18 ar  
    35   17   41 1   
    36   18   19 ar  
    37   18   26 1   
    38   19   20 ar  
    39   19   42 1   
    40   20   43 1   
    41   21   22 ar  
    42   21   44 1   
    43   22   23 ar  
    44   22   45 1   
    45   23   24 ar  
    46   23   27 1   
    47   24   25 ar  
    48   24   46 1   
    49   25   47 1   
    50   26   48 1   
    51   27   49 1   
@<TRIPOS>SUBSTRUCTURE
     1 FRK         1 TEMP              0 ****  ****    0 ROOT
