@<TRIPOS>MOLECULE
FRL
   51    54     1     0     0
SMALL
bcc


@<TRIPOS>ATOM
      1 C1         -4.5310    2.0460    0.2870 ca        1 FRL     -0.134500
      2 C2         -3.5530    1.0580    0.2130 ca        1 FRL     -0.079000
      3 C3         -3.9110   -0.2960    0.2930 ca        1 FRL     -0.121900
      4 C4         -5.2570   -0.6550    0.4500 ca        1 FRL     -0.079000
      5 C5         -6.2370    0.3320    0.5250 ca        1 FRL     -0.134500
      6 C6         -5.8730    1.6800    0.4430 ca        1 FRL      0.037400
      7 CL7        -7.0670    2.8840    0.5340 cl        1 FRL     -0.080400
      8 C8         -2.8910   -1.3290    0.2160 cc        1 FRL      0.592200
      9 N9         -2.9880   -2.6520    0.3220 nd        1 FRL     -0.548100
     10 C10        -1.6740   -3.1460    0.1660 ca        1 FRL      0.062400
     11 C11        -0.7900   -2.0310   -0.0400 ca        1 FRL      0.035100
     12 O12        -1.5560   -0.8660   -0.0090 os        1 FRL     -0.321700
     13 C13        -1.1490   -4.4410    0.1800 ca        1 FRL     -0.066000
     14 C14         0.2240   -4.5790   -0.0090 ca        1 FRL     -0.142000
     15 C15         1.0680   -3.4780   -0.2100 ca        1 FRL     -0.103000
     16 C16         0.5830   -2.1650   -0.2320 ca        1 FRL     -0.064300
     17 C17         1.4750   -1.0030   -0.4730 c3        1 FRL     -0.034100
     18 C18         1.4470   -0.0250    0.6840 c3        1 FRL     -0.097400
     19 C19         2.2450    1.2560    0.3740 c3        1 FRL      0.017000
     20 C20         1.8050    2.3460    1.3990 c3        1 FRL      0.132100
     21 O21         2.7960    3.3240    1.6460 oh        1 FRL     -0.588800
     22 N22         3.6700    1.0330    0.3270 na        1 FRL     -0.209900
     23 C23         0.5200    3.0030    0.9250 c3        1 FRL     -0.133100
     24 C24         4.6020    1.1740    1.3770 cc        1 FRL      0.414400
     25 N25         5.8360    0.8000    0.9950 nd        1 FRL     -0.662000
     26 C26         5.7110    0.3900   -0.3420 cd        1 FRL      0.233800
     27 C27         4.3720    0.5270   -0.7650 cc        1 FRL     -0.178600
     28 C28         6.8010   -0.1130   -1.2000 c         1 FRL      0.603600
     29 O29         6.5720   -0.4900   -2.3730 o         1 FRL     -0.638100
     30 N30         8.0720   -0.1620   -0.6930 n         1 FRL     -0.660000
     31 H1         -4.2480    3.1070    0.2220 ha        1 FRL      0.154000
     32 H2         -2.4950    1.3390    0.0900 ha        1 FRL      0.157000
     33 H4         -5.5460   -1.7170    0.5140 ha        1 FRL      0.157000
     34 H5         -7.2940    0.0480    0.6470 ha        1 FRL      0.154000
     35 H13        -1.7980   -5.3140    0.3350 ha        1 FRL      0.155000
     36 H14         0.6650   -5.5890   -0.0030 ha        1 FRL      0.142000
     37 H15         2.1460   -3.6500   -0.3570 ha        1 FRL      0.145000
     38 H171        1.1400   -0.4820   -1.4120 hc        1 FRL      0.060700
     39 H172        2.5270   -1.3600   -0.6460 hc        1 FRL      0.060700
     40 H181        1.8470   -0.5140    1.6100 hc        1 FRL      0.066700
     41 H182        0.3820    0.2680    0.8890 hc        1 FRL      0.066700
     42 H19         1.9480    1.6140   -0.6600 h1        1 FRL      0.067700
     43 H20         1.6550    1.8630    2.4080 h1        1 FRL      0.085700
     44 H21         2.9620    3.7940    0.8190 ho        1 FRL      0.409000
     45 H231        0.6750    3.5070   -0.0600 hc        1 FRL      0.051367
     46 H232       -0.2970    2.2510    0.8180 hc        1 FRL      0.051367
     47 H233        0.2050    3.7740    1.6690 hc        1 FRL      0.051367
     48 H24         4.3190    1.5890    2.3520 h5        1 FRL      0.080100
     49 H27         3.9170    0.3090   -1.7320 h4        1 FRL      0.196000
     50 H301        8.2720    0.1290    0.2300 hn        1 FRL      0.319000
     51 H302        8.8060   -0.4990   -1.2640 hn        1 FRL      0.319000
@<TRIPOS>BOND
     1    1    2 ar  
     2    1    6 ar  
     3    1   31 1   
     4    2    3 ar  
     5    2   32 1   
     6    3    4 ar  
     7    3    8 1   
     8    4    5 ar  
     9    4   33 1   
    10    5    6 ar  
    11    5   34 1   
    12    6    7 1   
    13    8    9 2   
    14    8   12 1   
    15    9   10 1   
    16   10   11 ar  
    17   10   13 ar  
    18   11   12 1   
    19   11   16 ar  
    20   13   14 ar  
    21   13   35 1   
    22   14   15 ar  
    23   14   36 1   
    24   15   16 ar  
    25   15   37 1   
    26   16   17 1   
    27   17   18 1   
    28   17   38 1   
    29   17   39 1   
    30   18   19 1   
    31   18   40 1   
    32   18   41 1   
    33   19   20 1   
    34   19   22 1   
    35   19   42 1   
    36   20   21 1   
    37   20   23 1   
    38   20   43 1   
    39   21   44 1   
    40   22   24 1   
    41   22   27 1   
    42   23   45 1   
    43   23   46 1   
    44   23   47 1   
    45   24   25 2   
    46   24   48 1   
    47   25   26 1   
    48   26   27 2   
    49   26   28 1   
    50   27   49 1   
    51   28   29 2   
    52   28   30 1   
    53   30   50 1   
    54   30   51 1   
@<TRIPOS>SUBSTRUCTURE
     1 FRL         1 TEMP              0 ****  ****    0 ROOT
