@<TRIPOS>MOLECULE
FRL
   52    55     1     0     0
SMALL
bcc


@<TRIPOS>ATOM
      1 C1          0.5130    0.2600   -0.5700 ca        1 FRL     -0.134000
      2 C2          1.8610    0.1600   -0.2390 ca        1 FRL     -0.077000
      3 C3          2.2890    0.4480    1.0650 ca        1 FRL     -0.134900
      4 C4          1.3560    0.8330    2.0390 ca        1 FRL     -0.077000
      5 C5          0.0070    0.9340    1.7080 ca        1 FRL     -0.134000
      6 C6         -0.4130    0.6490    0.4050 ca        1 FRL      0.043400
      7 Cl7        -2.0550    0.7730    0.0010 cl        1 FRL     -0.065400
      8 C8          3.6950    0.3400    1.4170 cc        1 FRL      0.607200
      9 N9          4.2970    0.3770    2.6020 nd        1 FRL     -0.542100
     10 C10         5.6750    0.2130    2.3400 ca        1 FRL      0.072400
     11 C11         5.8550    0.0770    0.9190 ca        1 FRL      0.034100
     12 O12         4.5990    0.1580    0.3180 os        1 FRL     -0.331700
     13 C13         6.7910    0.1610    3.1790 ca        1 FRL     -0.053000
     14 C14         8.0370   -0.0240    2.5810 ca        1 FRL     -0.139000
     15 C15         8.1900   -0.1530    1.1950 ca        1 FRL     -0.107000
     16 C16         7.0970   -0.1040    0.3200 ca        1 FRL     -0.087300
     17 C17         7.2550   -0.2640   -1.1470 c3        1 FRL     -0.027100
     18 C18         6.8280    0.9930   -1.8850 c3        1 FRL     -0.102400
     19 C19         6.8010    0.8000   -3.4040 c3        1 FRL      0.041000
     20 C20         6.0880    2.0080   -4.0840 c3        1 FRL      0.131100
     21 O21         6.0900    1.7180   -5.4800 oh        1 FRL     -0.632800
     22 N22         8.1210    0.5630   -3.9750 na        1 FRL     -0.173900
     23 C23         4.6710    2.1780   -3.5700 c3        1 FRL     -0.135100
     24 C24         9.3890    0.8110   -3.3860 cc        1 FRL      0.448400
     25 N25        10.3890    0.5180   -4.2240 nd        1 FRL     -0.671000
     26 C26         9.7660    0.0730   -5.4140 cd        1 FRL      0.112800
     27 C27         8.3490    0.1130   -5.2560 cc        1 FRL     -0.029600
     28 C28        10.4630   -0.3440   -6.5900 c         1 FRL      0.513600
     29 O29        10.0470   -0.7530   -7.6660 o         1 FRL     -0.445100
     30 N30        11.9820   -0.2670   -6.4880 nz        1 FRL     -0.749400
     31 H1          0.1780    0.0290   -1.5930 ha        1 FRL      0.158000
     32 H2          2.5930   -0.1520   -1.0000 ha        1 FRL      0.155000
     33 H4          1.6840    1.0550    3.0680 ha        1 FRL      0.155000
     34 H5         -0.7240    1.2360    2.4750 ha        1 FRL      0.158000
     35 H13         6.6860    0.2580    4.2690 ha        1 FRL      0.165000
     36 H14         8.9330   -0.0730    3.2210 ha        1 FRL      0.147000
     37 H15         9.1990   -0.3050    0.7830 ha        1 FRL      0.133000
     38 H171        6.6210   -1.1280   -1.4890 hc        1 FRL      0.054700
     39 H172        8.3220   -0.5170   -1.3870 hc        1 FRL      0.054700
     40 H181        5.7830    1.2480   -1.5540 hc        1 FRL      0.079700
     41 H182        7.4850    1.8570   -1.6060 hc        1 FRL      0.079700
     42 H19         6.1880   -0.1250   -3.6420 h1        1 FRL      0.094700
     43 H20         6.6800    2.9500   -3.9070 h1        1 FRL      0.056700
     44 H21         5.5030    2.3520   -5.9100 ho        1 FRL      0.432000
     45 H231        4.0880    2.8220   -4.2740 hc        1 FRL      0.061700
     46 H232        4.6710    2.6750   -2.5700 hc        1 FRL      0.061700
     47 H233        4.1530    1.1920   -3.4890 hc        1 FRL      0.061700
     48 H24         9.5010    1.1910   -2.3600 h5        1 FRL      0.097100
     49 H27         7.5440   -0.1200   -5.9650 h4        1 FRL      0.235000
     50 H301       12.2610    0.6990   -6.2910 hn        1 FRL      0.467800
     51 H302       12.3030   -0.8600   -5.7170 hn        1 FRL      0.467800
     52 H303       12.4090   -0.5790   -7.3660 hn        1 FRL      0.467800
@<TRIPOS>BOND
     1    1    2 ar  
     2    1    6 ar  
     3    1   31 1   
     4    2    3 ar  
     5    2   32 1   
     6    3    4 ar  
     7    3    8 1   
     8    4    5 ar  
     9    4   33 1   
    10    5    6 ar  
    11    5   34 1   
    12    6    7 1   
    13    8    9 2   
    14    8   12 1   
    15    9   10 1   
    16   10   11 ar  
    17   10   13 ar  
    18   11   12 1   
    19   11   16 ar  
    20   13   14 ar  
    21   13   35 1   
    22   14   15 ar  
    23   14   36 1   
    24   15   16 ar  
    25   15   37 1   
    26   16   17 1   
    27   17   18 1   
    28   17   38 1   
    29   17   39 1   
    30   18   19 1   
    31   18   40 1   
    32   18   41 1   
    33   19   20 1   
    34   19   22 1   
    35   19   42 1   
    36   20   21 1   
    37   20   23 1   
    38   20   43 1   
    39   21   44 1   
    40   22   24 1   
    41   22   27 1   
    42   23   45 1   
    43   23   46 1   
    44   23   47 1   
    45   24   25 2   
    46   24   48 1   
    47   25   26 1   
    48   26   27 2   
    49   26   28 1   
    50   27   49 1   
    51   28   29 2   
    52   28   30 1   
    53   30   50 1   
    54   30   51 1   
    55   30   52 1   
@<TRIPOS>SUBSTRUCTURE
     1 FRL         1 TEMP              0 ****  ****    0 ROOT
