@<TRIPOS>MOLECULE
FRL
   52    55     1     0     0
SMALL
bcc


@<TRIPOS>ATOM
      1 C1          0.5110    0.2960   -0.5710 ca        1 FRL     -0.134000
      2 C2          1.8570    0.1840   -0.2410 ca        1 FRL     -0.077000
      3 C3          2.2880    0.4650    1.0640 ca        1 FRL     -0.134900
      4 C4          1.3580    0.8540    2.0400 ca        1 FRL     -0.077000
      5 C5          0.0100    0.9670    1.7100 ca        1 FRL     -0.134000
      6 C6         -0.4130    0.6890    0.4050 ca        1 FRL      0.043400
      7 CL7        -2.0530    0.8260    0.0020 cl        1 FRL     -0.065400
      8 C8          3.6930    0.3440    1.4160 cc        1 FRL      0.607200
      9 N9          4.2950    0.3730    2.6010 nd        1 FRL     -0.542100
     10 C10         5.6720    0.1990    2.3380 ca        1 FRL      0.072400
     11 C11         5.8510    0.0680    0.9170 ca        1 FRL      0.034100
     12 O12         4.5960    0.1610    0.3160 os        1 FRL     -0.331700
     13 C13         6.7880    0.1350    3.1770 ca        1 FRL     -0.053000
     14 C14         8.0320   -0.0560    2.5790 ca        1 FRL     -0.139000
     15 C15         8.1840   -0.1810    1.1920 ca        1 FRL     -0.107000
     16 C16         7.0910   -0.1210    0.3180 ca        1 FRL     -0.087300
     17 C17         7.2480   -0.2760   -1.1510 c3        1 FRL     -0.027100
     18 C18         6.8300    0.9860   -1.8830 c3        1 FRL     -0.102400
     19 C19         6.8030    0.7990   -3.4030 c3        1 FRL      0.041000
     20 C20         6.0970    2.0150   -4.0790 c3        1 FRL      0.131100
     21 O21         6.0990    1.7300   -5.4760 oh        1 FRL     -0.632800
     22 N22         8.1220    0.5570   -3.9750 na        1 FRL     -0.173900
     23 C23         4.6810    2.1900   -3.5660 c3        1 FRL     -0.135100
     24 C24         9.3910    0.7960   -3.3840 cc        1 FRL      0.448400
     25 N25        10.3900    0.5000   -4.2220 nd        1 FRL     -0.671000
     26 C26         9.7650    0.0640   -5.4150 cd        1 FRL      0.112800
     27 C27         8.3480    0.1110   -5.2580 cc        1 FRL     -0.029600
     28 C28        10.4600   -0.3530   -6.5920 c         1 FRL      0.513600
     29 O29        10.0420   -0.7550   -7.6700 o         1 FRL     -0.445100
     30 N30        11.9790   -0.2840   -6.4890 n4        1 FRL     -0.749400
     31 H1          0.1730    0.0710   -1.5950 ha        1 FRL      0.158000
     32 H2          2.5870   -0.1310   -1.0020 ha        1 FRL      0.155000
     33 H4          1.6880    1.0700    3.0700 ha        1 FRL      0.155000
     34 H5         -0.7190    1.2720    2.4780 ha        1 FRL      0.158000
     35 H13         6.6830    0.2300    4.2680 ha        1 FRL      0.165000
     36 H14         8.9280   -0.1140    3.2180 ha        1 FRL      0.147000
     37 H15         9.1920   -0.3390    0.7790 ha        1 FRL      0.133000
     38 H171        6.6080   -1.1350   -1.4950 hc        1 FRL      0.054700
     39 H172        8.3140   -0.5350   -1.3910 hc        1 FRL      0.054700
     40 H181        7.4920    1.8450   -1.6010 hc        1 FRL      0.079700
     41 H182        5.7860    1.2460   -1.5520 hc        1 FRL      0.079700
     42 H19         6.1850   -0.1210   -3.6460 h1        1 FRL      0.094700
     43 H20         6.6950    2.9520   -3.8980 h1        1 FRL      0.056700
     44 H21         5.5150    2.3690   -5.9040 ho        1 FRL      0.432000
     45 H231        4.6830    2.6830   -2.5640 hc        1 FRL      0.061700
     46 H232        4.1570    1.2080   -3.4880 hc        1 FRL      0.061700
     47 H233        4.1020    2.8410   -4.2680 hc        1 FRL      0.061700
     48 H24         9.5040    1.1700   -2.3560 h5        1 FRL      0.097100
     49 H27         7.5420   -0.1130   -5.9680 h4        1 FRL      0.235000
     50 H301       12.4050   -0.5950   -7.3670 hn        1 FRL      0.467800
     51 H302       12.2640    0.6790   -6.2870 hn        1 FRL      0.467800
     52 H303       12.2960   -0.8830   -5.7200 hn        1 FRL      0.467800
@<TRIPOS>BOND
     1    1    2 ar  
     2    1    6 ar  
     3    1   31 1   
     4    2    3 ar  
     5    2   32 1   
     6    3    4 ar  
     7    3    8 1   
     8    4    5 ar  
     9    4   33 1   
    10    5    6 ar  
    11    5   34 1   
    12    6    7 1   
    13    8    9 2   
    14    8   12 1   
    15    9   10 1   
    16   10   11 ar  
    17   10   13 ar  
    18   11   12 1   
    19   11   16 ar  
    20   13   14 ar  
    21   13   35 1   
    22   14   15 ar  
    23   14   36 1   
    24   15   16 ar  
    25   15   37 1   
    26   16   17 1   
    27   17   18 1   
    28   17   38 1   
    29   17   39 1   
    30   18   19 1   
    31   18   40 1   
    32   18   41 1   
    33   19   20 1   
    34   19   22 1   
    35   19   42 1   
    36   20   21 1   
    37   20   23 1   
    38   20   43 1   
    39   21   44 1   
    40   22   24 1   
    41   22   27 1   
    42   23   45 1   
    43   23   46 1   
    44   23   47 1   
    45   24   25 2   
    46   24   48 1   
    47   25   26 1   
    48   26   27 2   
    49   26   28 1   
    50   27   49 1   
    51   28   29 2   
    52   28   30 1   
    53   30   50 1   
    54   30   51 1   
    55   30   52 1   
@<TRIPOS>SUBSTRUCTURE
     1 FRL         1 TEMP              0 ****  ****    0 ROOT
