@<TRIPOS>MOLECULE
FRM
   52    48     1     0     0
SMALL
bcc


@<TRIPOS>ATOM
      1 C1         -4.7120    5.1900    3.5680 c1        1 FRM     -0.125000
      2 C2         -4.2330    4.3650    2.5630 c1        1 FRM     -0.058000
      3 C3         -3.2690    3.3760    2.8600 c1        1 FRM      0.042000
      4 C4         -2.8110    3.2340    4.1320 c1        1 FRM     -0.166000
      5 C5         -3.2990    4.0750    5.1560 c1        1 FRM     -0.066000
      6 C6         -4.2450    5.0450    4.8640 c1        1 FRM     -0.125000
      7 N10        -2.7990    2.5600    1.8720 n2        1 FRM     -0.200000
      8 C11        -1.8680    1.6010    2.1610 c1        1 FRM      0.122000
      9 N12        -1.4050    1.4570    3.4440 n2        1 FRM     -0.335000
     10 C13        -1.8670    2.2600    4.4220 c2        1 FRM      0.344000
     11 O14        -1.4560    2.1320    5.5590 o         1 FRM     -0.351000
     12 C17        -1.3000    1.0840    0.8510 c3        1 FRM     -0.123000
     13 C20        -0.8350   -0.3530    1.0320 c3        1 FRM     -0.158000
     14 C23        -0.2660   -0.8700   -0.2760 c3        1 FRM     -0.069000
     15 N26         1.6160   -1.4590    0.0050 n3        1 FRM     -0.262000
     16 C29         1.6650   -3.1850   -0.1510 c3        1 FRM     -0.042000
     17 C30         1.4530   -3.6130   -1.5120 c2        1 FRM     -0.186000
     18 C31         2.1440   -2.5460   -2.7810 c1        1 FRM     -0.068000
     19 C32         2.1650   -1.0300   -2.4560 c2        1 FRM     -0.159000
     20 C33         2.4410   -0.7440   -0.9090 c3        1 FRM     -0.070000
     21 C40         3.1050   -3.1150   -3.8090 c2        1 FRM     -0.052000
     22 C42         2.6660   -3.3700   -5.1000 c2        1 FRM     -0.097000
     23 C43         3.5150   -3.9770   -6.0140 c1        1 FRM     -0.165000
     24 C44         4.8010   -4.3300   -5.6370 c1        1 FRM      0.091000
     25 C45         5.2400   -4.0750   -4.3470 c1        1 FRM     -0.165000
     26 C46         4.3910   -3.4680   -3.4330 c1        1 FRM     -0.097000
     27 C7         -4.8360    4.8550    1.2660 c3        1 FRM     -0.170000
     28 F1          5.6140   -4.9350   -6.5140 f         1 FRM     -0.105000
     29 H1         -5.3780    5.8740    3.3630 ha        1 FRM      0.137500
     30 H5         -2.9700    3.9740    6.0690 ha        1 FRM      0.158000
     31 H6         -4.5820    5.6270    5.5720 ha        1 FRM      0.137500
     32 H12        -0.7820    0.8150    3.6360 hn        1 FRM      0.252000
     33 H171       -1.9910    1.1190    0.1600 hc        1 FRM      0.115500
     34 H172       -0.5410    1.6410    0.5820 hc        1 FRM      0.115500
     35 H201       -1.5940   -0.9100    1.3000 hc        1 FRM      0.092500
     36 H202       -0.1440   -0.3880    1.7250 hc        1 FRM      0.092500
     37 H231       -0.8010   -1.6270   -0.5890 h1        1 FRM      0.079000
     38 H232       -0.2880   -0.1580   -0.9450 h1        1 FRM      0.079000
     39 H291        1.0400   -3.6830    0.4170 h1        1 FRM      0.101000
     40 H292        2.5210   -3.4920    0.2080 h1        1 FRM      0.101000
     41 H30         1.2800   -4.5540   -1.7060 ha        1 FRM      0.133000
     42 H321        2.7970   -0.5490   -3.0250 ha        1 FRM      0.096000
     43 H322        1.3230   -0.6170   -2.7290 ha        1 FRM      0.096000
     44 H331        2.3170    0.2150   -0.7480 h1        1 FRM      0.094000
     45 H332        3.3740   -0.9700   -0.7180 h1        1 FRM      0.094000
     46 H42         1.7600   -3.1210   -5.3660 ha        1 FRM      0.138000
     47 H43         3.2060   -4.1570   -6.9230 ha        1 FRM      0.149000
     48 H45         6.1450   -4.3230   -4.0810 ha        1 FRM      0.150000
     49 H46         4.7010   -3.2880   -2.5240 ha        1 FRM      0.140000
     50 H71        -4.4600    5.7320    1.0410 hc        1 FRM      0.088000
     51 H72        -4.6310    4.2190    0.5490 hc        1 FRM      0.088000
     52 H73        -5.8080    4.9320    1.3650 hc        1 FRM      0.088000
@<TRIPOS>BOND
     1    1    6 1   
     2    1   29 1   
     3    2    3 1   
     4    2   27 1   
     5    3    7 1   
     6    4    5 1   
     7    4   10 1   
     8    5   30 1   
     9    6   31 1   
    10    7    8 1   
    11    8   12 1   
    12    9   10 1   
    13    9   32 1   
    14   10   11 1   
    15   12   13 1   
    16   12   33 1   
    17   12   34 1   
    18   13   14 1   
    19   13   35 1   
    20   13   36 1   
    21   14   15 1   
    22   14   37 1   
    23   14   38 1   
    24   15   16 1   
    25   15   20 1   
    26   16   17 1   
    27   16   39 1   
    28   16   40 1   
    29   17   18 1   
    30   17   41 1   
    31   18   21 1   
    32   19   20 1   
    33   19   42 1   
    34   19   43 1   
    35   20   44 1   
    36   20   45 1   
    37   21   22 1   
    38   21   26 1   
    39   22   23 1   
    40   22   46 1   
    41   23   47 1   
    42   24   25 1   
    43   24   28 1   
    44   25   48 1   
    45   26   49 1   
    46   27   50 1   
    47   27   51 1   
    48   27   52 1   
@<TRIPOS>SUBSTRUCTURE
     1 FRM         1 TEMP              0 ****  ****    0 ROOT
