@<TRIPOS>MOLECULE
FRM
   52    55     1     0     0
SMALL
bcc


@<TRIPOS>ATOM
      1 C1          3.1110   -0.0180   -5.9150 ca        1 FRM     -0.100000
      2 C2          2.3980   -0.0500   -4.7200 ca        1 FRM     -0.063300
      3 C3          0.9750   -0.0220   -4.7640 ca        1 FRM      0.180400
      4 C4          0.3360    0.0370   -6.0310 ca        1 FRM     -0.184600
      5 C5          1.0810    0.0690   -7.2160 ca        1 FRM     -0.066000
      6 C6          2.4660    0.0410   -7.1540 ca        1 FRM     -0.148000
      7 N10         0.2350   -0.0530   -3.5740 nc        1 FRM     -0.622100
      8 C11        -1.0820   -0.0290   -3.6460 cd        1 FRM      0.491900
      9 N12        -1.8010    0.0290   -4.8500 n         1 FRM     -0.502400
     10 C13        -1.1370    0.0650   -6.0860 c         1 FRM      0.708100
     11 O14        -1.8150    0.1170   -7.1290 o         1 FRM     -0.625500
     12 C17        -1.9370   -0.0600   -2.3890 c3        1 FRM     -0.116700
     13 C20        -1.1400   -0.1590   -1.1060 c3        1 FRM     -0.074400
     14 C23        -2.1030   -0.1490    0.0830 c3        1 FRM      0.170800
     15 N26        -1.4600   -0.4320    1.3570 n3        1 FRM     -0.730600
     16 C29        -0.3530    0.4720    1.6460 c3        1 FRM      0.198000
     17 C30         0.0640    0.5420    3.0760 c2        1 FRM     -0.160200
     18 C31        -0.5930   -0.0750    4.0730 ce        1 FRM     -0.062400
     19 C32        -1.7940   -0.9070    3.7770 c3        1 FRM     -0.040200
     20 C33        -2.4290   -0.5280    2.4400 c3        1 FRM      0.173800
     21 C40        -0.1680    0.0140    5.4670 ca        1 FRM     -0.060800
     22 C42         0.3950    1.1980    5.9670 ca        1 FRM     -0.098000
     23 C43         0.8040    1.2920    7.2920 ca        1 FRM     -0.165000
     24 C44         0.6520    0.1830    8.1440 ca        1 FRM      0.123900
     25 C45         0.0880   -1.0100    7.6560 ca        1 FRM     -0.165000
     26 C46        -0.3180   -1.0830    6.3290 ca        1 FRM     -0.098000
     27 C7          3.1110   -0.1130   -3.4240 c3        1 FRM     -0.045800
     28 F1          1.0490    0.2640    9.4370 f         1 FRM     -0.140900
     29 H1          4.2130   -0.0400   -5.8840 ha        1 FRM      0.137000
     30 H5          0.5490    0.1140   -8.1810 ha        1 FRM      0.158000
     31 H6          3.0610    0.0650   -8.0790 ha        1 FRM      0.140000
     32 H12        -2.7950    0.0430   -4.8350 hn        1 FRM      0.333500
     33 H171       -2.5620    0.8750   -2.3710 hc        1 FRM      0.062700
     34 H172       -2.6340   -0.9400   -2.4630 hc        1 FRM      0.062700
     35 H201       -0.5300   -1.1000   -1.1030 hc        1 FRM      0.069200
     36 H202       -0.4290    0.7050   -1.0280 hc        1 FRM      0.069200
     37 H231       -2.6400    0.8470    0.0970 h1        1 FRM      0.028700
     38 H232       -2.8820   -0.9490   -0.0770 h1        1 FRM      0.028700
     39 H291        0.5240    0.1050    1.0350 h1        1 FRM      0.046700
     40 H292       -0.5790    1.5300    1.3070 h1        1 FRM      0.046700
     41 H30         0.9680    1.1440    3.2560 ha        1 FRM      0.132000
     42 H321       -2.5640   -0.7810    4.5830 hc        1 FRM      0.058700
     43 H322       -1.4910   -1.9890    3.7590 hc        1 FRM      0.058700
     44 H331       -3.0000    0.4380    2.5740 h1        1 FRM      0.032700
     45 H332       -3.1740   -1.3260    2.1600 h1        1 FRM      0.032700
     46 H42         0.5090    2.0690    5.3030 ha        1 FRM      0.139500
     47 H43         1.2430    2.2220    7.6810 ha        1 FRM      0.149000
     48 H45        -0.0260   -1.8730    8.3280 ha        1 FRM      0.149000
     49 H46        -0.7570   -2.0180    5.9490 ha        1 FRM      0.139500
     50 H71         2.8520    0.7740   -2.7940 hc        1 FRM      0.049367
     51 H72         2.8140   -1.0340   -2.8620 hc        1 FRM      0.049367
     52 H73         4.2190   -0.1310   -3.5730 hc        1 FRM      0.049367
@<TRIPOS>BOND
     1    1    2 ar  
     2    1    6 ar  
     3    1   29 1   
     4    2    3 ar  
     5    2   27 1   
     6    3    4 ar  
     7    3    7 1   
     8    4    5 ar  
     9    4   10 1   
    10    5    6 ar  
    11    5   30 1   
    12    6   31 1   
    13    7    8 2   
    14    8    9 1   
    15    8   12 1   
    16    9   10 1   
    17    9   32 1   
    18   10   11 2   
    19   12   13 1   
    20   12   33 1   
    21   12   34 1   
    22   13   14 1   
    23   13   35 1   
    24   13   36 1   
    25   14   15 1   
    26   14   37 1   
    27   14   38 1   
    28   15   16 1   
    29   15   20 1   
    30   16   17 1   
    31   16   39 1   
    32   16   40 1   
    33   17   18 2   
    34   17   41 1   
    35   18   19 1   
    36   18   21 1   
    37   19   20 1   
    38   19   42 1   
    39   19   43 1   
    40   20   44 1   
    41   20   45 1   
    42   21   22 ar  
    43   21   26 ar  
    44   22   23 ar  
    45   22   46 1   
    46   23   24 ar  
    47   23   47 1   
    48   24   25 ar  
    49   24   28 1   
    50   25   26 ar  
    51   25   48 1   
    52   26   49 1   
    53   27   50 1   
    54   27   51 1   
    55   27   52 1   
@<TRIPOS>SUBSTRUCTURE
     1 FRM         1 TEMP              0 ****  ****    0 ROOT
