@<TRIPOS>MOLECULE
FRO
   33    35     1     0     0
SMALL
bcc


@<TRIPOS>ATOM
      1 C8         -0.0400   -0.3340   -0.0470 c3        1 FRO     -0.097400
      2 C9          1.2660    0.4290    0.1220 c3        1 FRO     -0.107400
      3 C10         1.6190    0.3060    1.6020 c3        1 FRO      0.126400
      4 O11         0.7570   -0.6640    2.1940 os        1 FRO     -0.418600
      5 C7         -0.3740   -0.9170    1.3360 c3        1 FRO      0.213300
      6 C5         -1.6270   -0.3610    1.9010 c2        1 FRO     -0.082600
      7 S6         -1.7930    1.3190    2.3430 ss        1 FRO     -0.317700
      8 C4         -2.7720   -1.0820    2.0700 ce        1 FRO     -0.051600
      9 C12        -2.9050   -2.5970    1.7850 c         1 FRO      0.940800
     10 O13        -2.4730   -2.9890    0.6700 o         1 FRO     -0.792300
     11 O14        -3.3970   -3.3090    2.6910 o         1 FRO     -0.792300
     12 N3         -3.8990   -0.3360    2.5100 n         1 FRO     -0.281000
     13 C2         -3.5320    1.1110    2.6960 cy        1 FRO      0.086800
     14 C1         -4.0350    1.0540    4.1610 cy        1 FRO     -0.226700
     15 C15        -4.4070   -0.4250    3.8640 c         1 FRO      0.693500
     16 O16        -5.0270   -1.2630    4.4950 o         1 FRO     -0.520500
     17 C17        -5.1720    1.9870    4.5150 c3        1 FRO      0.157100
     18 C18        -5.7500    1.6330    5.8750 c3        1 FRO     -0.133100
     19 O19        -6.1940    2.0040    3.5290 oh        1 FRO     -0.604800
     20 H81         0.0670   -1.1640   -0.7870 hc        1 FRO      0.060700
     21 H82        -0.8600    0.3370   -0.4030 hc        1 FRO      0.060700
     22 H91         1.1510    1.5010   -0.1700 hc        1 FRO      0.036200
     23 H92         2.0720   -0.0120   -0.5130 hc        1 FRO      0.036200
     24 H101        2.6630   -0.0650    1.7670 h1        1 FRO      0.030700
     25 H102        1.4780    1.2780    2.1410 h1        1 FRO      0.030700
     26 H7         -0.4660   -2.0440    1.2900 h1        1 FRO      0.124700
     27 H2         -4.1420    1.7820    2.0480 h2        1 FRO      0.105700
     28 H1         -3.2190    1.1300    4.9180 hc        1 FRO      0.101700
     29 H17        -4.7930    3.0510    4.5170 h1        1 FRO      0.067700
     30 H181       -6.0370    0.5530    5.9020 hc        1 FRO      0.046700
     31 H182       -6.6560    2.2530    6.0740 hc        1 FRO      0.046700
     32 H183       -4.9940    1.8230    6.6720 hc        1 FRO      0.046700
     33 H19        -6.4560    1.0880    3.3700 ho        1 FRO      0.412000
@<TRIPOS>BOND
     1    1    2 1   
     2    1    5 1   
     3    1   20 1   
     4    1   21 1   
     5    2    3 1   
     6    2   22 1   
     7    2   23 1   
     8    3    4 1   
     9    3   24 1   
    10    3   25 1   
    11    4    5 1   
    12    5    6 1   
    13    5   26 1   
    14    6    7 1   
    15    6    8 2   
    16    7   13 1   
    17    8    9 1   
    18    8   12 1   
    19    9   10 1   
    20    9   11 1   
    21   12   13 1   
    22   12   15 1   
    23   13   14 1   
    24   13   27 1   
    25   14   15 1   
    26   14   17 1   
    27   14   28 1   
    28   15   16 2   
    29   17   18 1   
    30   17   19 1   
    31   17   29 1   
    32   18   30 1   
    33   18   31 1   
    34   18   32 1   
    35   19   33 1   
@<TRIPOS>SUBSTRUCTURE
     1 FRO         1 TEMP              0 ****  ****    0 ROOT
