@<TRIPOS>MOLECULE
FRO
   33    34     1     0     0
SMALL
bcc


@<TRIPOS>ATOM
      1 C8          0.0500   -2.2810   -2.1570 c3        1 FRO     -0.111400
      2 C9          1.2980   -2.3430   -2.3370 c3        1 FRO     -0.103400
      3 C10         1.8940   -2.4650   -0.9640 c3        1 FRO      0.128400
      4 O11         0.7680   -2.1520    0.0170 os        1 FRO     -0.431600
      5 C7         -0.1780   -1.6440   -0.6930 c3        1 FRO      0.226300
      6 C5          0.1690   -0.2840   -0.8350 c2        1 FRO     -0.172700
      7 S6          1.1210    0.2470   -0.0600 ss        1 FRO     -0.279700
      8 C4         -0.8460    0.6910   -1.1930 c1        1 FRO      0.025100
      9 C12        -1.2470    0.8690   -2.6400 c1        1 FRO      0.860000
     10 O13        -0.4330    1.3650   -3.4620 o         1 FRO     -0.760000
     11 O14        -2.3880    0.5030   -3.0270 o         1 FRO     -0.760000
     12 N3         -0.8920    1.8950   -0.2230 n         1 FRO     -0.278400
     13 C2          0.3480    1.8040    0.4960 cy        1 FRO      0.080800
     14 C1         -0.2520    1.7140    1.5850 cy        1 FRO     -0.215700
     15 C15        -1.5040    1.9500    0.8730 c         1 FRO      0.697500
     16 O16        -2.6630    2.1010    1.2030 o         1 FRO     -0.535500
     17 C17        -0.2010    1.2510    1.8670 c3        1 FRO      0.159100
     18 C18        -1.0860    1.4440    3.5420 c3        1 FRO     -0.142100
     19 O19         1.5570    0.9260    2.1610 oh        1 FRO     -0.613800
     20 H81        -0.3590   -1.7080   -2.8400 hc        1 FRO      0.083700
     21 H82        -0.3400   -3.1800   -2.1950 hc        1 FRO      0.083700
     22 H91         1.5250   -3.1300   -2.8760 hc        1 FRO      0.039200
     23 H92         1.6190   -1.5270   -2.7740 hc        1 FRO      0.039200
     24 H101        2.2220   -3.3750   -0.8190 h1        1 FRO      0.030200
     25 H102        2.6230   -1.8230   -0.8550 h1        1 FRO      0.030200
     26 H7         -1.0850   -1.6180   -0.3250 h1        1 FRO      0.083700
     27 H2          0.9100    2.6000    0.4080 h2        1 FRO      0.090700
     28 H1         -0.0160    2.4090    2.2420 hc        1 FRO      0.084700
     29 H17        -0.6000    0.5060    1.3610 h1        1 FRO      0.083700
     30 H181       -1.7930    0.7700    3.6170 hc        1 FRO      0.058700
     31 H182       -0.4400    1.3220    4.2690 hc        1 FRO      0.058700
     32 H183       -1.4810    2.3400    3.6020 hc        1 FRO      0.058700
     33 H19         1.6970    0.8230    3.0310 ho        1 FRO      0.401000
@<TRIPOS>BOND
     1    1    2 1   
     2    1    5 1   
     3    1   20 1   
     4    1   21 1   
     5    2    3 1   
     6    2   22 1   
     7    2   23 1   
     8    3    4 1   
     9    3   24 1   
    10    3   25 1   
    11    4    5 1   
    12    5    6 1   
    13    5   26 1   
    14    6    7 1   
    15    6    8 2   
    16    7   13 1   
    17    8   12 2   
    18    9   10 2   
    19    9   11 2   
    20   12   13 1   
    21   12   15 1   
    22   13   14 1   
    23   13   27 1   
    24   14   15 1   
    25   14   17 1   
    26   14   28 1   
    27   15   16 2   
    28   17   18 1   
    29   17   19 1   
    30   17   29 1   
    31   18   30 1   
    32   18   31 1   
    33   18   32 1   
    34   19   33 1   
@<TRIPOS>SUBSTRUCTURE
     1 FRO         1 TEMP              0 ****  ****    0 ROOT
