@<TRIPOS>MOLECULE
FRO
   33    35     1     0     0
SMALL
bcc


@<TRIPOS>ATOM
      1 C8         -0.0410   -0.3170   -0.0400 c3        1 FRO     -0.097400
      2 C9          1.2660    0.4420    0.1390 c3        1 FRO     -0.107400
      3 C10         1.6140    0.3080    1.6190 c3        1 FRO      0.126400
      4 O11         0.7480   -0.6640    2.2010 os        1 FRO     -0.418600
      5 C7         -0.3800   -0.9090    1.3380 c3        1 FRO      0.213300
      6 C5         -1.6340   -0.3560    1.9030 c2        1 FRO     -0.082600
      7 S6         -1.7990    1.3220    2.3540 ss        1 FRO     -0.318700
      8 C4         -2.7810   -1.0760    2.0640 ce        1 FRO     -0.051600
      9 C12        -2.9150   -2.5890    1.7700 c         1 FRO      0.940800
     10 O13        -2.4810   -2.9750    0.6540 o         1 FRO     -0.792300
     11 O14        -3.4100   -3.3060    2.6700 o         1 FRO     -0.792300
     12 N3         -3.9080   -0.3310    2.5060 n         1 FRO     -0.281000
     13 C2         -3.5400    1.1140    2.7010 cy        1 FRO      0.086800
     14 C1         -4.0460    1.0500    4.1650 cy        1 FRO     -0.226700
     15 C15        -4.4190   -0.4270    3.8570 c         1 FRO      0.693500
     16 O16        -5.0430   -1.2680    4.4820 o         1 FRO     -0.520500
     17 C17        -5.1840    1.9820    4.5200 c3        1 FRO      0.157100
     18 C18        -5.7650    1.6210    5.8780 c3        1 FRO     -0.133100
     19 O19        -6.2020    2.0050    3.5320 oh        1 FRO     -0.604800
     20 H81         0.0670   -1.1430   -0.7860 hc        1 FRO      0.060700
     21 H82        -0.8580    0.3570   -0.3940 hc        1 FRO      0.060700
     22 H91         1.1540    1.5160   -0.1460 hc        1 FRO      0.036200
     23 H92         2.0730    0.0040   -0.4970 hc        1 FRO      0.036200
     24 H101        1.4720    1.2770    2.1640 h1        1 FRO      0.030700
     25 H102        2.6560   -0.0660    1.7840 h1        1 FRO      0.030700
     26 H7         -0.4740   -2.0360    1.2840 h1        1 FRO      0.124700
     27 H2         -4.1470    1.7900    2.0550 h2        1 FRO      0.105700
     28 H1         -3.2320    1.1200    4.9240 hc        1 FRO      0.101700
     29 H17        -4.8030    3.0450    4.5290 h1        1 FRO      0.067700
     30 H181       -6.0540    0.5410    5.8980 hc        1 FRO      0.046700
     31 H182       -5.0110    1.8060    6.6780 hc        1 FRO      0.046700
     32 H183       -6.6710    2.2410    6.0770 hc        1 FRO      0.046700
     33 H19        -6.4650    1.0910    3.3670 ho        1 FRO      0.412000
@<TRIPOS>BOND
     1    1    2 1   
     2    1    5 1   
     3    1   20 1   
     4    1   21 1   
     5    2    3 1   
     6    2   22 1   
     7    2   23 1   
     8    3    4 1   
     9    3   24 1   
    10    3   25 1   
    11    4    5 1   
    12    5    6 1   
    13    5   26 1   
    14    6    7 1   
    15    6    8 2   
    16    7   13 1   
    17    8    9 1   
    18    8   12 1   
    19    9   10 1   
    20    9   11 1   
    21   12   13 1   
    22   12   15 1   
    23   13   14 1   
    24   13   27 1   
    25   14   15 1   
    26   14   17 1   
    27   14   28 1   
    28   15   16 2   
    29   17   18 1   
    30   17   19 1   
    31   17   29 1   
    32   18   30 1   
    33   18   31 1   
    34   18   32 1   
    35   19   33 1   
@<TRIPOS>SUBSTRUCTURE
     1 FRO         1 TEMP              0 ****  ****    0 ROOT
