@<TRIPOS>MOLECULE
FRO
   33    35     1     0     0
SMALL
bcc


@<TRIPOS>ATOM
      1 C8         -0.0310   -0.3330   -0.0410 c3        1 FRO     -0.097400
      2 C9          1.2810    0.4160    0.1410 c3        1 FRO     -0.107400
      3 C10         1.6250    0.2780    1.6220 c3        1 FRO      0.126400
      4 O11         0.7520   -0.6880    2.2020 os        1 FRO     -0.418600
      5 C7         -0.3770   -0.9240    1.3360 c3        1 FRO      0.213300
      6 C5         -1.6280   -0.3620    1.8990 c2        1 FRO     -0.082600
      7 S6         -1.7810    1.3160    2.3550 ss        1 FRO     -0.317700
      8 C4         -2.7810   -1.0740    2.0560 ce        1 FRO     -0.051600
      9 C12        -2.9260   -2.5850    1.7580 c         1 FRO      0.940800
     10 O13        -2.4910   -2.9720    0.6420 o         1 FRO     -0.792300
     11 O14        -3.4290   -3.3010    2.6550 o         1 FRO     -0.792300
     12 N3         -3.9030   -0.3210    2.4970 n         1 FRO     -0.281000
     13 C2         -3.5240    1.1200    2.6960 cy        1 FRO      0.086800
     14 C1         -4.0350    1.0560    4.1590 cy        1 FRO     -0.226700
     15 C15        -4.4180   -0.4170    3.8470 c         1 FRO      0.693500
     16 O16        -5.0500   -1.2550    4.4680 o         1 FRO     -0.520500
     17 C17        -5.1660    1.9960    4.5140 c3        1 FRO      0.157100
     18 C18        -5.7540    1.6360    5.8690 c3        1 FRO     -0.133100
     19 O19        -6.1820    2.0300    3.5230 oh        1 FRO     -0.604800
     20 H81        -0.8430    0.3480   -0.3950 hc        1 FRO      0.060700
     21 H82         0.0710   -1.1580   -0.7870 hc        1 FRO      0.060700
     22 H91         1.1780    1.4910   -0.1430 hc        1 FRO      0.036200
     23 H92         2.0870   -0.0280   -0.4940 hc        1 FRO      0.036200
     24 H101        1.4900    1.2470    2.1680 h1        1 FRO      0.030700
     25 H102        2.6650   -0.1040    1.7890 h1        1 FRO      0.030700
     26 H7         -0.4790   -2.0500    1.2810 h1        1 FRO      0.124700
     27 H2         -4.1240    1.8020    2.0510 h2        1 FRO      0.105700
     28 H1         -3.2220    1.1180    4.9210 hc        1 FRO      0.101700
     29 H17        -4.7770    3.0560    4.5270 h1        1 FRO      0.067700
     30 H181       -6.6550    2.2620    6.0680 hc        1 FRO      0.046700
     31 H182       -5.0000    1.8130    6.6710 hc        1 FRO      0.046700
     32 H183       -6.0510    0.5580    5.8850 hc        1 FRO      0.046700
     33 H19        -6.4520    1.1180    3.3550 ho        1 FRO      0.412000
@<TRIPOS>BOND
     1    1    2 1   
     2    1    5 1   
     3    1   20 1   
     4    1   21 1   
     5    2    3 1   
     6    2   22 1   
     7    2   23 1   
     8    3    4 1   
     9    3   24 1   
    10    3   25 1   
    11    4    5 1   
    12    5    6 1   
    13    5   26 1   
    14    6    7 1   
    15    6    8 2   
    16    7   13 1   
    17    8    9 1   
    18    8   12 1   
    19    9   10 1   
    20    9   11 1   
    21   12   13 1   
    22   12   15 1   
    23   13   14 1   
    24   13   27 1   
    25   14   15 1   
    26   14   17 1   
    27   14   28 1   
    28   15   16 2   
    29   17   18 1   
    30   17   19 1   
    31   17   29 1   
    32   18   30 1   
    33   18   31 1   
    34   18   32 1   
    35   19   33 1   
@<TRIPOS>SUBSTRUCTURE
     1 FRO         1 TEMP              0 ****  ****    0 ROOT
