@<TRIPOS>MOLECULE
FRO
   33    35     1     0     0
SMALL
bcc


@<TRIPOS>ATOM
      1 C8         -3.5000   -0.0600   -1.0040 c3        1 FRO     -0.097400
      2 C9         -4.4030   -1.1830   -0.5110 c3        1 FRO     -0.107400
      3 C10        -3.9980   -1.4210    0.9400 c3        1 FRO      0.126400
      4 O11        -3.1360   -0.3610    1.3500 os        1 FRO     -0.418600
      5 C7         -2.6340    0.3480    0.1990 c3        1 FRO      0.213300
      6 C5         -1.1920    0.0860   -0.0220 c2        1 FRO     -0.082600
      7 S6         -0.5480   -1.5260   -0.2000 ss        1 FRO     -0.318700
      8 C4         -0.2530    1.0640   -0.1670 ce        1 FRO     -0.051600
      9 C12        -0.5370    2.5790   -0.0320 c         1 FRO      0.940800
     10 O13        -1.5200    3.0170   -0.6830 o         1 FRO     -0.792300
     11 O14         0.2070    3.2350    0.7340 o         1 FRO     -0.792300
     12 N3          1.0530    0.6080   -0.4940 n         1 FRO     -0.281000
     13 C2          1.0760   -0.8930   -0.5940 cy        1 FRO      0.086800
     14 C1          2.2150   -0.9480    0.4570 cy        1 FRO     -0.226700
     15 C15         2.1360    0.6040    0.4670 c         1 FRO      0.693500
     16 O16         2.8340    1.4620    0.9780 o         1 FRO     -0.520500
     17 C17         3.5200   -1.5620   -0.0040 c3        1 FRO      0.157100
     18 C18         4.6210   -1.2980    1.0100 c3        1 FRO     -0.133100
     19 O19         3.9110   -1.1150   -1.2930 oh        1 FRO     -0.604800
     20 H81        -2.8610   -0.3970   -1.8570 hc        1 FRO      0.060700
     21 H82        -4.0960    0.8180   -1.3520 hc        1 FRO      0.060700
     22 H91        -5.4790   -0.8880   -0.5780 hc        1 FRO      0.036200
     23 H92        -4.2660   -2.1100   -1.1180 hc        1 FRO      0.036200
     24 H101       -4.8720   -1.3980    1.6410 h1        1 FRO      0.030700
     25 H102       -3.4470   -2.3900    1.0610 h1        1 FRO      0.030700
     26 H7         -2.7700    1.4450    0.4440 h1        1 FRO      0.124700
     27 H2          1.3930   -1.2390   -1.6040 h2        1 FRO      0.105700
     28 H1          1.9030   -1.3840    1.4350 hc        1 FRO      0.101700
     29 H17         3.3770   -2.6740   -0.1440 h1        1 FRO      0.067700
     30 H181        4.6970   -0.2030    1.2190 hc        1 FRO      0.046700
     31 H182        4.3990   -1.8310    1.9630 hc        1 FRO      0.046700
     32 H183        5.5980   -1.6570    0.6080 hc        1 FRO      0.046700
     33 H19         3.9010   -0.1490   -1.2790 ho        1 FRO      0.412000
@<TRIPOS>BOND
     1    1    2 1   
     2    1    5 1   
     3    1   20 1   
     4    1   21 1   
     5    2    3 1   
     6    2   22 1   
     7    2   23 1   
     8    3    4 1   
     9    3   24 1   
    10    3   25 1   
    11    4    5 1   
    12    5    6 1   
    13    5   26 1   
    14    6    7 1   
    15    6    8 2   
    16    7   13 1   
    17    8    9 1   
    18    8   12 1   
    19    9   10 1   
    20    9   11 1   
    21   12   13 1   
    22   12   15 1   
    23   13   14 1   
    24   13   27 1   
    25   14   15 1   
    26   14   17 1   
    27   14   28 1   
    28   15   16 2   
    29   17   18 1   
    30   17   19 1   
    31   17   29 1   
    32   18   30 1   
    33   18   31 1   
    34   18   32 1   
    35   19   33 1   
@<TRIPOS>SUBSTRUCTURE
     1 FRO         1 TEMP              0 ****  ****    0 ROOT
