@<TRIPOS>MOLECULE
FRP
   85    80     1     0     0
SMALL
bcc


@<TRIPOS>ATOM
      1 C31       -60.0840   52.2460   13.5730 c2        1 FRP     -0.195000
      2 C30       -59.3370   53.1280   12.9060 c2        1 FRP     -0.181000
      3 C28       -60.2280   54.0980   15.8590 c2        1 FRP     -0.525000
      4 C27       -58.4270   41.8700   16.6420 c1        1 FRP     -0.660000
      5 C26       -58.7160   43.1680   16.5670 c2        1 FRP      0.274000
      6 C24       -62.1710   39.3460   14.8630 c1        1 FRP     -0.210000
      7 C23       -61.3830   40.3880   14.9650 c2        1 FRP     -0.007000
      8 C22       -58.1070   40.6410   16.7490 c1        1 FRP      0.277000
      9 C16       -58.8590   48.1030   14.9530 c2        1 FRP     -0.155000
     10 C20       -60.1960   44.9620   15.6930 c2        1 FRP      0.339000
     11 C15       -59.1670   49.4380   14.4230 c2        1 FRP     -0.198000
     12 C12       -60.1050   48.9450   12.2040 c2        1 FRP      0.312000
     13 C13       435.5240 -363.3650 -101.2300 c3        1 FRP     -0.244000
     14 C14       -61.0630   42.2420    6.3860 c3        1 FRP     -0.223000
     15 C11       436.7530 -363.8600 -101.9470 c3        1 FRP     -0.283000
     16 C10       -62.2510   42.8450    7.0870 c3        1 FRP     -0.179000
     17 C9        -62.0390   42.9940    8.5910 c3        1 FRP     -0.033000
     18 C8        437.3590 -365.0360 -101.4340 c2        1 FRP      0.279000
     19 C7        -61.0190   44.6050   10.1460 c2        1 FRP      0.379000
     20 C4        -60.4010   46.9330   10.8160 c2        1 FRP      0.060000
     21 C5        -59.8670   47.5350   11.9020 c2        1 FRP     -0.277000
     22 C6        -57.6080   47.3560   11.2370 c1        1 FRP      0.135000
     23 C3        -59.9460   45.6200   10.3940 c2        1 FRP     -0.206000
     24 C2        -58.6330   45.3370   10.2150 c2        1 FRP      0.029000
     25 C1        -57.5710   46.2820   10.4700 c2        1 FRP     -0.413000
     26 F1        -61.7160   41.6230   14.4850 f         1 FRP     -0.195000
     27 C25       -62.8820   38.2640   14.8110 c2        1 FRP     -0.082000
     28 N3        -59.8060   43.6360   15.8600 ns        1 FRP     -0.328000
     29 O3        -61.2230   45.1610   15.0050 o         1 FRP     -0.428000
     30 C19       -59.3940   46.0940   16.3230 c3        1 FRP     -0.095000
     31 C21       -59.7040   46.1680   17.8100 c3        1 FRP     -0.222000
     32 C18       -59.7360   47.3930   15.6720 c2        1 FRP     -0.104000
     33 N4        -63.1260   43.8600   13.4150 n+        1 FRP     -0.084000
     34 C32       -59.8390   51.8280   14.9510 c2        1 FRP     -0.185000
     35 C33       -59.9350   52.7070   15.9930 c2        1 FRP      0.091000
     36 C29       -60.3040   55.0250   16.8060 c1        1 FRP      0.370000
     37 N2        -58.9770   49.5970   12.9810 ny        1 FRP     -0.045000
     38 O2        -61.0460   49.6570   11.8810 o         1 FRP     -0.187000
     39 O1        -61.8590   44.3550   11.0510 o         1 FRP     -0.487000
     40 N1        -61.0370   43.9760    8.9410 ns        1 FRP     -0.331000
     41 H31       -60.9940   51.8100   13.1150 ha        1 FRP      0.148000
     42 H30       -59.5840   53.4430   11.8810 ha        1 FRP      0.138500
     43 H28       -58.4460   53.6080   13.3380 ha        1 FRP      0.138500
     44 H27       -58.0920   43.9400   17.0690 h4        1 FRP      0.158000
     45 H24       -62.8130   37.5540   13.9700 ha        1 FRP      0.158500
     46 H22       -60.3830   40.3680   15.4440 h4        1 FRP      0.185000
     47 H16       -57.8300   47.7440   14.7660 ha        1 FRP      0.147000
     48 H171      -58.3170   44.3130    7.5520 ha        1 FRP      0.001500
     49 H172      -58.2800   44.0930    6.9120 ha        1 FRP      0.001500
     50 H15       -59.6060   50.1770   16.3260 ha        1 FRP      0.165000
     51 H131      434.7090 -364.1300 -101.2530 hc        1 FRP      0.125667
     52 H132      435.7520 -363.1160 -100.1640 hc        1 FRP      0.125667
     53 H133      435.1430 -362.4370 -101.7280 hc        1 FRP      0.125667
     54 H141      -60.7780   41.2670    6.8510 hc        1 FRP      0.084667
     55 H142      -60.1770   42.9220    6.4230 hc        1 FRP      0.084667
     56 H143      -61.3090   42.0570    5.3110 hc        1 FRP      0.084667
     57 H111      437.5490 -363.0320 -102.0080 hc        1 FRP      0.248000
     58 H112      436.5350 -364.0160 -103.0660 hc        1 FRP      0.248000
     59 H101      -63.0130   43.2900    9.0770 h1        1 FRP      0.098500
     60 H102      -63.1440   42.1770    6.9490 hc        1 FRP      0.107000
     61 H91       -62.5070   43.8360    6.6280 hc        1 FRP      0.107000
     62 H92       -61.7240   41.9990    9.0220 h1        1 FRP      0.098500
     63 H81       436.9470 -365.5630 -100.5480 ha        1 FRP      0.188000
     64 H82       438.2680 -365.4670 -101.9030 ha        1 FRP      0.188000
     65 H4        -61.1510   47.4350   10.1730 ha        1 FRP      0.180000
     66 H6        -59.2850   46.9660   12.6570 ha        1 FRP      0.184000
     67 H2        -56.6020   46.0620    9.9550 ha        1 FRP      0.233000
     68 H1        -58.3160   44.3460    9.8360 ha        1 FRP      0.173000
     69 H25       -63.5900   37.9850   15.6100 ha        1 FRP      0.158500
     70 HN3       -62.7170   43.7050   14.3450 hn        1 FRP      0.267000
     71 H19       -60.3940   42.9440   15.4260 hn        1 FRP      0.257000
     72 H211      -58.2930   45.8820   16.1860 hc        1 FRP      0.127000
     73 H212      -59.1190   47.0000   18.2740 hc        1 FRP      0.107333
     74 H213      -59.4260   45.2150   18.3220 hc        1 FRP      0.107333
     75 H181      -60.7910   46.3620   17.9800 hc        1 FRP      0.107333
     76 H182      -60.7690   47.7420   15.8480 ha        1 FRP      0.156000
     77 HN41      -64.1410   43.9060   13.4740 hn        1 FRP      0.267000
     78 HN42      -62.7500   44.7380   13.0350 hn        1 FRP      0.267000
     79 H33       -59.7790   52.3430   17.0280 ha        1 FRP      0.141000
     80 H29       -60.4280   54.4710   14.8220 ha        1 FRP      0.219000
     81 HN2       -58.0910   49.1380   12.7000 hn        1 FRP      0.275000
     82 C17       -59.5440   50.4510   15.2490 c2        1 FRP      0.042000
     83 H43       -62.8420   43.0980   12.7890 hn        1 FRP      0.267000
     84 H221      -58.9360   50.6040   12.7460 hn        1 FRP      0.275000
     85 H11       -60.3670   44.2190    8.2440 hn        1 FRP      0.250000
@<TRIPOS>BOND
     1    1    2 1   
     2    1   34 1   
     3    1   41 1   
     4    2   42 1   
     5    2   43 1   
     6    3   35 1   
     7    3   36 1   
     8    3   80 1   
     9    4    5 1   
    10    4    8 1   
    11    5   28 1   
    12    5   44 1   
    13    6    7 1   
    14    6   27 1   
    15    7   26 1   
    16    7   46 1   
    17    9   11 1   
    18    9   32 1   
    19    9   47 1   
    20   10   28 1   
    21   10   29 1   
    22   10   30 1   
    23   11   37 1   
    24   11   82 1   
    25   12   21 1   
    26   12   37 1   
    27   12   38 1   
    28   13   15 1   
    29   13   51 1   
    30   13   52 1   
    31   13   53 1   
    32   14   16 1   
    33   14   54 1   
    34   14   55 1   
    35   14   56 1   
    36   15   18 1   
    37   15   57 1   
    38   15   58 1   
    39   16   17 1   
    40   16   60 1   
    41   16   61 1   
    42   17   40 1   
    43   17   59 1   
    44   17   62 1   
    45   18   63 1   
    46   18   64 1   
    47   19   23 1   
    48   19   39 1   
    49   19   40 1   
    50   20   21 1   
    51   20   23 1   
    52   20   65 1   
    53   21   66 1   
    54   22   25 1   
    55   23   24 1   
    56   24   25 1   
    57   24   68 1   
    58   25   67 1   
    59   27   45 1   
    60   27   69 1   
    61   28   71 1   
    62   30   31 1   
    63   30   32 1   
    64   30   72 1   
    65   31   73 1   
    66   31   74 1   
    67   31   75 1   
    68   32   76 1   
    69   33   70 1   
    70   33   77 1   
    71   33   78 1   
    72   33   83 1   
    73   34   35 1   
    74   34   82 1   
    75   35   79 1   
    76   37   81 1   
    77   37   84 1   
    78   40   85 1   
    79   48   49 1   
    80   50   82 1   
@<TRIPOS>SUBSTRUCTURE
     1 FRP         1 TEMP              0 ****  ****    0 ROOT
