@<TRIPOS>MOLECULE
FRP
   82    84     1     0     0
SMALL
bcc


@<TRIPOS>ATOM
      1 C31         0.1910    1.2950   -2.8700 ca        1 FRP     -0.124500
      2 C30         0.9990    2.1920   -3.5680 ca        1 FRP     -0.127500
      3 C28         0.6370    3.8530   -1.8550 ca        1 FRP     -0.127500
      4 C27        -8.1650   -1.4300    0.7030 ca        1 FRP     -0.147500
      5 C26        -7.0500   -0.6420    0.3240 ca        1 FRP      0.056600
      6 C24        -8.0220   -0.4050   -1.8930 ca        1 FRP     -0.138500
      7 C23        -9.1210   -1.1890   -1.5050 ca        1 FRP      0.096900
      8 C22        -9.1860   -1.7000   -0.1970 ca        1 FRP     -0.138500
      9 C16        -1.8120   -0.3630    1.2780 c3        1 FRP      0.141500
     10 C20        -4.8690    0.3070    1.1200 c         1 FRP      0.668100
     11 C15        -0.6630    0.2810    0.4210 c3        1 FRP      0.106700
     12 C12         1.4440   -0.7290    1.2000 c         1 FRP      0.673700
     13 C13         9.9580    0.9180    2.0940 c3        1 FRP     -0.093100
     14 C14         6.2750   -0.5330   -2.9900 c3        1 FRP     -0.093100
     15 C11         8.5060    0.6680    1.7800 c3        1 FRP     -0.100900
     16 C10         6.8240   -1.2350   -1.7760 c3        1 FRP     -0.100900
     17 C9          6.4780   -0.4450   -0.5100 c3        1 FRP      0.090500
     18 C8          8.3470   -0.6840    1.0800 c3        1 FRP      0.090500
     19 C7          6.2760   -1.9440    1.4580 c         1 FRP      0.672700
     20 C4          3.8390   -1.3700    1.2780 ca        1 FRP     -0.055000
     21 C5          2.5270   -1.7230    0.9440 ca        1 FRP     -0.139600
     22 C6          2.2530   -2.9870    0.4120 ca        1 FRP     -0.092000
     23 C3          4.8770   -2.2780    1.0540 ca        1 FRP     -0.132600
     24 C2          4.6050   -3.5410    0.5190 ca        1 FRP     -0.077000
     25 C1          3.2930   -3.8920    0.2030 ca        1 FRP     -0.141000
     26 F1        -10.1170   -1.4520   -2.3860 f         1 FRP     -0.140900
     27 C25        -7.0000   -0.1340   -0.9920 ca        1 FRP     -0.147500
     28 N3         -6.0490   -0.4060    1.2800 n         1 FRP     -0.469100
     29 O3         -4.5440    0.8430    0.0450 o         1 FRP     -0.594100
     30 C19        -3.9810    0.4030    2.3670 c3        1 FRP     -0.132700
     31 C21        -4.5670    1.4320    3.3130 c3        1 FRP     -0.096100
     32 C18        -2.5630    0.7880    1.9760 c3        1 FRP     -0.115400
     33 N4         -1.3380   -1.4020    2.1700 n3        1 FRP     -0.916800
     34 C32        -0.3990    1.6710   -1.6580 ca        1 FRP     -0.070300
     35 C33        -0.1720    2.9590   -1.1570 ca        1 FRP     -0.124500
     36 C29         1.2240    3.4710   -3.0620 ca        1 FRP     -0.133000
     37 N2          0.4930   -0.5600    0.2080 n         1 FRP     -0.528900
     38 O2          1.4390   -0.0270    2.2340 o         1 FRP     -0.617100
     39 O1          6.7930   -2.4940    2.4520 o         1 FRP     -0.594100
     40 N1          6.9840   -1.0100    0.7170 n         1 FRP     -0.471800
     41 H31         0.0160    0.2870   -3.2760 ha        1 FRP      0.129000
     42 H30         1.4570    1.8880   -4.5200 ha        1 FRP      0.130000
     43 H28         0.8110    4.8620   -1.4540 ha        1 FRP      0.130000
     44 H27        -8.2380   -1.8420    1.7220 ha        1 FRP      0.155500
     45 H24        -7.9740   -0.0050   -2.9180 ha        1 FRP      0.150500
     46 H22       -10.0470   -2.3130    0.1060 ha        1 FRP      0.150500
     47 H16        -2.5340   -0.8620    0.5630 h1        1 FRP      0.062700
     48 H171       -1.5040   -0.1740   -1.5540 hc        1 FRP      0.070200
     49 H172       -2.2660    1.2250   -0.7080 hc        1 FRP      0.070200
     50 H15        -0.2950    1.1950    0.9790 h1        1 FRP      0.082700
     51 H131       10.5700    0.9320    1.1600 hc        1 FRP      0.035867
     52 H132       10.0760    1.9040    2.6070 hc        1 FRP      0.035867
     53 H133       10.3610    0.1220    2.7650 hc        1 FRP      0.035867
     54 H141        6.7110    0.4900   -3.0890 hc        1 FRP      0.035867
     55 H142        6.5220   -1.1120   -3.9130 hc        1 FRP      0.035867
     56 H143        5.1640   -0.4350   -2.9230 hc        1 FRP      0.035867
     57 H111        8.1120    1.4910    1.1280 hc        1 FRP      0.046200
     58 H112        7.9060    0.6760    2.7280 hc        1 FRP      0.046200
     59 H101        6.3940   -2.2680   -1.7070 hc        1 FRP      0.046200
     60 H102        7.9360   -1.3410   -1.8700 hc        1 FRP      0.046200
     61 H91         6.9010    0.5970   -0.6120 h1        1 FRP      0.056700
     62 H92         5.3570   -0.3500   -0.4420 h1        1 FRP      0.056700
     63 H81         8.7450   -1.4890    1.7640 h1        1 FRP      0.056700
     64 H82         8.9740   -0.6810    0.1420 h1        1 FRP      0.056700
     65 H4          4.0380   -0.3840    1.7290 ha        1 FRP      0.163000
     66 H6          1.2190   -3.2850    0.1780 ha        1 FRP      0.141000
     67 H2          5.4260   -4.2590    0.3640 ha        1 FRP      0.147000
     68 H1          3.0770   -4.8900   -0.2070 ha        1 FRP      0.141000
     69 H25        -6.1490    0.4850   -1.3260 ha        1 FRP      0.155500
     70 HN3        -6.2270   -0.7850    2.1840 hn        1 FRP      0.316500
     71 H19        -3.9610   -0.5980    2.8840 hc        1 FRP      0.059700
     72 H211       -4.6150    2.4330    2.8200 hc        1 FRP      0.047700
     73 H212       -5.5970    1.1410    3.6300 hc        1 FRP      0.047700
     74 H213       -3.9280    1.5170    4.2250 hc        1 FRP      0.047700
     75 H181       -2.0030    1.1050    2.8950 hc        1 FRP      0.067200
     76 H182       -2.6100    1.6750    1.2900 hc        1 FRP      0.067200
     77 HN41       -0.6040   -1.0610    2.7630 hn        1 FRP      0.357300
     78 HN42       -2.0890   -1.7360    2.7410 hn        1 FRP      0.357300
     79 H33        -0.6370    3.2630   -0.2070 ha        1 FRP      0.129000
     80 H29         1.8610    4.1780   -3.6130 ha        1 FRP      0.130000
     81 HN2         0.4020   -1.2720   -0.4790 hn        1 FRP      0.306500
     82 C17        -1.2800    0.7260   -0.9210 c3        1 FRP     -0.054100
@<TRIPOS>BOND
     1    1    2 ar  
     2    1   34 ar  
     3    1   41 1   
     4    2   36 ar  
     5    2   42 1   
     6    3   35 ar  
     7    3   36 ar  
     8    3   43 1   
     9    4    5 ar  
    10    4    8 ar  
    11    4   44 1   
    12    5   27 ar  
    13    5   28 1   
    14    6    7 ar  
    15    6   27 ar  
    16    6   45 1   
    17    7    8 ar  
    18    7   26 1   
    19    8   46 1   
    20    9   11 1   
    21    9   32 1   
    22    9   33 1   
    23    9   47 1   
    24   10   28 1   
    25   10   29 2   
    26   10   30 1   
    27   11   37 1   
    28   11   50 1   
    29   11   82 1   
    30   12   21 1   
    31   12   37 1   
    32   12   38 2   
    33   13   15 1   
    34   13   51 1   
    35   13   52 1   
    36   13   53 1   
    37   14   16 1   
    38   14   54 1   
    39   14   55 1   
    40   14   56 1   
    41   15   18 1   
    42   15   57 1   
    43   15   58 1   
    44   16   17 1   
    45   16   59 1   
    46   16   60 1   
    47   17   40 1   
    48   17   61 1   
    49   17   62 1   
    50   18   40 1   
    51   18   63 1   
    52   18   64 1   
    53   19   23 1   
    54   19   39 2   
    55   19   40 1   
    56   20   21 ar  
    57   20   23 ar  
    58   20   65 1   
    59   21   22 ar  
    60   22   25 ar  
    61   22   66 1   
    62   23   24 ar  
    63   24   25 ar  
    64   24   67 1   
    65   25   68 1   
    66   27   69 1   
    67   28   70 1   
    68   30   31 1   
    69   30   32 1   
    70   30   71 1   
    71   31   72 1   
    72   31   73 1   
    73   31   74 1   
    74   32   75 1   
    75   32   76 1   
    76   33   77 1   
    77   33   78 1   
    78   34   35 ar  
    79   34   82 1   
    80   35   79 1   
    81   36   80 1   
    82   37   81 1   
    83   48   82 1   
    84   49   82 1   
@<TRIPOS>SUBSTRUCTURE
     1 FRP         1 TEMP              0 ****  ****    0 ROOT
