@<TRIPOS>MOLECULE
FRP
   82    80     1     0     0
SMALL
bcc


@<TRIPOS>ATOM
      1 C31        -0.5400    1.9660    1.2050 c2        1 FRP     -0.138000
      2 C30        -0.1960    2.7290    0.1670 c2        1 FRP     -0.209000
      3 C28         2.2580    0.9450    0.7890 c2        1 FRP     -0.453000
      4 C27        -7.5190   -4.5060    1.6470 c1        1 FRP     -0.670000
      5 C26        -7.4590   -3.1660    1.6530 c2        1 FRP      0.295000
      6 C24        -6.4160    3.6170    0.4730 c1        1 FRP     -0.240000
      7 C23        -5.5540    4.3310   -0.2130 c2        1 FRP      0.034000
      8 C22        -7.6150   -5.7640    1.6130 c1        1 FRP      0.159000
      9 C16        -3.5990   -1.0740    1.6800 c3        1 FRP     -0.049000
     10 C20        -6.4900   -1.0370    2.3500 c2        1 FRP      0.315000
     11 C15        -2.3340   -0.4880    0.9550 c3        1 FRP      0.008000
     12 C12        -1.3780   -2.4600   -0.2620 c2        1 FRP      0.344000
     13 C13         1.7470   -9.7780   -2.8340 c3        1 FRP     -0.211500
     14 C14         3.3260   -3.6690   -4.2390 c3        1 FRP     -0.211500
     15 C11         1.2910   -8.3770   -2.5180 c3        1 FRP     -0.180500
     16 C10         2.2480   -4.6470   -4.6230 c3        1 FRP     -0.180500
     17 C9          1.6140   -5.2560   -3.3680 c3        1 FRP     -0.023500
     18 C8          1.0160   -7.6120   -3.8140 c3        1 FRP     -0.023500
     19 C7         -0.7510   -5.9140   -3.6960 c2        1 FRP      0.350000
     20 C4         -1.4450   -4.0710   -2.1510 c2        1 FRP     -0.040000
     21 C5         -0.9700   -2.9340   -1.6160 c2        1 FRP     -0.215000
     22 C6         -1.8560   -1.5710   -3.3730 c1        1 FRP      0.156000
     23 C3         -1.1420   -4.4790   -3.5120 c2        1 FRP     -0.149000
     24 C2         -1.3260   -3.6710   -4.5780 c2        1 FRP     -0.023000
     25 C1         -1.8240   -2.3200   -4.4640 c2        1 FRP     -0.430000
     26 F1         -4.2930    4.5920    0.2030 f         1 FRP     -0.119000
     27 C25        -7.3020    2.9180    1.1080 c2        1 FRP     -0.121000
     28 N3         -6.5440   -2.4450    2.3670 n         1 FRP     -0.307000
     29 O3         -7.2550   -0.3940    1.6130 o         1 FRP     -0.339000
     30 C19        -5.4760   -0.3680    3.2700 c3        1 FRP     -0.108000
     31 C21        -6.1280    0.8310    3.9330 c3        1 FRP     -0.217000
     32 C18        -4.2600    0.0690    2.4660 c3        1 FRP     -0.156000
     33 N4         -3.3760   -2.2530    2.4860 n3        1 FRP     -0.356000
     34 C32        -0.1110    0.5900    1.4190 c2        1 FRP     -0.086000
     35 C33         1.1440    0.1370    1.2240 c2        1 FRP     -0.072000
     36 C29         3.4090    0.5340    0.2990 c1        1 FRP      0.202000
     37 N2         -1.9920   -1.2270   -0.2370 n         1 FRP     -0.370000
     38 O2         -1.1750   -3.1430    0.7640 o         1 FRP     -0.387000
     39 O1         -1.6200   -6.7820   -3.9050 o         1 FRP     -0.348000
     40 N1          0.5930   -6.2400   -3.6260 n         1 FRP     -0.327000
     41 H31        -1.2180    2.3580    1.9860 ha        1 FRP      0.126000
     42 H30        -0.5600    3.7600    0.0600 ha        1 FRP      0.119000
     43 H28         0.4500    2.3750   -0.6480 ha        1 FRP      0.119000
     44 H27        -8.1830   -2.5520    1.0640 h4        1 FRP      0.164000
     45 H24        -8.0080    3.3740    1.8200 ha        1 FRP      0.145500
     46 H22        -5.7940    4.7800   -1.1940 h4        1 FRP      0.154000
     47 H16        -4.3330   -1.3780    0.8700 h1        1 FRP      0.104000
     48 H171       -2.6220    0.5510    0.6030 h1        1 FRP      0.106000
     49 H172       -1.5640    0.0970    2.9020 hc        1 FRP      0.107500
     50 H15        -0.7240   -1.3380    2.1780 hc        1 FRP      0.107500
     51 H131        0.9640  -10.3280   -3.4110 hc        1 FRP      0.076000
     52 H132        2.6850   -9.7640   -3.4400 hc        1 FRP      0.076000
     53 H133        1.9460  -10.3390   -1.8890 hc        1 FRP      0.076000
     54 H141        4.1310   -4.1760   -3.6540 hc        1 FRP      0.076000
     55 H142        2.9080   -2.8420   -3.6140 hc        1 FRP      0.076000
     56 H143        3.7840   -3.2220   -5.1540 hc        1 FRP      0.076000
     57 H111        2.0770   -7.8500   -1.9160 hc        1 FRP      0.086250
     58 H112        0.3590   -8.4130   -1.8950 hc        1 FRP      0.086250
     59 H101        2.4280   -5.7450   -2.7580 h1        1 FRP      0.096000
     60 H102        1.4590   -4.1280   -5.2300 hc        1 FRP      0.086250
     61 H91         2.6820   -5.4580   -5.2640 hc        1 FRP      0.086250
     62 H92         1.1790   -4.4220   -2.7440 h1        1 FRP      0.096000
     63 H81         1.9550   -7.6040   -4.4390 h1        1 FRP      0.096000
     64 H82         0.2140   -8.1590   -4.3890 h1        1 FRP      0.096000
     65 H4         -2.1270   -4.7390   -1.5900 ha        1 FRP      0.169000
     66 H6         -0.1770   -2.3280   -2.0950 ha        1 FRP      0.162000
     67 H2         -2.2320   -1.8810   -5.4000 ha        1 FRP      0.196000
     68 H1         -1.1220   -4.0330   -5.6000 ha        1 FRP      0.148000
     69 H25        -7.4050    1.8260    0.9750 ha        1 FRP      0.145500
     70 HN3        -5.8430   -2.9330    2.8910 hn        1 FRP      0.271000
     71 H19        -5.1470   -1.0830    4.0760 hc        1 FRP      0.123000
     72 H211       -5.3800    1.3660    4.5650 hc        1 FRP      0.091000
     73 H212       -6.5230    1.5380    3.1610 hc        1 FRP      0.091000
     74 H213       -6.9760    0.5030    4.5800 hc        1 FRP      0.091000
     75 H181       -3.5270    0.5320    3.1770 hc        1 FRP      0.099000
     76 H182       -4.5720    0.8610    1.7330 hc        1 FRP      0.099000
     77 HN41       -2.7090   -2.0670    3.2100 hn        1 FRP      0.164000
     78 HN42       -3.0290   -3.0040    1.9180 hn        1 FRP      0.164000
     79 H33         1.3770   -0.9250    1.4220 ha        1 FRP      0.136000
     80 H29         2.1220    2.0480    0.8890 ha        1 FRP      0.201000
     81 HN2        -2.1000   -0.7520   -1.1090 hn        1 FRP      0.254000
     82 C17        -1.1650   -0.3310    1.9430 c3        1 FRP     -0.150000
@<TRIPOS>BOND
     1    1    2 1   
     2    1   34 1   
     3    1   41 1   
     4    2   42 1   
     5    2   43 1   
     6    3   35 1   
     7    3   36 1   
     8    3   80 1   
     9    4    5 1   
    10    4    8 1   
    11    5   28 1   
    12    5   44 1   
    13    6    7 1   
    14    6   27 1   
    15    7   26 1   
    16    7   46 1   
    17    9   11 1   
    18    9   32 1   
    19    9   33 1   
    20    9   47 1   
    21   10   28 1   
    22   10   29 1   
    23   10   30 1   
    24   11   37 1   
    25   11   48 1   
    26   11   82 1   
    27   12   21 1   
    28   12   37 1   
    29   12   38 1   
    30   13   15 1   
    31   13   51 1   
    32   13   52 1   
    33   13   53 1   
    34   14   16 1   
    35   14   54 1   
    36   14   55 1   
    37   14   56 1   
    38   15   18 1   
    39   15   57 1   
    40   15   58 1   
    41   16   17 1   
    42   16   60 1   
    43   16   61 1   
    44   17   40 1   
    45   17   59 1   
    46   17   62 1   
    47   18   40 1   
    48   18   63 1   
    49   18   64 1   
    50   19   23 1   
    51   19   39 1   
    52   19   40 1   
    53   20   21 1   
    54   20   23 1   
    55   20   65 1   
    56   21   66 1   
    57   22   25 1   
    58   23   24 1   
    59   24   25 1   
    60   24   68 1   
    61   25   67 1   
    62   27   45 1   
    63   27   69 1   
    64   28   70 1   
    65   30   31 1   
    66   30   32 1   
    67   30   71 1   
    68   31   72 1   
    69   31   73 1   
    70   31   74 1   
    71   32   75 1   
    72   32   76 1   
    73   33   77 1   
    74   33   78 1   
    75   34   35 1   
    76   34   82 1   
    77   35   79 1   
    78   37   81 1   
    79   49   82 1   
    80   50   82 1   
@<TRIPOS>SUBSTRUCTURE
     1 FRP         1 TEMP              0 ****  ****    0 ROOT
