@<TRIPOS>MOLECULE
FRP
   82    74     1     0     0
SMALL
bcc


@<TRIPOS>ATOM
      1 C31         3.8330    3.8580   -0.0480 c1        1 FRP     -0.124000
      2 C30         5.0430    4.0660    0.6060 c1        1 FRP     -0.130750
      3 C28         3.8850    4.1640    2.7100 c1        1 FRP     -0.125000
      4 C27        -5.3800    6.8220    3.4610 c1        1 FRP     -0.163000
      5 C26        -4.8030    5.6200    3.8500 c1        1 FRP      0.065000
      6 C24        -5.1960    6.1730    6.1680 c1        1 FRP     -0.130750
      7 C23        -5.7730    7.3730    5.7790 c1        1 FRP      0.061000
      8 C22        -5.8650    7.6980    4.4170 c1        1 FRP     -0.138000
      9 C16        -0.9180    2.5990    0.3790 c3        1 FRP     -0.054000
     10 C17         1.2850    3.7360   -0.0580 c3        1 FRP     -0.132000
     11 C20        -3.1700    3.8750    3.0080 c1        1 FRP      0.310000
     12 C15         0.5990    2.3850    0.2390 c3        1 FRP      0.031000
     13 C12         1.2900    0.1580   -0.5220 c1        1 FRP      0.353000
     14 C13        -0.8150   -8.3460   -2.4090 c3        1 FRP     -0.209500
     15 C14         4.3640   -8.2050   -4.0940 c3        1 FRP     -0.209500
     16 C11         0.4250   -7.4540   -2.1110 c3        1 FRP     -0.186500
     17 C10         2.9050   -7.6930   -3.8840 c3        1 FRP     -0.186500
     18 C9          2.8930   -6.1660   -3.8780 c3        1 FRP     -0.026500
     19 C8          0.5010   -6.3260   -3.1380 c3        1 FRP     -0.026500
     20 C7          2.0050   -4.6480   -2.0770 c1        1 FRP      0.342000
     21 C4          1.6250   -2.2430   -1.3690 c1        1 FRP     -0.049000
     22 C5          1.2000   -0.9370   -1.6340 c1        1 FRP     -0.118000
     23 C6          0.6610   -0.6170   -2.8820 c1        1 FRP     -0.095000
     24 C3          1.5100   -3.2240   -2.3520 c1        1 FRP     -0.111000
     25 C2          0.9710   -2.9030   -3.5970 c2        1 FRP     -0.086000
     26 C1          0.5460   -1.5930   -3.8590 c1        1 FRP     -0.141000
     27 F1         -6.1390    8.2710    6.7080 f         1 FRP     -0.107000
     28 C25        -4.7110    5.2950    5.2110 c1        1 FRP     -0.130750
     29 N3         -4.4130    4.6450    2.8440 n2        1 FRP     -0.325000
     30 O3         -2.4610    4.0560    3.9950 o         1 FRP     -0.347000
     31 C19        -2.8060    2.7760    1.9890 c3        1 FRP     -0.122000
     32 C21        -3.3250    1.4690    2.4610 c3        1 FRP     -0.215000
     33 C18        -1.2820    2.6980    1.8450 c3        1 FRP     -0.202000
     34 N4         -1.6080    1.5050   -0.2060 n3        1 FRP     -0.348000
     35 C32         2.6440    3.8030    0.6830 c2        1 FRP     -0.073000
     36 C33         2.6720    3.9560    2.0560 c2        1 FRP     -0.122000
     37 C29         5.0690    4.2190    1.9800 c1        1 FRP     -0.130750
     38 N2          0.8480    1.5060   -0.8020 n3        1 FRP     -0.342000
     39 O2          1.6990   -0.1360    0.5980 o         1 FRP     -0.381000
     40 O1          2.4970   -4.9190   -1.0050 o         1 FRP     -0.351000
     41 N1          1.7820   -5.6890   -3.0530 n3        1 FRP     -0.324000
     42 H31         3.8150    3.7510   -1.0070 ha        1 FRP      0.125000
     43 H30         5.8750    4.1050    0.0950 ha        1 FRP      0.148750
     44 H28         3.9040    4.2700    3.6630 ha        1 FRP      0.133000
     45 H27        -5.4440    7.0470    2.5200 ha        1 FRP      0.133000
     46 H24        -5.1330    5.9480    7.1120 ha        1 FRP      0.148750
     47 H22        -6.2690    8.5410    4.1440 ha        1 FRP      0.149000
     48 H16        -1.1710    3.4220   -0.0750 h1        1 FRP      0.092000
     49 H171        1.4370    3.8180   -1.0230 hc        1 FRP      0.097000
     50 H172        0.7150    4.4640    0.2430 hc        1 FRP      0.097000
     51 H15         0.9540    2.0140    1.0720 h1        1 FRP      0.125000
     52 H131       -0.8310   -8.5790   -3.3730 hc        1 FRP      0.075167
     53 H132       -0.7630   -9.1730   -1.8720 hc        1 FRP      0.075167
     54 H133       -1.6380   -7.8550   -2.1750 hc        1 FRP      0.075167
     55 H141        4.3410   -9.1120   -4.4790 hc        1 FRP      0.075167
     56 H142        4.8410   -7.5990   -4.7090 hc        1 FRP      0.075167
     57 H143        4.8320   -8.2280   -3.2260 hc        1 FRP      0.075167
     58 H111        1.2400   -7.9990   -2.1630 hc        1 FRP      0.088750
     59 H112        0.3440   -7.0720   -1.2120 hc        1 FRP      0.088750
     60 H101        2.3370   -8.0200   -4.6090 hc        1 FRP      0.088750
     61 H102        2.5640   -8.0240   -3.0290 hc        1 FRP      0.088750
     62 H91         3.7370   -5.8350   -3.5110 h1        1 FRP      0.095250
     63 H92         2.7840   -5.8370   -4.7920 h1        1 FRP      0.095250
     64 H81        -0.2040   -5.6690   -2.9550 h1        1 FRP      0.095250
     65 H82         0.3790   -6.6930   -4.0300 h1        1 FRP      0.095250
     66 H4          2.0830   -2.4460   -0.5250 ha        1 FRP      0.163000
     67 H6          0.3620    0.2990   -3.0660 ha        1 FRP      0.143000
     68 H2          0.8880   -3.5970   -4.2940 ha        1 FRP      0.145000
     69 H1          0.1660   -1.3650   -4.7380 ha        1 FRP      0.140000
     70 H25        -4.3050    4.4500    5.4850 ha        1 FRP      0.148750
     71 HN3        -4.8940    4.5680    2.0830 hn        1 FRP      0.229000
     72 H19        -3.2100    2.9930    1.1110 hc        1 FRP      0.103000
     73 H211       -3.0960    1.3490    3.4070 hc        1 FRP      0.085667
     74 H212       -4.3020    1.4470    2.3550 hc        1 FRP      0.085667
     75 H213       -2.9180    0.7410    1.9290 hc        1 FRP      0.085667
     76 H181       -0.9490    1.9060    2.3180 hc        1 FRP      0.113000
     77 H182       -0.8800    3.4940    2.2250 hc        1 FRP      0.113000
     78 HN41       -1.9200    0.9470    0.4580 hn        1 FRP      0.152500
     79 HN42       -2.3260    1.8220   -0.7070 hn        1 FRP      0.152500
     80 H33         1.8490    3.9180    2.5650 ha        1 FRP      0.133000
     81 H29         5.9180    4.3650    2.4380 ha        1 FRP      0.148750
     82 HN2         0.8030    1.7990   -1.6620 hn        1 FRP      0.224000
@<TRIPOS>BOND
     1    1   35 1   
     2    1   42 1   
     3    2   37 1   
     4    2   43 1   
     5    3   36 1   
     6    3   44 1   
     7    4    5 1   
     8    4   45 1   
     9    5   29 1   
    10    6   28 1   
    11    6   46 1   
    12    7    8 1   
    13    7   27 1   
    14    8   47 1   
    15    9   12 1   
    16    9   33 1   
    17    9   34 1   
    18    9   48 1   
    19   10   12 1   
    20   10   35 1   
    21   10   49 1   
    22   10   50 1   
    23   11   30 1   
    24   11   31 1   
    25   12   38 1   
    26   12   51 1   
    27   13   38 1   
    28   13   39 1   
    29   14   16 1   
    30   14   52 1   
    31   14   53 1   
    32   14   54 1   
    33   15   17 1   
    34   15   55 1   
    35   15   56 1   
    36   15   57 1   
    37   16   19 1   
    38   16   58 1   
    39   16   59 1   
    40   17   18 1   
    41   17   60 1   
    42   17   61 1   
    43   18   41 1   
    44   18   62 1   
    45   18   63 1   
    46   19   41 1   
    47   19   64 1   
    48   19   65 1   
    49   20   40 1   
    50   20   41 1   
    51   21   24 1   
    52   21   66 1   
    53   22   23 1   
    54   23   67 1   
    55   24   25 1   
    56   25   26 1   
    57   25   68 1   
    58   26   69 1   
    59   28   70 1   
    60   29   71 1   
    61   31   32 1   
    62   31   33 1   
    63   31   72 1   
    64   32   73 1   
    65   32   74 1   
    66   32   75 1   
    67   33   76 1   
    68   33   77 1   
    69   34   78 1   
    70   34   79 1   
    71   35   36 1   
    72   36   80 1   
    73   37   81 1   
    74   38   82 1   
@<TRIPOS>SUBSTRUCTURE
     1 FRP         1 TEMP              0 ****  ****    0 ROOT
