@<TRIPOS>MOLECULE
FRQ
   53    49     1     0     0
SMALL
bcc


@<TRIPOS>ATOM
      1 C1          2.1190   -3.6520    3.3350 c1        1 FRQ     -0.129500
      2 C2          0.9010   -2.9920    3.2980 c1        1 FRQ     -0.213000
      3 C3          0.4930   -2.2020    4.3960 c1        1 FRQ      0.158000
      4 C4          1.2950   -2.0880    5.4870 c1        1 FRQ     -0.232000
      5 C5          2.5360   -2.7610    5.5230 c1        1 FRQ      0.196000
      6 C6          2.9360   -3.5360    4.4470 c1        1 FRQ     -0.129500
      7 N10        -0.7160   -1.5720    4.3710 n3        1 FRQ     -0.266000
      8 C11        -1.1210   -0.8270    5.4430 c1        1 FRQ      0.404000
      9 N12        -0.3120   -0.7120    6.5450 n2        1 FRQ     -0.364000
     10 C13         0.8820   -1.3330    6.5720 c2        1 FRQ      0.363000
     11 O14         1.5980   -1.2300    7.5490 o         1 FRQ     -0.314000
     12 O15        -2.1980   -0.2660    5.4200 o         1 FRQ     -0.360000
     13 C16        -1.5570   -1.6860    3.2250 c3        1 FRQ     -0.023000
     14 C17        -1.9890   -0.3070    2.7760 c3        1 FRQ     -0.185000
     15 C20        -2.0110   -0.2520    1.2620 c3        1 FRQ     -0.158000
     16 C23        -1.6260    1.1400    0.8000 c3        1 FRQ     -0.070000
     17 N26        -1.3890    1.1490   -1.4040 n3        1 FRQ     -0.246000
     18 C29         0.3820    1.7170   -1.7980 c3        1 FRQ     -0.074000
     19 C30         0.6170    2.2260   -3.4540 c3        1 FRQ     -0.156000
     20 C31         0.3340    1.8300   -3.8490 c2        1 FRQ     -0.071000
     21 C32        -1.7760    1.8450   -3.4360 c1        1 FRQ     -0.187000
     22 C33        -2.0900    1.7310   -1.7810 c2        1 FRQ     -0.046000
     23 C40         0.8260    1.7030   -5.2790 c2        1 FRQ     -0.040000
     24 C42         1.5840    0.6040   -5.6550 c2        1 FRQ     -0.119000
     25 C43         1.9680    0.4470   -6.9780 c1        1 FRQ     -0.130000
     26 C44         1.5950    1.3890   -7.9250 c1        1 FRQ     -0.129500
     27 C45         0.8380    2.4870   -7.5490 c1        1 FRQ     -0.129500
     28 C46         0.4530    2.6450   -6.2260 c1        1 FRQ     -0.121000
     29 F53         3.4570   -2.8140    6.4930 f         1 FRQ     -0.069000
     30 H1          2.4000   -4.1980    2.5770 ha        1 FRQ      0.142250
     31 H2          0.3260   -3.0740    2.5150 ha        1 FRQ      0.150000
     32 H6          3.7940   -4.0010    4.4720 ha        1 FRQ      0.142250
     33 H12        -0.5850   -0.2120    7.2620 hn        1 FRQ      0.271000
     34 H161       -2.3480   -2.2180    3.4520 h1        1 FRQ      0.115000
     35 H162       -1.0650   -2.1260    2.5020 h1        1 FRQ      0.115000
     36 H171       -1.3600    0.3590    3.1170 hc        1 FRQ      0.093500
     37 H172       -2.8840   -0.1170    3.1220 hc        1 FRQ      0.093500
     38 H201       -1.3740   -0.9020    0.9030 hc        1 FRQ      0.090000
     39 H202       -2.9100   -0.4650    0.9400 hc        1 FRQ      0.090000
     40 H231       -2.3260    1.7730    1.0560 h1        1 FRQ      0.073500
     41 H232       -0.7810    1.4000    1.2200 h1        1 FRQ      0.073500
     42 H291        0.9940    0.9770   -1.6110 h1        1 FRQ      0.092500
     43 H292        0.6070    2.4640   -1.2090 h1        1 FRQ      0.092500
     44 H301        0.4630    3.1930   -3.5490 hc        1 FRQ      0.094500
     45 H302        1.5730    2.1810   -3.6870 hc        1 FRQ      0.094500
     46 H32        -2.3830    2.3450   -4.0150 ha        1 FRQ      0.134000
     47 H331       -3.0000    1.4020   -1.6200 h4        1 FRQ      0.100500
     48 H332       -2.1120    2.6040   -1.3340 h4        1 FRQ      0.100500
     49 H42         1.8460   -0.0590   -4.9890 ha        1 FRQ      0.133000
     50 H43         2.5010   -0.3260   -7.2430 ha        1 FRQ      0.132000
     51 H44         1.8650    1.2780   -8.8570 ha        1 FRQ      0.142250
     52 H45         0.5750    3.1510   -8.2150 ha        1 FRQ      0.142250
     53 H46        -0.0790    3.4180   -5.9610 ha        1 FRQ      0.134000
@<TRIPOS>BOND
     1    1    6 1   
     2    1   30 1   
     3    2    3 1   
     4    2   31 1   
     5    3    7 1   
     6    4    5 1   
     7    4   10 1   
     8    5   29 1   
     9    6   32 1   
    10    7    8 1   
    11    7   13 1   
    12    8   12 1   
    13    9   10 1   
    14    9   33 1   
    15   10   11 1   
    16   13   14 1   
    17   13   34 1   
    18   13   35 1   
    19   14   15 1   
    20   14   36 1   
    21   14   37 1   
    22   15   16 1   
    23   15   38 1   
    24   15   39 1   
    25   16   17 1   
    26   16   40 1   
    27   16   41 1   
    28   17   18 1   
    29   17   22 1   
    30   18   19 1   
    31   18   42 1   
    32   18   43 1   
    33   19   20 1   
    34   19   44 1   
    35   19   45 1   
    36   20   21 1   
    37   20   23 1   
    38   21   46 1   
    39   22   47 1   
    40   22   48 1   
    41   23   24 1   
    42   23   28 1   
    43   24   25 1   
    44   24   49 1   
    45   25   50 1   
    46   26   27 1   
    47   26   51 1   
    48   27   52 1   
    49   28   53 1   
@<TRIPOS>SUBSTRUCTURE
     1 FRQ         1 TEMP              0 ****  ****    0 ROOT
