@<TRIPOS>MOLECULE
FRQ
   53    56     1     0     0
SMALL
bcc


@<TRIPOS>ATOM
      1 C1          2.8650    0.1190   -4.1310 ca        1 FRQ     -0.039000
      2 C2          1.6980   -0.2510   -3.4780 ca        1 FRQ     -0.213000
      3 C3          0.4650   -0.2790   -4.1740 ca        1 FRQ      0.150600
      4 C4          0.4470    0.0980   -5.5450 ca        1 FRQ     -0.251600
      5 C5          1.6510    0.4710   -6.1850 ca        1 FRQ      0.230900
      6 C6          2.8630    0.4790   -5.4750 ca        1 FRQ     -0.221000
      7 N10        -0.7200   -0.6800   -3.5480 n         1 FRQ     -0.363000
      8 C11        -1.9570   -0.6380   -4.2410 c         1 FRQ      0.813500
      9 N12        -1.9700   -0.2610   -5.5900 n         1 FRQ     -0.584500
     10 C13        -0.8200    0.1040   -6.2990 c         1 FRQ      0.726100
     11 O14        -0.9300    0.4110   -7.4970 o         1 FRQ     -0.589500
     12 O15        -3.0260   -0.9470   -3.6720 o         1 FRQ     -0.635500
     13 C16        -0.7440   -1.0590   -2.1480 c3        1 FRQ      0.093000
     14 C17        -0.7080    0.1140   -1.1670 c3        1 FRQ     -0.106400
     15 C20        -0.6580   -0.4150    0.2510 c3        1 FRQ     -0.081400
     16 C23        -0.6300    0.7540    1.2360 c3        1 FRQ      0.174800
     17 N26        -0.7200    0.3440    2.6300 n3        1 FRQ     -0.732600
     18 C29        -0.8970    1.4850    3.5170 c3        1 FRQ      0.173800
     19 C30        -1.0670    1.0840    4.9820 c3        1 FRQ     -0.041200
     20 C31        -0.0270    0.1060    5.4100 ce        1 FRQ     -0.057400
     21 C32         0.6140   -0.6420    4.4950 c2        1 FRQ     -0.167200
     22 C33         0.3650   -0.5430    3.0280 c3        1 FRQ      0.201000
     23 C40         0.2370   -0.0060    6.8420 ca        1 FRQ     -0.049800
     24 C42        -0.8020    0.1500    7.7720 ca        1 FRQ     -0.121000
     25 C43        -0.5490    0.0380    9.1370 ca        1 FRQ     -0.130000
     26 C44         0.7420   -0.2270    9.5930 ca        1 FRQ     -0.128000
     27 C45         1.7820   -0.3790    8.6770 ca        1 FRQ     -0.130000
     28 C46         1.5330   -0.2710    7.3100 ca        1 FRQ     -0.121000
     29 F53         1.6490    0.8260   -7.4860 f         1 FRQ     -0.103900
     30 H1          3.8150    0.1300   -3.5710 ha        1 FRQ      0.145000
     31 H2          1.7480   -0.5180   -2.4120 ha        1 FRQ      0.150000
     32 H6          3.7910    0.7710   -5.9870 ha        1 FRQ      0.160000
     33 H12        -2.8550   -0.2640   -6.0540 hn        1 FRQ      0.357500
     34 H161        0.1320   -1.7420   -1.9550 h1        1 FRQ      0.075700
     35 H162       -1.6880   -1.6520   -1.9640 h1        1 FRQ      0.075700
     36 H171       -1.6230    0.7480   -1.3050 hc        1 FRQ      0.055200
     37 H172        0.1840    0.7640   -1.3640 hc        1 FRQ      0.055200
     38 H201        0.2550   -1.0520    0.3860 hc        1 FRQ      0.051700
     39 H202       -1.5530   -1.0620    0.4490 hc        1 FRQ      0.051700
     40 H231       -1.5180    1.4170    1.0240 h1        1 FRQ      0.032200
     41 H232        0.3020    1.3630    1.0380 h1        1 FRQ      0.032200
     42 H291       -0.0320    2.2080    3.4410 h1        1 FRQ      0.032700
     43 H292       -1.8260    2.0320    3.1870 h1        1 FRQ      0.032700
     44 H301       -1.0140    2.0110    5.6110 hc        1 FRQ      0.059700
     45 H302       -2.0810    0.6240    5.1330 hc        1 FRQ      0.059700
     46 H32         1.3710   -1.3890    4.7790 ha        1 FRQ      0.131000
     47 H331        0.0920   -1.5700    2.6440 h1        1 FRQ      0.040700
     48 H332        1.3440   -0.2510    2.5370 h1        1 FRQ      0.040700
     49 H42        -1.8230    0.3570    7.4190 ha        1 FRQ      0.133000
     50 H43        -1.3720    0.1570    9.8570 ha        1 FRQ      0.131500
     51 H44         0.9400   -0.3140   10.6710 ha        1 FRQ      0.132000
     52 H45         2.8030   -0.5850    9.0320 ha        1 FRQ      0.131500
     53 H46         2.3590   -0.3860    6.5920 ha        1 FRQ      0.133000
@<TRIPOS>BOND
     1    1    2 ar  
     2    1    6 ar  
     3    1   30 1   
     4    2    3 ar  
     5    2   31 1   
     6    3    4 ar  
     7    3    7 1   
     8    4    5 ar  
     9    4   10 1   
    10    5    6 ar  
    11    5   29 1   
    12    6   32 1   
    13    7    8 1   
    14    7   13 1   
    15    8    9 1   
    16    8   12 2   
    17    9   10 1   
    18    9   33 1   
    19   10   11 2   
    20   13   14 1   
    21   13   34 1   
    22   13   35 1   
    23   14   15 1   
    24   14   36 1   
    25   14   37 1   
    26   15   16 1   
    27   15   38 1   
    28   15   39 1   
    29   16   17 1   
    30   16   40 1   
    31   16   41 1   
    32   17   18 1   
    33   17   22 1   
    34   18   19 1   
    35   18   42 1   
    36   18   43 1   
    37   19   20 1   
    38   19   44 1   
    39   19   45 1   
    40   20   21 2   
    41   20   23 1   
    42   21   22 1   
    43   21   46 1   
    44   22   47 1   
    45   22   48 1   
    46   23   24 ar  
    47   23   28 ar  
    48   24   25 ar  
    49   24   49 1   
    50   25   26 ar  
    51   25   50 1   
    52   26   27 ar  
    53   26   51 1   
    54   27   28 ar  
    55   27   52 1   
    56   28   53 1   
@<TRIPOS>SUBSTRUCTURE
     1 FRQ         1 TEMP              0 ****  ****    0 ROOT
