@<TRIPOS>MOLECULE
FRR
   48    49     1     0     0
SMALL
bcc


@<TRIPOS>ATOM
      1 C11        -1.7350    0.1200   -1.5900 ca        1 FRR      0.209100
      2 C2         -2.1610    0.7180   -2.7870 ca        1 FRR     -0.180600
      3 C3         -1.3680    1.7260   -3.3750 ca        1 FRR      0.059200
      4 C14        -0.1720    2.1110   -2.7720 ca        1 FRR     -0.193000
      5 C15         0.2370    1.4980   -1.5720 ca        1 FRR      0.189100
      6 C16        -0.5360    0.5040   -0.9680 ca        1 FRR     -0.304000
      7 C23        -1.8120    2.3620   -4.6090 ce        1 FRR     -0.147200
      8 C17        -0.9920    2.6860   -5.6170 c2        1 FRR     -0.130200
      9 O15        -3.3810   -0.9850   -3.8930 os        1 FRR     -0.424900
     10 C26        -3.4200    0.3020   -3.4300 c         1 FRR      0.678700
     11 C31        -4.5520   -1.5110   -4.5500 c3        1 FRR      0.145100
     12 C18        -4.3340   -1.4650   -6.0620 c3        1 FRR     -0.087200
     13 C24        -1.2710    2.3290   -8.0580 c3        1 FRR      0.129100
     14 C34        -1.4640    3.2950   -6.8830 c3        1 FRR     -0.091200
     15 C39        -2.5400    2.2030   -8.9280 c3        1 FRR      0.008100
     16 C40        -3.7250    1.7260   -8.1080 c         1 FRR      0.546300
     17 C41        -3.6500    0.3480   -7.6180 ce        1 FRR     -0.280200
     18 C42        -4.4090   -0.0880   -6.6020 c2        1 FRR     -0.059200
     19 O38        -4.4450    0.9650   -3.6030 o         1 FRR     -0.544000
     20 O40        -4.6650    2.4990   -7.8810 o         1 FRR     -0.536100
     21 O42        -0.1850    2.7340   -8.8700 oh        1 FRR     -0.592800
     22 O44        -2.7960    3.4330   -9.5790 oh        1 FRR     -0.595800
     23 O46        -2.5490   -0.8420   -1.0460 oh        1 FRR     -0.484100
     24 O48         1.4340    1.9610   -1.0690 os        1 FRR     -0.318900
     25 C59         1.8800    1.3740    0.1490 c3        1 FRR      0.110700
     26 C62        -4.6910   -2.9430   -4.0670 c3        1 FRR     -0.101100
     27 H46        -2.1280   -1.1750   -0.2390 ho        1 FRR      0.426000
     28 H16        -0.2280    0.0250   -0.0300 ha        1 FRR      0.145000
     29 H591        2.8460    1.9030    0.3510 h1        1 FRR      0.048367
     30 H592        2.0500    0.2780    0.0190 h1        1 FRR      0.048367
     31 H593        1.1470    1.5650    0.9700 h1        1 FRR      0.048367
     32 H14         0.4560    2.8960   -3.2180 ha        1 FRR      0.161000
     33 H23        -2.9010    2.5490   -4.6690 ha        1 FRR      0.158000
     34 H17         0.0930    2.4910   -5.5660 ha        1 FRR      0.134000
     35 H341       -2.5460    3.5890   -6.8060 hc        1 FRR      0.064200
     36 H342       -0.8760    4.2330   -7.0790 hc        1 FRR      0.064200
     37 H24        -0.9780    1.3050   -7.6900 h1        1 FRR      0.085700
     38 H42        -0.4720    3.5170   -9.3630 ho        1 FRR      0.416000
     39 H39        -2.3340    1.4760   -9.7660 h1        1 FRR      0.101700
     40 H44        -3.3640    3.9650   -9.0010 ho        1 FRR      0.423000
     41 H41        -2.9130   -0.3000   -8.1170 ha        1 FRR      0.139000
     42 H1         -5.1290    0.5900   -6.1030 ha        1 FRR      0.160000
     43 H181       -5.1370   -2.0840   -6.5490 hc        1 FRR      0.070700
     44 H182       -3.3450   -1.9380   -6.3040 hc        1 FRR      0.070700
     45 H31        -5.4600   -0.9080   -4.2660 h1        1 FRR      0.082700
     46 H621       -4.7880   -2.9610   -2.9550 hc        1 FRR      0.049367
     47 H622       -5.6000   -3.4010   -4.5240 hc        1 FRR      0.049367
     48 H623       -3.7930   -3.5410   -4.3530 hc        1 FRR      0.049367
@<TRIPOS>BOND
     1    1    2 ar  
     2    1    6 ar  
     3    1   23 1   
     4    2    3 ar  
     5    2   10 1   
     6    3    4 ar  
     7    3    7 1   
     8    4    5 ar  
     9    4   32 1   
    10    5    6 ar  
    11    5   24 1   
    12    6   28 1   
    13    7    8 2   
    14    7   33 1   
    15    8   14 1   
    16    8   34 1   
    17    9   10 1   
    18    9   11 1   
    19   10   19 2   
    20   11   12 1   
    21   11   26 1   
    22   11   45 1   
    23   12   18 1   
    24   12   43 1   
    25   12   44 1   
    26   13   14 1   
    27   13   15 1   
    28   13   21 1   
    29   13   37 1   
    30   14   35 1   
    31   14   36 1   
    32   15   16 1   
    33   15   22 1   
    34   15   39 1   
    35   16   17 1   
    36   16   20 2   
    37   17   18 2   
    38   17   41 1   
    39   18   42 1   
    40   21   38 1   
    41   22   40 1   
    42   23   27 1   
    43   24   25 1   
    44   25   29 1   
    45   25   30 1   
    46   25   31 1   
    47   26   46 1   
    48   26   47 1   
    49   26   48 1   
@<TRIPOS>SUBSTRUCTURE
     1 FRR         1 TEMP              0 ****  ****    0 ROOT
