@<TRIPOS>MOLECULE
FRR
   48    49     1     0     0
SMALL
bcc


@<TRIPOS>ATOM
      1 C11        -0.0230    0.2640   -0.0240 ca        1 FRR      0.208100
      2 C2          1.3730    0.1550    0.0260 ca        1 FRR     -0.178600
      3 C3          2.0180    0.0730    1.2790 ca        1 FRR      0.050200
      4 C14         1.2700    0.0900    2.4530 ca        1 FRR     -0.187000
      5 C15        -0.1330    0.2030    2.3810 ca        1 FRR      0.185100
      6 C16        -0.7910    0.2940    1.1530 ca        1 FRR     -0.300000
      7 C23         3.4750   -0.0070    1.3100 ce        1 FRR     -0.148200
      8 C17         4.1720   -0.8700    2.0580 c2        1 FRR     -0.130200
      9 O15         2.2800   -1.1630   -1.7190 os        1 FRR     -0.435900
     10 C26         2.2000    0.1020   -1.1940 c         1 FRR      0.677700
     11 C31         3.3960   -1.4610   -2.5850 c3        1 FRR      0.150100
     12 C18         4.5050   -1.9950   -1.6770 c3        1 FRR     -0.091200
     13 C24         6.1270   -2.2660    1.4150 c3        1 FRR      0.123100
     14 C34         5.6530   -0.9410    2.0210 c3        1 FRR     -0.098200
     15 C39         7.4400   -2.1000    0.6200 c3        1 FRR      0.006100
     16 C40         7.2610   -1.2110   -0.6030 c         1 FRR      0.550300
     17 C41         6.9910   -1.8870   -1.8830 ce        1 FRR     -0.252200
     18 C42         5.7910   -2.2020   -2.3760 c2        1 FRR     -0.102200
     19 O38         2.8140    1.0150   -1.7450 o         1 FRR     -0.523000
     20 O40         7.4260    0.0090   -0.5040 o         1 FRR     -0.515100
     21 O42         6.3170   -3.2440    2.4200 oh        1 FRR     -0.589800
     22 O44         8.4570   -1.6020    1.4680 oh        1 FRR     -0.591800
     23 O46        -0.6020    0.3410   -1.2660 oh        1 FRR     -0.483100
     24 O48        -0.7690    0.2120    3.6030 os        1 FRR     -0.319900
     25 C59        -2.1880    0.3340    3.5790 c3        1 FRR      0.111700
     26 C62         2.8880   -2.4920   -3.5710 c3        1 FRR     -0.098100
     27 H46        -1.5610    0.4190   -1.1490 ho        1 FRR      0.426000
     28 H16        -1.8830    0.3870    1.0900 ha        1 FRR      0.145000
     29 H591       -2.6480   -0.5320    3.0440 h1        1 FRR      0.048367
     30 H592       -2.4930    1.2970    3.1030 h1        1 FRR      0.048367
     31 H593       -2.4660    0.3220    4.6630 h1        1 FRR      0.048367
     32 H14         1.7600    0.0240    3.4350 ha        1 FRR      0.161000
     33 H23         3.9840    0.7050    0.6310 ha        1 FRR      0.152000
     34 H17         3.6780   -1.5920    2.7300 ha        1 FRR      0.139000
     35 H341        6.0730   -0.0850    1.4250 hc        1 FRR      0.067200
     36 H342        6.0540   -0.8520    3.0670 hc        1 FRR      0.067200
     37 H24         5.3370   -2.7070    0.7440 h1        1 FRR      0.088700
     38 H42         7.0930   -2.9800    2.9340 ho        1 FRR      0.414000
     39 H39         7.8090   -3.1200    0.3100 h1        1 FRR      0.106700
     40 H44         8.3060   -0.6520    1.5810 ho        1 FRR      0.420000
     41 H41         7.9130   -2.1000   -2.4540 ha        1 FRR      0.155000
     42 H1          5.7180   -2.6860   -3.3670 ha        1 FRR      0.133000
     43 H181        4.1690   -2.9770   -1.2400 hc        1 FRR      0.065700
     44 H182        4.6270   -1.2730   -0.8210 hc        1 FRR      0.065700
     45 H31         3.7350   -0.5300   -3.1170 h1        1 FRR      0.085700
     46 H621        2.0390   -2.0690   -4.1600 hc        1 FRR      0.049033
     47 H622        2.5280   -3.4030   -3.0370 hc        1 FRR      0.049033
     48 H623        3.7110   -2.7770   -4.2690 hc        1 FRR      0.049033
@<TRIPOS>BOND
     1    1    2 ar  
     2    1    6 ar  
     3    1   23 1   
     4    2    3 ar  
     5    2   10 1   
     6    3    4 ar  
     7    3    7 1   
     8    4    5 ar  
     9    4   32 1   
    10    5    6 ar  
    11    5   24 1   
    12    6   28 1   
    13    7    8 2   
    14    7   33 1   
    15    8   14 1   
    16    8   34 1   
    17    9   10 1   
    18    9   11 1   
    19   10   19 2   
    20   11   12 1   
    21   11   26 1   
    22   11   45 1   
    23   12   18 1   
    24   12   43 1   
    25   12   44 1   
    26   13   14 1   
    27   13   15 1   
    28   13   21 1   
    29   13   37 1   
    30   14   35 1   
    31   14   36 1   
    32   15   16 1   
    33   15   22 1   
    34   15   39 1   
    35   16   17 1   
    36   16   20 2   
    37   17   18 2   
    38   17   41 1   
    39   18   42 1   
    40   21   38 1   
    41   22   40 1   
    42   23   27 1   
    43   24   25 1   
    44   25   29 1   
    45   25   30 1   
    46   25   31 1   
    47   26   46 1   
    48   26   47 1   
    49   26   48 1   
@<TRIPOS>SUBSTRUCTURE
     1 FRR         1 TEMP              0 ****  ****    0 ROOT
