@<TRIPOS>MOLECULE
FRR
   48    45     1     0     0
SMALL
bcc


@<TRIPOS>ATOM
      1 C11        -3.1990    0.7590    0.0730 c1        1 FRR      0.149000
      2 C2         -1.8320    0.8410    0.0030 c2        1 FRR     -0.200000
      3 C3         -1.0400    1.1370    1.2260 c1        1 FRR      0.078000
      4 C14        -1.6600    1.3200    2.3820 c1        1 FRR     -0.200000
      5 C15        -3.1030    1.2330    2.4530 c1        1 FRR      0.140000
      6 C16        -3.8470    0.9520    1.2920 c1        1 FRR     -0.300000
      7 C23         0.4540    0.9850    1.2020 c2        1 FRR     -0.190000
      8 C17         1.3180    1.7560    0.0960 c1        1 FRR     -0.104000
      9 O15        -1.3550   -0.9200   -1.8620 os        1 FRR     -0.246000
     10 C26        -1.1110    0.4190   -1.2880 c2        1 FRR      0.366000
     11 C31        -0.9610   -1.9420   -0.9140 c3        1 FRR      0.047000
     12 C18         0.4370   -1.6560   -0.4150 c3        1 FRR     -0.176000
     13 C24         3.4400    1.0410   -1.2050 c3        1 FRR      0.052000
     14 C34         2.9570    1.6500    0.1190 c3        1 FRR     -0.140000
     15 C39         3.7160   -0.4070   -1.0110 c3        1 FRR     -0.049000
     16 C40         2.9940   -1.2080   -2.0810 c2        1 FRR      0.248000
     17 C41         2.6400   -2.6430   -1.5240 c2        1 FRR     -0.240000
     18 C42         1.3610   -2.8550   -0.7240 c2        1 FRR     -0.088000
     19 O38        -0.3220    1.2320   -1.8740 o         1 FRR     -0.287000
     20 O40         3.2890   -1.0730   -3.2170 o         1 FRR     -0.267000
     21 O42         2.4480    1.2040   -2.1830 oh        1 FRR     -0.320000
     22 O44         5.0860   -0.6310   -1.1140 oh        1 FRR     -0.311000
     23 O46        -3.9690    0.5620   -1.1240 o         1 FRR     -0.242000
     24 O48        -3.7520    1.2650    3.7140 os        1 FRR     -0.203000
     25 C59        -4.3170    2.5720    4.0620 c3        1 FRR     -0.078000
     26 C62        -0.9930   -3.2780   -1.5860 c3        1 FRR     -0.217000
     27 H46        -4.4490    1.2440   -1.2690 ho        1 FRR      0.227000
     28 H16        -4.8970    0.8880    1.3420 ha        1 FRR      0.146000
     29 H591       -5.0130    2.4570    4.6820 h1        1 FRR      0.088000
     30 H592       -3.5670    3.1770    4.4850 h1        1 FRR      0.088000
     31 H593       -4.6870    3.0260    3.2120 h1        1 FRR      0.088000
     32 H14        -1.1430    1.5160    3.1850 ha        1 FRR      0.158000
     33 H23         0.9220    0.4130    1.9090 ha        1 FRR      0.127000
     34 H17         0.8810    2.3670   -0.5260 DU        1 FRR      0.175000
     35 H341        3.2740    1.0120    0.9540 hc        1 FRR      0.102500
     36 H342        3.3510    2.5700    0.2280 hc        1 FRR      0.102500
     37 H24         4.2260    1.4740   -1.4810 h1        1 FRR      0.101000
     38 H42         2.8300    1.5240   -2.9570 ho        1 FRR      0.230000
     39 H39         3.3830   -0.7020   -0.0670 h1        1 FRR      0.095000
     40 H44         5.3360   -1.1560   -0.4860 ho        1 FRR      0.204000
     41 H41         3.2140   -3.3880   -1.7170 ha        1 FRR      0.147000
     42 H1          1.1490   -3.7140   -0.3910 ha        1 FRR      0.124000
     43 H181        0.4120   -1.4920    0.6100 hc        1 FRR      0.104500
     44 H182        0.7610   -0.9080   -0.8340 hc        1 FRR      0.104500
     45 H31        -1.5690   -1.9440   -0.1730 h1        1 FRR      0.095000
     46 H621       -0.8370   -3.9440   -0.9590 hc        1 FRR      0.090667
     47 H622       -0.3460   -3.3100   -2.2290 hc        1 FRR      0.090667
     48 H623       -1.9130   -3.4220   -2.0160 hc        1 FRR      0.090667
@<TRIPOS>BOND
     1    1    2 1   
     2    1    6 1   
     3    2    3 1   
     4    2   10 1   
     5    3    7 1   
     6    4    5 1   
     7    4   32 1   
     8    5   24 1   
     9    6   28 1   
    10    7    8 1   
    11    7   33 1   
    12    8   14 1   
    13    9   10 1   
    14    9   11 1   
    15   10   19 1   
    16   11   12 1   
    17   11   26 1   
    18   11   45 1   
    19   12   18 1   
    20   12   43 1   
    21   12   44 1   
    22   13   14 1   
    23   13   15 1   
    24   13   21 1   
    25   13   37 1   
    26   14   35 1   
    27   14   36 1   
    28   15   16 1   
    29   15   22 1   
    30   15   39 1   
    31   16   17 1   
    32   16   20 1   
    33   17   18 1   
    34   17   41 1   
    35   18   42 1   
    36   21   38 1   
    37   22   40 1   
    38   23   27 1   
    39   24   25 1   
    40   25   29 1   
    41   25   30 1   
    42   25   31 1   
    43   26   46 1   
    44   26   47 1   
    45   26   48 1   
@<TRIPOS>SUBSTRUCTURE
     1 FRR         1 TEMP              0 ****  ****    0 ROOT
