@<TRIPOS>MOLECULE
FRR
   48    49     1     0     0
SMALL
bcc


@<TRIPOS>ATOM
      1 C11        -0.0280    0.2600   -0.0020 ca        1 FRR      0.208100
      2 C2          1.3690    0.1550    0.0410 ca        1 FRR     -0.178600
      3 C3          2.0210    0.0670    1.2900 ca        1 FRR      0.050200
      4 C14         1.2790    0.0750    2.4680 ca        1 FRR     -0.187000
      5 C15        -0.1250    0.1840    2.4040 ca        1 FRR      0.185100
      6 C16        -0.7900    0.2810    1.1800 ca        1 FRR     -0.300000
      7 C23         3.4780   -0.0080    1.3130 ce        1 FRR     -0.148200
      8 C17         4.1810   -0.8740    2.0530 c2        1 FRR     -0.130200
      9 O15         2.2700   -1.1490   -1.7160 os        1 FRR     -0.435900
     10 C26         2.1890    0.1130   -1.1840 c         1 FRR      0.677700
     11 C31         3.3830   -1.4380   -2.5900 c3        1 FRR      0.150100
     12 C18         4.4980   -1.9750   -1.6910 c3        1 FRR     -0.091200
     13 C24         6.1370   -2.2600    1.3910 c3        1 FRR      0.123100
     14 C34         5.6620   -0.9400    2.0070 c3        1 FRR     -0.098200
     15 C39         7.4450   -2.0850    0.5900 c3        1 FRR      0.006100
     16 C40         7.2570   -1.1900   -0.6270 c         1 FRR      0.550300
     17 C41         6.9820   -1.8580   -1.9090 ce        1 FRR     -0.252200
     18 C42         5.7810   -2.1740   -2.3980 c2        1 FRR     -0.102200
     19 O38         2.7980    1.0310   -1.7320 o         1 FRR     -0.523000
     20 O40         7.4190    0.0300   -0.5210 o         1 FRR     -0.515100
     21 O42         6.3350   -3.2440    2.3890 oh        1 FRR     -0.589800
     22 O44         8.4650   -1.5890    1.4360 oh        1 FRR     -0.591800
     23 O46        -0.6140    0.3440   -1.2400 oh        1 FRR     -0.483100
     24 O48        -0.7560    0.1840    3.6290 os        1 FRR     -0.319900
     25 C59        -2.1750    0.3010    3.6130 c3        1 FRR      0.111700
     26 C62         2.8730   -2.4660   -3.5800 c3        1 FRR     -0.098100
     27 H46        -1.5720    0.4180   -1.1180 ho        1 FRR      0.426000
     28 H16        -1.8820    0.3710    1.1230 ha        1 FRR      0.145000
     29 H591       -2.4850    1.2670    3.1450 h1        1 FRR      0.048367
     30 H592       -2.6350   -0.5630    3.0750 h1        1 FRR      0.048367
     31 H593       -2.4470    0.2820    4.6990 h1        1 FRR      0.048367
     32 H14         1.7730    0.0040    3.4470 ha        1 FRR      0.161000
     33 H23         3.9810    0.7090    0.6360 ha        1 FRR      0.152000
     34 H17         3.6930   -1.6010    2.7220 ha        1 FRR      0.139000
     35 H341        6.0680   -0.8560    3.0510 hc        1 FRR      0.067200
     36 H342        6.0770   -0.0790    1.4150 hc        1 FRR      0.067200
     37 H24         5.3440   -2.6990    0.7210 h1        1 FRR      0.088700
     38 H42         7.1130   -2.9800    2.9010 ho        1 FRR      0.414000
     39 H39         7.8150   -3.1020    0.2720 h1        1 FRR      0.106700
     40 H44         8.3120   -0.6400    1.5550 ho        1 FRR      0.420000
     41 H41         7.9020   -2.0650   -2.4860 ha        1 FRR      0.155000
     42 H1          5.7040   -2.6510   -3.3910 ha        1 FRR      0.133000
     43 H181        4.1670   -2.9610   -1.2590 hc        1 FRR      0.065700
     44 H182        4.6220   -1.2580   -0.8310 hc        1 FRR      0.065700
     45 H31         3.7160   -0.5030   -3.1180 h1        1 FRR      0.085700
     46 H621        2.0190   -2.0410   -4.1620 hc        1 FRR      0.049033
     47 H622        3.6920   -2.7440   -4.2840 hc        1 FRR      0.049033
     48 H623        2.5170   -3.3810   -3.0500 hc        1 FRR      0.049033
@<TRIPOS>BOND
     1    1    2 ar  
     2    1    6 ar  
     3    1   23 1   
     4    2    3 ar  
     5    2   10 1   
     6    3    4 ar  
     7    3    7 1   
     8    4    5 ar  
     9    4   32 1   
    10    5    6 ar  
    11    5   24 1   
    12    6   28 1   
    13    7    8 2   
    14    7   33 1   
    15    8   14 1   
    16    8   34 1   
    17    9   10 1   
    18    9   11 1   
    19   10   19 2   
    20   11   12 1   
    21   11   26 1   
    22   11   45 1   
    23   12   18 1   
    24   12   43 1   
    25   12   44 1   
    26   13   14 1   
    27   13   15 1   
    28   13   21 1   
    29   13   37 1   
    30   14   35 1   
    31   14   36 1   
    32   15   16 1   
    33   15   22 1   
    34   15   39 1   
    35   16   17 1   
    36   16   20 2   
    37   17   18 2   
    38   17   41 1   
    39   18   42 1   
    40   21   38 1   
    41   22   40 1   
    42   23   27 1   
    43   24   25 1   
    44   25   29 1   
    45   25   30 1   
    46   25   31 1   
    47   26   46 1   
    48   26   47 1   
    49   26   48 1   
@<TRIPOS>SUBSTRUCTURE
     1 FRR         1 TEMP              0 ****  ****    0 ROOT
