@<TRIPOS>MOLECULE
FRS
   51    54     1     0     0
SMALL
bcc


@<TRIPOS>ATOM
      1 N33        -9.4250   -3.2810   -1.5560 na        1 FRS     -0.161400
      2 N29        -6.6460   -1.1960   -1.0080 nh        1 FRS     -0.783600
      3 C30        -7.7650   -2.0550   -0.9530 cc        1 FRS      0.720900
      4 C28        -6.5760   -0.0800   -0.1440 ca        1 FRS      0.687200
      5 C27        -5.4100    0.7350   -0.2200 ca        1 FRS     -0.455600
      6 C23        -5.2930    1.8160    0.6990 ca        1 FRS      0.684200
      7 C20        -1.7700    3.1040    0.4660 c3        1 FRS     -0.014200
      8 C15         1.6580    1.7420   -0.9330 cc        1 FRS      0.666100
      9 C12         3.4950    0.5740   -0.0400 c         1 FRS      0.817500
     10 C10         5.5370   -0.6330    0.5940 cc        1 FRS      0.045300
     11 C5          6.7930   -1.1950    0.3430 cd        1 FRS      0.040000
     12 C6          7.6690   -1.2980   -0.8670 c3        1 FRS      0.643600
     13 C3          5.2580   -0.8850    2.0030 cc        1 FRS     -0.275300
     14 C2          6.3470   -1.5730    2.5020 cd        1 FRS      0.305000
     15 C1          6.6730   -2.1070    3.8270 c3        1 FRS     -0.142400
     16 O13         2.9930    0.5120    1.1120 o         1 FRS     -0.641100
     17 N11         4.7500    0.0200   -0.3310 n         1 FRS     -0.424100
     18 F9          8.8980   -0.7000   -0.7390 f         1 FRS     -0.233300
     19 F8          7.9580   -2.5810   -1.2590 f         1 FRS     -0.233300
     20 F7          7.1240   -0.7160   -1.9900 f         1 FRS     -0.233300
     21 O4          7.3060   -1.7780    1.5070 os        1 FRS     -0.328800
     22 N14         2.8460    1.2020   -1.1360 nf        1 FRS     -0.752100
     23 N17         0.9560    2.3770   -1.9680 na        1 FRS     -0.681000
     24 C18        -0.2720    2.8860   -1.5550 cc        1 FRS      0.031000
     25 C19        -0.5540    2.6620   -0.2330 cd        1 FRS     -0.175600
     26 S16         0.7040    1.8180    0.5400 ss        1 FRS      0.046200
     27 C21        -2.9710    2.2390    0.0590 c3        1 FRS      0.197800
     28 N22        -4.2150    2.7060    0.6220 nh        1 FRS     -0.845900
     29 N26        -7.5710    0.1800    0.7650 nb        1 FRS     -0.742000
     30 C25        -7.3410    1.2250    1.5950 ca        1 FRS      0.686900
     31 N24        -6.2760    2.0550    1.6390 nb        1 FRS     -0.773000
     32 N35        -8.5600   -2.3920   -2.0430 nd        1 FRS     -0.557800
     33 C32        -9.2060   -3.4930   -0.1850 cd        1 FRS      0.408400
     34 N31        -8.1660   -2.7450    0.2330 nc        1 FRS     -0.640000
     35 HN29       -6.3250   -1.0040   -1.9370 hn        1 FRS      0.435800
     36 H27        -4.6280    0.5310   -0.9610 ha        1 FRS      0.152000
     37 H20        -1.6150    3.0390    1.5780 hc        1 FRS      0.064700
     38 H20A       -1.9750    4.1820    0.2190 hc        1 FRS      0.064700
     39 H3          4.3540   -0.5760    2.5260 ha        1 FRS      0.202000
     40 H1          6.8220   -3.2150    3.7720 hc        1 FRS      0.066033
     41 H1A         7.6170   -1.6430    4.2100 hc        1 FRS      0.066033
     42 H1B         5.8400   -1.8830    4.5380 hc        1 FRS      0.066033
     43 HN11        5.1090    0.0950   -1.2610 hn        1 FRS      0.351500
     44 HN17        1.3060    2.4640   -2.8920 hn        1 FRS      0.477800
     45 H18        -0.8960    3.4080   -2.2920 h4        1 FRS      0.186000
     46 H21        -3.0710    2.2660   -1.0650 h1        1 FRS      0.048700
     47 H21A       -2.7640    1.1690    0.3550 h1        1 FRS      0.048700
     48 HN22       -4.1240    3.3410    1.3890 hn        1 FRS      0.425800
     49 H25        -8.1390    1.4250    2.3430 h5        1 FRS      0.054100
     50 H32        -9.8050   -4.1750    0.4270 h5        1 FRS      0.073100
     51 H17       -10.1140   -3.6820   -2.1450 hn        1 FRS      0.328700
@<TRIPOS>BOND
     1    1   32 1   
     2    1   33 1   
     3    1   51 1   
     4    2    3 1   
     5    2    4 1   
     6    2   35 1   
     7    3   32 2   
     8    3   34 1   
     9    4    5 ar  
    10    4   29 ar  
    11    5    6 ar  
    12    5   36 1   
    13    6   28 1   
    14    6   31 ar  
    15    7   25 1   
    16    7   27 1   
    17    7   37 1   
    18    7   38 1   
    19    8   22 2   
    20    8   23 1   
    21    8   26 1   
    22    9   16 2   
    23    9   17 1   
    24    9   22 1   
    25   10   11 2   
    26   10   13 1   
    27   10   17 1   
    28   11   12 1   
    29   11   21 1   
    30   12   18 1   
    31   12   19 1   
    32   12   20 1   
    33   13   14 2   
    34   13   39 1   
    35   14   15 1   
    36   14   21 1   
    37   15   40 1   
    38   15   41 1   
    39   15   42 1   
    40   17   43 1   
    41   23   24 1   
    42   23   44 1   
    43   24   25 2   
    44   24   45 1   
    45   25   26 1   
    46   27   28 1   
    47   27   46 1   
    48   27   47 1   
    49   28   48 1   
    50   29   30 ar  
    51   30   31 ar  
    52   30   49 1   
    53   33   34 2   
    54   33   50 1   
@<TRIPOS>SUBSTRUCTURE
     1 FRS         1 TEMP              0 ****  ****    0 ROOT
