@<TRIPOS>MOLECULE
FRS
   51    54     1     0     0
SMALL
bcc


@<TRIPOS>ATOM
      1 N33        -0.3940    0.7830    0.3200 na        1 FRS     -0.161400
      2 N29         2.8000    0.6870    1.7890 nu        1 FRS     -0.783600
      3 C30         1.4730    0.4960    1.3470 cc        1 FRS      0.720900
      4 C28         3.1010    0.5880    3.1660 ca        1 FRS      0.687200
      5 C27         4.4620    0.7580    3.5530 ca        1 FRS     -0.455600
      6 C23         4.7890    0.5810    4.9270 ca        1 FRS      0.684200
      7 C20         8.5370    0.4610    5.1760 c3        1 FRS     -0.014200
      8 C15        11.5250   -0.1430    2.6710 cc        1 FRS      0.666100
      9 C12        12.7820   -2.0040    1.9680 c         1 FRS      0.817500
     10 C10        14.2530   -3.7400    1.0450 cc        1 FRS      0.045300
     11 C5         15.2950   -4.2020    0.2350 cd        1 FRS      0.040000
     12 C6         16.2430   -3.5500   -0.7220 c3        1 FRS      0.643600
     13 C3         13.7320   -4.9120    1.7390 cc        1 FRS     -0.275300
     14 C2         14.4820   -5.9890    1.3090 cd        1 FRS      0.305000
     15 C1         14.4560   -7.4190    1.6260 c3        1 FRS     -0.142400
     16 O13        12.1430   -2.8070    2.6970 o         1 FRS     -0.641100
     17 N11        13.8310   -2.4310    1.1420 ns        1 FRS     -0.424100
     18 F9         17.5700   -3.6760   -0.3930 f         1 FRS     -0.233300
     19 F8         16.1700   -4.0160   -2.0110 f         1 FRS     -0.233300
     20 F7         16.0530   -2.1910   -0.8420 f         1 FRS     -0.233300
     21 O4         15.4500   -5.5850    0.3850 os        1 FRS     -0.328800
     22 N14        12.5030   -0.6130    1.9190 nf        1 FRS     -0.752100
     23 N17        11.1910    1.2190    2.6720 na        1 FRS     -0.681000
     24 C18        10.1390    1.5170    3.5330 cc        1 FRS      0.031000
     25 C19         9.6350    0.4300    4.1980 cd        1 FRS     -0.175600
     26 S16        10.4620   -0.9970    3.7790 ss        1 FRS      0.046200
     27 C21         7.1900    0.6570    4.4670 c3        1 FRS      0.197800
     28 N22         6.0900    0.8180    5.3880 nu        1 FRS     -0.845900
     29 N26         2.1280    0.2910    4.0880 nb        1 FRS     -0.742000
     30 C25         2.5630    0.1340    5.3610 ca        1 FRS      0.686900
     31 N24         3.8170    0.2460    5.8480 nb        1 FRS     -0.773000
     32 N35         0.7580    1.4030    0.5720 nd        1 FRS     -0.557800
     33 C32        -0.4270   -0.4790    0.9340 cd        1 FRS      0.408400
     34 N31         0.7310   -0.7010    1.5860 nc        1 FRS     -0.640000
     35 HN29        3.2790    1.4350    1.3270 hn        1 FRS      0.435800
     36 H27         5.2290    1.0110    2.8130 ha        1 FRS      0.152000
     37 H20         8.7090    1.2980    5.9070 hc        1 FRS      0.064700
     38 H20A        8.5210   -0.4980    5.7620 hc        1 FRS      0.064700
     39 H3         12.9080   -4.9020    2.4520 ha        1 FRS      0.202000
     40 H1         14.2750   -8.0190    0.6980 hc        1 FRS      0.066033
     41 H1A        15.4360   -7.7370    2.0640 hc        1 FRS      0.066033
     42 H1B        13.6400   -7.6260    2.3620 hc        1 FRS      0.066033
     43 HN11       14.3110   -1.7560    0.5810 hn        1 FRS      0.351500
     44 HN17       11.6660    1.8980    2.1270 hn        1 FRS      0.477800
     45 H18         9.8060    2.5600    3.6110 h4        1 FRS      0.186000
     46 H21         7.2470    1.5890    3.8340 h1        1 FRS      0.048700
     47 H21A        7.0160   -0.2150    3.7700 h1        1 FRS      0.048700
     48 HN22        6.2740    0.5280    6.3260 hn        1 FRS      0.425800
     49 H25         1.7780   -0.1220    6.1050 h5        1 FRS      0.054100
     50 H32        -1.2810   -1.1620    0.8730 h5        1 FRS      0.073100
     51 H17        -1.0930    1.2280   -0.2260 hn        1 FRS      0.328700
@<TRIPOS>BOND
     1    1   32 1   
     2    1   33 1   
     3    1   51 1   
     4    2    3 1   
     5    2    4 1   
     6    2   35 1   
     7    3   32 2   
     8    3   34 1   
     9    4    5 ar  
    10    4   29 ar  
    11    5    6 ar  
    12    5   36 1   
    13    6   28 1   
    14    6   31 ar  
    15    7   25 1   
    16    7   27 1   
    17    7   37 1   
    18    7   38 1   
    19    8   22 2   
    20    8   23 1   
    21    8   26 1   
    22    9   16 2   
    23    9   17 1   
    24    9   22 1   
    25   10   11 2   
    26   10   13 1   
    27   10   17 1   
    28   11   12 1   
    29   11   21 1   
    30   12   18 1   
    31   12   19 1   
    32   12   20 1   
    33   13   14 2   
    34   13   39 1   
    35   14   15 1   
    36   14   21 1   
    37   15   40 1   
    38   15   41 1   
    39   15   42 1   
    40   17   43 1   
    41   23   24 1   
    42   23   44 1   
    43   24   25 2   
    44   24   45 1   
    45   25   26 1   
    46   27   28 1   
    47   27   46 1   
    48   27   47 1   
    49   28   48 1   
    50   29   30 ar  
    51   30   31 ar  
    52   30   49 1   
    53   33   34 2   
    54   33   50 1   
@<TRIPOS>SUBSTRUCTURE
     1 FRS         1 TEMP              0 ****  ****    0 ROOT
