@<TRIPOS>MOLECULE
FRS
   54    57     1     0     0
SMALL
bcc


@<TRIPOS>ATOM
      1 N33        -1.2100    1.8120    3.8000 na        1 FRS     -0.093400
      2 N29         1.0800    0.4890    1.4440 n4        1 FRS     -0.685400
      3 C30         0.3690    1.1610    2.5280 cc        1 FRS      0.487900
      4 C28         2.3020   -0.1930    1.9460 ca        1 FRS      0.564200
      5 C27         3.4550    0.5740    2.2710 ca        1 FRS     -0.289600
      6 C23         4.5650   -0.1740    2.7470 ca        1 FRS      0.531200
      7 C20         8.2960    0.7420    3.0550 c3        1 FRS     -0.014200
      8 C15        11.7440   -1.1300    2.7530 cc        1 FRS      0.691100
      9 C12        13.3070   -2.4020    4.0320 c         1 FRS      0.705500
     10 C10        15.0590   -3.7030    2.8460 cc        1 FRS     -0.123700
     11 C5         15.2860   -3.2940    1.5320 cd        1 FRS      0.213000
     12 C6         15.3340   -1.9380    0.8580 c3        1 FRS      0.642600
     13 C3         15.1920   -5.1460    2.8730 cc        1 FRS     -0.268300
     14 C2         15.4970   -5.5270    1.5740 cd        1 FRS      0.367000
     15 C1         15.7790   -6.8080    0.9250 c3        1 FRS     -0.168400
     16 O13        12.7230   -2.6990    5.0800 o         1 FRS     -0.498100
     17 N11        14.7750   -2.8670    3.9790 n4        1 FRS     -0.480200
     18 F9         16.2990   -1.8200   -0.0980 f         1 FRS     -0.212967
     19 F8         14.1630   -1.5810    0.2360 f         1 FRS     -0.212967
     20 F7         15.5740   -0.9270    1.7590 f         1 FRS     -0.212967
     21 O4         15.5500   -4.3940    0.7440 os        1 FRS     -0.281800
     22 N14        12.9180   -1.7430    2.8900 nf        1 FRS     -0.761100
     23 N17        11.4410   -0.5250    1.5240 na        1 FRS     -0.631000
     24 C18        10.2260    0.1350    1.5350 cc        1 FRS      0.099000
     25 C19         9.5450    0.0380    2.7310 cd        1 FRS     -0.231600
     26 S16        10.4300   -0.8740    3.8620 ss        1 FRS      0.111200
     27 C21         7.0740   -0.1260    2.7260 c3        1 FRS      0.110800
     28 N22         5.7950    0.5440    3.1590 n4        1 FRS     -0.756700
     29 N26         2.2530   -1.5440    2.0710 nb        1 FRS     -0.611000
     30 C25         3.3820   -2.1470    2.5320 ca        1 FRS      0.728900
     31 N24         4.5420   -1.5280    2.8790 nb        1 FRS     -0.634000
     32 N35        -0.9890    0.9990    2.7900 nd        1 FRS     -0.377800
     33 C32        -0.0280    2.4810    4.1940 cd        1 FRS      0.484400
     34 N31         0.9950    2.0840    3.4080 nc        1 FRS     -0.676000
     35 HN29        0.4390   -0.2000    0.9950 hn        1 FRS      0.508800
     36 H27         3.4660    1.6740    2.1830 ha        1 FRS      0.213000
     37 H20         8.2480    1.7050    2.4720 hc        1 FRS      0.087700
     38 H20A        8.2970    1.0110    4.1490 hc        1 FRS      0.087700
     39 H3         15.0860   -5.7950    3.7420 ha        1 FRS      0.203000
     40 H1         15.0030   -7.5610    1.2140 hc        1 FRS      0.098700
     41 H1A        15.7890   -6.7010   -0.1900 hc        1 FRS      0.098700
     42 H1B        16.7850   -7.1830    1.2540 hc        1 FRS      0.098700
     43 HN11       14.9600   -3.3940    4.8480 hn        1 FRS      0.486300
     44 HN17       12.0700   -0.5340    0.7410 hn        1 FRS      0.521800
     45 H18         9.9180    0.6780    0.6270 h4        1 FRS      0.214000
     46 H21         7.1490   -1.1200    3.2570 hx        1 FRS      0.127700
     47 H21A        7.0100   -0.3110    1.6170 hx        1 FRS      0.127700
     48 HN22        5.7910    0.6130    4.1910 hn        1 FRS      0.476800
     49 H25         3.3480   -3.2640    2.6400 h5        1 FRS      0.144100
     50 H32         0.0130    3.2150    5.0190 h5        1 FRS      0.132100
     51 H17        -2.1380    1.9040    4.1860 hn        1 FRS      0.394700
     52 H292        1.3560    1.2010    0.7470 hn        1 FRS      0.508800
     53 H112       15.3840   -2.0340    3.9420 hn        1 FRS      0.486300
     54 H222        5.7620    1.4970    2.7700 hn        1 FRS      0.476800
@<TRIPOS>BOND
     1    1   32 1   
     2    1   33 1   
     3    1   51 1   
     4    2    3 1   
     5    2    4 1   
     6    2   35 1   
     7    2   52 1   
     8    3   32 2   
     9    3   34 1   
    10    4    5 ar  
    11    4   29 ar  
    12    5    6 ar  
    13    5   36 1   
    14    6   28 1   
    15    6   31 ar  
    16    7   25 1   
    17    7   27 1   
    18    7   37 1   
    19    7   38 1   
    20    8   22 2   
    21    8   23 1   
    22    8   26 1   
    23    9   16 2   
    24    9   17 1   
    25    9   22 1   
    26   10   11 2   
    27   10   13 1   
    28   10   17 1   
    29   11   12 1   
    30   11   21 1   
    31   12   18 1   
    32   12   19 1   
    33   12   20 1   
    34   13   14 2   
    35   13   39 1   
    36   14   15 1   
    37   14   21 1   
    38   15   40 1   
    39   15   41 1   
    40   15   42 1   
    41   17   43 1   
    42   17   53 1   
    43   23   24 1   
    44   23   44 1   
    45   24   25 2   
    46   24   45 1   
    47   25   26 1   
    48   27   28 1   
    49   27   46 1   
    50   27   47 1   
    51   28   48 1   
    52   28   54 1   
    53   29   30 ar  
    54   30   31 ar  
    55   30   49 1   
    56   33   34 2   
    57   33   50 1   
@<TRIPOS>SUBSTRUCTURE
     1 FRS         1 TEMP              0 ****  ****    0 ROOT
