@<TRIPOS>MOLECULE
FRS
   51    44     1     0     0
SMALL
bcc


@<TRIPOS>ATOM
      1 N33        -4.1260   10.2860   -0.5830 n2        1 FRS     -0.193000
      2 N29        -2.9880    7.1290   -0.7480 n3        1 FRS     -0.192000
      3 C30        -4.0560    8.0770   -0.5730 c2        1 FRS      0.001000
      4 C28        -3.2470    5.7500   -0.6270 c2        1 FRS      0.166000
      5 C27        -2.4260    4.9660    0.1300 c2        1 FRS     -0.329000
      6 C23        -2.6510    3.6220    0.2140 c1        1 FRS      0.161000
      7 C20        -0.2910    0.7350    1.1960 c3        1 FRS     -0.099000
      8 C15         2.6490   -1.4960   -0.3360 c1        1 FRS      0.003000
      9 C12         2.9350   -3.9060   -0.1090 c1        1 FRS      0.372000
     10 C10         3.2600   -6.3700   -0.0210 c1        1 FRS     -0.046000
     11 C5          4.0190   -7.0250    0.8850 c1        1 FRS     -0.117000
     12 C6          5.3260   -6.5190    1.4810 c2        1 FRS      0.524000
     13 C3          2.1400   -7.1590   -0.2980 c1        1 FRS     -0.046000
     14 C2          2.2340   -8.3080    0.4590 c1        1 FRS     -0.117000
     15 C1          1.2100   -9.4820    0.4730 c2        1 FRS     -0.166000
     16 O13         2.1140   -3.9650    0.8310 o         1 FRS     -0.401000
     17 N11         3.5670   -5.1210   -0.6040 n1        1 FRS     -0.279000
     18 F9          5.6900   -7.2930    2.4800 f         1 FRS     -0.162000
     19 F8          6.2350   -6.5300    0.5850 f         1 FRS     -0.162000
     20 F7          5.1470   -5.2260    1.9380 f         1 FRS     -0.162000
     21 O4          3.3800   -8.2390    1.1890 os        1 FRS     -0.070000
     22 N14         3.2440   -2.5930   -0.7550 n2        1 FRS     -0.326000
     23 N17         2.8850   -0.0020   -0.9320 n2        1 FRS     -0.243000
     24 C18         1.5800    0.7930   -0.5370 c2        1 FRS     -0.065000
     25 C19         0.6440    0.0420    0.1830 c2        1 FRS     -0.411000
     26 S16         1.0810   -1.4110    0.4250 ss        1 FRS      0.509000
     27 C21        -1.5000    1.3380    0.4560 c3        1 FRS     -0.040000
     28 N22        -1.4620    2.8260    0.5690 n2        1 FRS     -0.281000
     29 N26        -4.2770    5.2020   -1.2900 n1        1 FRS     -0.214000
     30 C25        -4.5130    3.8330   -1.2090 c1        1 FRS      0.023000
     31 N24        -3.7080    3.0590   -0.4660 n2        1 FRS     -0.243000
     32 N35        -3.3470    9.2080   -0.2770 n2        1 FRS     -0.125000
     33 C32        -5.3330    9.8170   -1.0740 c1        1 FRS     -0.080000
     34 N31        -5.2900    8.4620   -1.0680 n2        1 FRS     -0.115000
     35 HN29       -2.1740    7.4110   -0.9280 hn        1 FRS      0.231000
     36 H27        -1.6570    5.3720    0.6090 ha        1 FRS      0.149000
     37 H20         0.2250    1.4910    1.6880 hc        1 FRS      0.108000
     38 H20A       -0.5810    0.1240    1.7990 hc        1 FRS      0.108000
     39 H3          1.4610   -6.9500   -0.8820 DU        1 FRS      0.230333
     40 H1          1.0450   -9.7860   -0.4480 ha        1 FRS      0.105333
     41 H1A         0.3580   -9.1700    0.8790 ha        1 FRS      0.105333
     42 H1B         1.5730  -10.2290    1.0040 ha        1 FRS      0.105333
     43 HN11        4.1880   -5.0750   -1.3740 hn        1 FRS      0.265000
     44 HN17        3.5570    0.2600   -1.6280 hn        1 FRS      0.273000
     45 H18         1.6080    1.7890   -0.4370 h4        1 FRS      0.186000
     46 H21        -2.3590    0.9890    0.8740 h1        1 FRS      0.101000
     47 H21A       -1.4640    1.0720   -0.5220 h1        1 FRS      0.101000
     48 HN22       -0.6700    3.2660    0.9240 hn        1 FRS      0.203000
     49 H25        -5.2520    3.4430   -1.6860 ha        1 FRS      0.191000
     50 H32        -6.0840   10.3680   -1.3740 DU        1 FRS      0.230333
     51 H17        -3.9020   11.1250   -0.4850 DU        1 FRS      0.230333
@<TRIPOS>BOND
     1    1   32 1   
     2    1   33 1   
     3    2    3 1   
     4    2    4 1   
     5    2   35 1   
     6    3   32 1   
     7    3   34 1   
     8    4    5 1   
     9    4   29 1   
    10    5    6 1   
    11    5   36 1   
    12    6   31 1   
    13    7   25 1   
    14    7   27 1   
    15    7   37 1   
    16    7   38 1   
    17    8   22 1   
    18    8   26 1   
    19    9   16 1   
    20    9   22 1   
    21   10   11 1   
    22   10   13 1   
    23   11   21 1   
    24   12   18 1   
    25   12   19 1   
    26   12   20 1   
    27   13   14 1   
    28   14   21 1   
    29   15   40 1   
    30   15   41 1   
    31   15   42 1   
    32   17   43 1   
    33   23   24 1   
    34   23   44 1   
    35   24   25 1   
    36   24   45 1   
    37   25   26 1   
    38   27   28 1   
    39   27   46 1   
    40   27   47 1   
    41   28   48 1   
    42   30   31 1   
    43   30   49 1   
    44   33   34 1   
@<TRIPOS>SUBSTRUCTURE
     1 FRS         1 TEMP              0 ****  ****    0 ROOT
