@<TRIPOS>MOLECULE
FRT
   57    58     1     0     0
SMALL
bcc


@<TRIPOS>ATOM
      1 C1          0.1670    0.0970   -0.0350 ca        1 FRT      0.571800
      2 N2          1.4780    0.1370   -0.4050 nb        1 FRT     -0.713000
      3 C3          2.3780    0.4210    0.5950 ca        1 FRT      0.816900
      4 N4          2.0860    0.6550    1.9220 nb        1 FRT     -0.693000
      5 C5          0.7800    0.5930    2.2480 ca        1 FRT      0.454200
      6 C6         -0.2270    0.3170    1.3130 ca        1 FRT     -0.340600
      7 N7          3.7640    0.5580    0.2330 nu        1 FRT     -0.675300
      8 C8          4.5150   -0.3870   -0.3780 ca        1 FRT      0.344600
      9 C9          4.0260   -1.6840   -0.7550 ca        1 FRT     -0.228000
     10 C10         4.8500   -2.5920   -1.3560 ca        1 FRT      0.062000
     11 C11         6.2230   -2.3230   -1.6420 ca        1 FRT     -0.701500
     12 C12         6.6970   -1.0300   -1.2660 ca        1 FRT      0.062000
     13 C13         5.8990   -0.1000   -0.6660 ca        1 FRT     -0.228000
     14 S14         7.1510   -3.3820   -2.2640 s4        1 FRT      1.681300
     15 N15         6.8480   -2.7620   -4.4400 n8        1 FRT     -1.001800
     16 C16         7.9360   -1.9210   -4.9230 c3        1 FRT      0.106800
     17 C17         7.9120   -1.6470   -6.4330 c3        1 FRT      0.108400
     18 O18         8.7650   -0.5250   -6.6140 os        1 FRT     -0.417600
     19 C19         9.0260   -0.2460   -7.9830 c3        1 FRT      0.112700
     20 C20        -0.8820   -0.1040   -1.0140 cc        1 FRT     -0.344100
     21 N21        -0.8410   -0.8000   -2.2370 na        1 FRT     -0.163900
     22 C22        -2.1010   -0.6230   -2.8360 cc        1 FRT      0.447800
     23 N23        -2.9180    0.1410   -2.0470 nd        1 FRT     -0.661000
     24 C24        -2.1850    0.4600   -0.9280 cd        1 FRT      0.369200
     25 C25         0.2670   -1.5910   -2.7360 c3        1 FRT      0.055000
     26 C26        -0.1430   -2.9640   -3.2750 c3        1 FRT     -0.111600
     27 C27         1.0830   -0.8580   -3.8030 c3        1 FRT     -0.111600
     28 C28        -2.5070   -1.1870   -4.1490 c3        1 FRT     -0.133400
     29 O29         8.4950   -3.1500   -2.2470 o         1 FRT     -0.456900
     30 O30         6.6390   -4.6330   -2.4670 o         1 FRT     -0.456900
     31 H6         -1.2840    0.2690    1.6070 ha        1 FRT      0.182000
     32 H7          4.2100    1.3910    0.5690 hn        1 FRT      0.484800
     33 H5          0.5470    0.7740    3.3160 h4        1 FRT      0.056100
     34 H9          2.9780   -1.9580   -0.5470 ha        1 FRT      0.174500
     35 H13         6.3190    0.8830   -0.3920 ha        1 FRT      0.174500
     36 H10         4.4500   -3.5910   -1.6220 ha        1 FRT      0.164500
     37 H12         7.7590   -0.7860   -1.4660 ha        1 FRT      0.164500
     38 H15         5.9670   -2.2870   -4.5440 hn        1 FRT      0.401800
     39 H161        7.8950   -0.9320   -4.3810 h1        1 FRT      0.096700
     40 H162        8.9140   -2.4180   -4.6570 h1        1 FRT      0.096700
     41 H171        8.2940   -2.5310   -7.0080 h1        1 FRT      0.040700
     42 H172        6.8790   -1.3910   -6.7920 h1        1 FRT      0.040700
     43 H191        9.6930    0.6520   -7.9530 h1        1 FRT      0.048367
     44 H192        8.0750   -0.0150   -8.5230 h1        1 FRT      0.048367
     45 H193        9.5460   -1.1090   -8.4670 h1        1 FRT      0.048367
     46 H24        -2.5950    1.0800   -0.1280 h4        1 FRT      0.051100
     47 H25         0.9470   -1.7880   -1.8510 h1        1 FRT      0.063700
     48 H281       -1.7040   -1.0350   -4.9120 hc        1 FRT      0.068033
     49 H282       -3.4410   -0.6840   -4.5080 hc        1 FRT      0.068033
     50 H283       -2.7130   -2.2820   -4.0430 hc        1 FRT      0.068033
     51 H261       -0.5640   -2.8850   -4.3050 hc        1 FRT      0.050700
     52 H262        0.7680   -3.6090   -3.3180 hc        1 FRT      0.050700
     53 H263       -0.8960   -3.4580   -2.6150 hc        1 FRT      0.050700
     54 H271        0.4600   -0.6250   -4.7000 hc        1 FRT      0.050700
     55 H272        1.4980    0.0970   -3.3990 hc        1 FRT      0.050700
     56 H273        1.9280   -1.5160   -4.1180 hc        1 FRT      0.050700
     57 H152        6.8060   -3.6190   -4.9720 hn        1 FRT      0.401800
@<TRIPOS>BOND
     1    1    2 ar  
     2    1    6 ar  
     3    1   20 1   
     4    2    3 ar  
     5    3    4 ar  
     6    3    7 1   
     7    4    5 ar  
     8    5    6 ar  
     9    5   33 1   
    10    6   31 1   
    11    7    8 1   
    12    7   32 1   
    13    8    9 ar  
    14    8   13 ar  
    15    9   10 ar  
    16    9   34 1   
    17   10   11 ar  
    18   10   36 1   
    19   11   12 ar  
    20   11   14 1   
    21   12   13 ar  
    22   12   37 1   
    23   13   35 1   
    24   14   29 1   
    25   14   30 1   
    26   15   16 1   
    27   15   38 1   
    28   15   57 1   
    29   16   17 1   
    30   16   39 1   
    31   16   40 1   
    32   17   18 1   
    33   17   41 1   
    34   17   42 1   
    35   18   19 1   
    36   19   43 1   
    37   19   44 1   
    38   19   45 1   
    39   20   21 1   
    40   20   24 2   
    41   21   22 1   
    42   21   25 1   
    43   22   23 2   
    44   22   28 1   
    45   23   24 1   
    46   24   46 1   
    47   25   26 1   
    48   25   27 1   
    49   25   47 1   
    50   26   51 1   
    51   26   52 1   
    52   26   53 1   
    53   27   54 1   
    54   27   55 1   
    55   27   56 1   
    56   28   48 1   
    57   28   49 1   
    58   28   50 1   
@<TRIPOS>SUBSTRUCTURE
     1 FRT         1 TEMP              0 ****  ****    0 ROOT
