@<TRIPOS>MOLECULE
FRT
   56    48     1     0     0
SMALL
bcc


@<TRIPOS>ATOM
      1 C1         -2.2590    1.4460   -2.6190 c1        1 FRT      0.138000
      2 N2         -0.9100    1.3920   -2.6650 n1        1 FRT     -0.209000
      3 C3         -0.1680    1.4640   -1.4890 c1        1 FRT      0.162000
      4 N4         -0.8050    1.5890   -0.2850 n1        1 FRT     -0.210000
      5 C5         -2.1620    1.6440   -0.2370 c1        1 FRT     -0.002000
      6 C6         -2.9000    1.5720   -1.4090 c1        1 FRT     -0.284000
      7 N7          1.2750    1.3200   -1.5340 n3        1 FRT     -0.249000
      8 C8          1.9950    0.8070   -0.3690 c2        1 FRT      0.140000
      9 C9          3.0090    1.5650    0.2100 c2        1 FRT     -0.207000
     10 C10         3.6440    1.1130    1.3790 c1        1 FRT      0.006000
     11 C11         3.2510   -0.1160    1.9670 c1        1 FRT     -0.857000
     12 C12         2.2460   -0.8650    1.3900 c1        1 FRT      0.003000
     13 C13         1.6080   -0.4070    0.2120 c1        1 FRT     -0.157000
     14 S14         4.0530   -0.6980    3.4420 s4        1 FRT      2.076800
     15 N15         3.1680   -0.2100    4.8370 n2        1 FRT     -0.890000
     16 C16         3.0410   -1.0850    5.9330 c3        1 FRT     -0.011000
     17 C17         3.7810   -0.4970    7.1410 c3        1 FRT     -0.042000
     18 O18         4.4150   -1.5530    7.8810 os        1 FRT     -0.280000
     19 C19         5.0020   -1.1240    9.1030 c3        1 FRT     -0.072000
     20 C20        -3.0150    1.4800   -3.8340 c1        1 FRT     -0.111000
     21 N21        -3.5120    0.4040   -4.4900 n2        1 FRT     -0.143000
     22 C22        -4.0060    0.8310   -5.6870 c1        1 FRT     -0.020000
     23 N23        -3.8140    2.1690   -5.7660 n2        1 FRT     -0.143000
     24 C24        -3.2040    2.5760   -4.6270 c1        1 FRT     -0.111000
     25 C25        -3.5090   -0.9660   -4.0100 c2        1 FRT      0.025000
     26 C26        -4.9470   -1.4460   -3.8410 c3        1 FRT     -0.229000
     27 C27        -2.7920   -1.8580   -5.0170 c3        1 FRT     -0.229000
     28 C28        -4.7660   -0.0360   -6.7160 c2        1 FRT     -0.149000
     29 O29         4.2370   -2.1520    3.4080 o         1 FRT     -0.544400
     30 O30         5.4320   -0.2370    3.5070 o         1 FRT     -0.544400
     31 H6         -3.9200    1.6140   -1.3730 ha        1 FRT      0.159000
     32 H7          1.7120    1.4950   -2.2810 hn        1 FRT      0.252000
     33 H5         -2.6320    1.7360    0.6490 ha        1 FRT      0.168000
     34 H9          3.2870    2.4390   -0.2100 ha        1 FRT      0.141000
     35 H13         0.8910   -0.9400   -0.1980 ha        1 FRT      0.163000
     36 H10         4.3900    1.6700    1.8060 ha        1 FRT      0.155000
     37 H12         1.9710   -1.7260    1.8020 ha        1 FRT      0.153000
     38 H15         2.8460    0.6460    4.8980 hn        1 FRT      0.243000
     39 H161        2.1130   -1.1920    6.1490 h1        1 FRT      0.102000
     40 H162        3.4130   -1.9260    5.7120 h1        1 FRT      0.102000
     41 H171        4.4560    0.1330    6.8330 h1        1 FRT      0.075000
     42 H172        3.1320   -0.0250    7.7270 h1        1 FRT      0.075000
     43 H191        5.4710   -1.8960    9.5400 h1        1 FRT      0.074667
     44 H192        4.3250   -0.7990    9.6800 h1        1 FRT      0.074667
     45 H193        5.6780   -0.3760    8.9130 h1        1 FRT      0.074667
     46 H24        -2.9510    3.4690   -4.4160 DU        1 FRT      0.188000
     47 H25        -3.0490   -1.0110   -3.1540 ha        1 FRT      0.112000
     48 H281       -5.2240    0.5360   -7.3420 ha        1 FRT      0.099000
     49 H282       -4.1340   -0.5980   -7.1940 ha        1 FRT      0.099000
     50 H283       -5.4270   -0.6060   -6.2450 ha        1 FRT      0.099000
     51 H261       -5.1270   -1.6060   -2.8920 hc        1 FRT      0.088833
     52 H262       -5.5920   -0.7320   -4.1950 hc        1 FRT      0.088833
     53 H263       -5.0720   -2.2650   -4.3340 hc        1 FRT      0.088833
     54 H271       -2.1660   -1.3400   -5.5120 hc        1 FRT      0.088833
     55 H272       -3.4540   -2.2570   -5.6360 hc        1 FRT      0.088833
     56 H273       -2.3230   -2.5660   -4.5440 hc        1 FRT      0.088833
@<TRIPOS>BOND
     1    1    6 1   
     2    2    3 1   
     3    3    7 1   
     4    4    5 1   
     5    5   33 1   
     6    6   31 1   
     7    7    8 1   
     8    7   32 1   
     9    8    9 1   
    10    8   13 1   
    11    9   10 1   
    12    9   34 1   
    13   10   36 1   
    14   11   12 1   
    15   11   14 1   
    16   12   37 1   
    17   13   35 1   
    18   14   29 1   
    19   14   30 1   
    20   15   16 1   
    21   15   38 1   
    22   16   17 1   
    23   16   39 1   
    24   16   40 1   
    25   17   18 1   
    26   17   41 1   
    27   17   42 1   
    28   18   19 1   
    29   19   43 1   
    30   19   44 1   
    31   19   45 1   
    32   20   21 1   
    33   20   24 1   
    34   21   22 1   
    35   22   23 1   
    36   23   24 1   
    37   25   26 1   
    38   25   27 1   
    39   25   47 1   
    40   26   51 1   
    41   26   52 1   
    42   26   53 1   
    43   27   54 1   
    44   27   55 1   
    45   27   56 1   
    46   28   48 1   
    47   28   49 1   
    48   28   50 1   
@<TRIPOS>SUBSTRUCTURE
     1 FRT         1 TEMP              0 ****  ****    0 ROOT
