@<TRIPOS>MOLECULE
FRT
   56    58     1     0     0
SMALL
bcc


@<TRIPOS>ATOM
      1 C1         -2.0740    2.8190    8.8510 ca        1 FRT      0.578800
      2 N2         -1.9640    2.1350   10.0190 nb        1 FRT     -0.756000
      3 C3         -3.0730    2.1270   10.8420 ca        1 FRT      0.884900
      4 N4         -4.2810    2.7660   10.5600 nb        1 FRT     -0.747000
      5 C5         -4.3370    3.4290    9.3980 ca        1 FRT      0.468200
      6 C6         -3.2640    3.5020    8.4960 ca        1 FRT     -0.400600
      7 N7         -3.0560    1.4110   12.0560 nh        1 FRT     -0.725300
      8 C8         -1.9290    0.9390   12.7350 ca        1 FRT      0.228600
      9 C9         -0.8060    0.3670   12.0960 ca        1 FRT     -0.195500
     10 C10         0.2430   -0.1370   12.8540 ca        1 FRT      0.006500
     11 C11         0.2300   -0.1060   14.2520 ca        1 FRT     -0.419500
     12 C12        -0.8950    0.4390   14.8840 ca        1 FRT      0.006500
     13 C13        -1.9540    0.9550   14.1570 ca        1 FRT     -0.195500
     14 S14         1.4990   -0.7500   15.1470 sy        1 FRT      1.522200
     15 N15         2.4430    0.5320   15.4420 n3        1 FRT     -0.918100
     16 C16         2.2630    1.4510   16.5230 c3        1 FRT      0.226800
     17 C17         3.4020    1.4140   17.5580 c3        1 FRT      0.107400
     18 O18         3.1570    2.5200   18.4220 os        1 FRT     -0.424600
     19 C19         4.0530    2.5570   19.5210 c3        1 FRT      0.117700
     20 C20        -0.9810    2.8480    7.8900 cc        1 FRT     -0.311100
     21 N21         0.4000    2.6820    8.0980 na        1 FRT     -0.157900
     22 C22         1.0060    2.7870    6.8310 cc        1 FRT      0.421800
     23 N23         0.0750    3.0110    5.8550 nd        1 FRT     -0.674000
     24 C24        -1.1450    3.0510    6.4930 cd        1 FRT      0.339200
     25 C25         1.0610    2.4180    9.3610 c3        1 FRT      0.042000
     26 C26         1.5130    0.9620    9.5020 c3        1 FRT     -0.110100
     27 C27         2.2500    3.3410    9.6390 c3        1 FRT     -0.110100
     28 C28         2.4670    2.6920    6.5760 c3        1 FRT     -0.126400
     29 O29         0.9820   -1.2590   16.3570 o         1 FRT     -0.656800
     30 O30         2.2260   -1.6410   14.3240 o         1 FRT     -0.656800
     31 H6         -3.3430    4.0690    7.5620 ha        1 FRT      0.163000
     32 H7         -3.8640    1.5550   12.6320 hn        1 FRT      0.455800
     33 H5         -5.2980    3.9340    9.1850 h4        1 FRT      0.033100
     34 H9         -0.7470    0.2930   10.9990 ha        1 FRT      0.156000
     35 H13        -2.8200    1.3730   14.6940 ha        1 FRT      0.156000
     36 H10         1.1050   -0.5980   12.3360 ha        1 FRT      0.153000
     37 H12        -0.9410    0.4460   15.9880 ha        1 FRT      0.153000
     38 H15         3.2330    0.7300   14.8750 hn        1 FRT      0.446800
     39 H161        2.1870    2.5050   16.1280 h1        1 FRT      0.060700
     40 H162        1.2980    1.2100   17.0550 h1        1 FRT      0.060700
     41 H171        3.3880    0.4560   18.1410 h1        1 FRT      0.036700
     42 H172        4.4050    1.5370   17.0710 h1        1 FRT      0.036700
     43 H191        5.1080    2.6550   19.1640 h1        1 FRT      0.035367
     44 H192        3.7470    3.4660   20.0970 h1        1 FRT      0.035367
     45 H193        3.9460    1.6390   20.1490 h1        1 FRT      0.035367
     46 H24        -2.0750    3.2050    5.9450 h4        1 FRT      0.044100
     47 H25         0.3030    2.6200   10.1780 h1        1 FRT      0.094700
     48 H281        2.6550    2.5640    5.4800 hc        1 FRT      0.060700
     49 H282        2.9700    3.6320    6.9160 hc        1 FRT      0.060700
     50 H283        2.9110    1.8210    7.1170 hc        1 FRT      0.060700
     51 H261        0.6760    0.2580    9.2760 hc        1 FRT      0.048533
     52 H262        2.3660    0.7310    8.8210 hc        1 FRT      0.048533
     53 H263        1.8410    0.7960   10.5570 hc        1 FRT      0.048533
     54 H271        2.5120    3.2510   10.7220 hc        1 FRT      0.048533
     55 H272        3.1430    3.0490    9.0380 hc        1 FRT      0.048533
     56 H273        2.0010    4.4060    9.4210 hc        1 FRT      0.048533
@<TRIPOS>BOND
     1    1    2 ar  
     2    1    6 ar  
     3    1   20 1   
     4    2    3 ar  
     5    3    4 ar  
     6    3    7 1   
     7    4    5 ar  
     8    5    6 ar  
     9    5   33 1   
    10    6   31 1   
    11    7    8 1   
    12    7   32 1   
    13    8    9 ar  
    14    8   13 ar  
    15    9   10 ar  
    16    9   34 1   
    17   10   11 ar  
    18   10   36 1   
    19   11   12 ar  
    20   11   14 1   
    21   12   13 ar  
    22   12   37 1   
    23   13   35 1   
    24   14   15 1   
    25   14   29 2   
    26   14   30 2   
    27   15   16 1   
    28   15   38 1   
    29   16   17 1   
    30   16   39 1   
    31   16   40 1   
    32   17   18 1   
    33   17   41 1   
    34   17   42 1   
    35   18   19 1   
    36   19   43 1   
    37   19   44 1   
    38   19   45 1   
    39   20   21 1   
    40   20   24 2   
    41   21   22 1   
    42   21   25 1   
    43   22   23 2   
    44   22   28 1   
    45   23   24 1   
    46   24   46 1   
    47   25   26 1   
    48   25   27 1   
    49   25   47 1   
    50   26   51 1   
    51   26   52 1   
    52   26   53 1   
    53   27   54 1   
    54   27   55 1   
    55   27   56 1   
    56   28   48 1   
    57   28   49 1   
    58   28   50 1   
@<TRIPOS>SUBSTRUCTURE
     1 FRT         1 TEMP              0 ****  ****    0 ROOT
