@<TRIPOS>MOLECULE
FRT
   58    60     1     0     0
SMALL
bcc


@<TRIPOS>ATOM
      1 C1          0.3830   -1.0060   -1.2980 ca        1 FRT      0.615800
      2 N2          1.4400   -0.1350   -1.3020 nb        1 FRT     -0.716000
      3 C3          2.4820   -0.4770   -0.4880 ca        1 FRT      0.707900
      4 N4          2.6260   -1.5750    0.3100 nb        1 FRT     -0.707000
      5 C5          1.5600   -2.4150    0.2960 ca        1 FRT      0.460200
      6 C6          0.4220   -2.1800   -0.4790 ca        1 FRT     -0.312600
      7 N7          3.6280    0.5040   -0.4680 n4        1 FRT     -0.633100
      8 C8          4.8720   -0.1010   -0.9610 ca        1 FRT      0.080600
      9 C9          5.6740   -0.8570   -0.0880 ca        1 FRT     -0.110500
     10 C10         6.8790   -1.3770   -0.5560 ca        1 FRT      0.018500
     11 C11         7.3040   -1.1680   -1.8780 ca        1 FRT     -0.452500
     12 C12         6.4710   -0.4300   -2.7370 ca        1 FRT      0.018500
     13 C13         5.2620    0.1020   -2.2970 ca        1 FRT     -0.110500
     14 S14         8.8090   -1.6450   -2.3640 sy        1 FRT      1.455200
     15 N15         8.3730   -3.3250   -3.0420 n4        1 FRT     -0.718900
     16 C16         9.1470   -3.6720   -4.2670 c3        1 FRT      0.096800
     17 C17         8.6410   -4.9440   -4.9550 c3        1 FRT      0.106400
     18 O18         7.2400   -4.7770   -5.1390 os        1 FRT     -0.477600
     19 C19         6.6860   -5.7010   -6.0750 c3        1 FRT      0.119700
     20 C20        -0.7570   -0.8040   -2.1410 cc        1 FRT     -0.398100
     21 N21        -1.2680    0.3890   -2.7020 na        1 FRT     -0.154900
     22 C22        -2.3310    0.0120   -3.5290 cc        1 FRT      0.495800
     23 N23        -2.5090   -1.3560   -3.5200 nd        1 FRT     -0.655000
     24 C24        -1.5690   -1.8610   -2.6710 cd        1 FRT      0.414200
     25 C25        -0.8720    1.7410   -2.3410 c3        1 FRT      0.050000
     26 C26         0.0210    2.3950   -3.3970 c3        1 FRT     -0.114600
     27 C27        -2.0480    2.6710   -2.0350 c3        1 FRT     -0.114600
     28 C28        -3.1750    0.9410   -4.3250 c3        1 FRT     -0.148400
     29 O29         9.2440   -0.9460   -3.4680 o         1 FRT     -0.543800
     30 O30         9.6150   -1.9830   -1.2980 o         1 FRT     -0.543800
     31 H6         -0.4380   -2.8670   -0.4540 ha        1 FRT      0.201000
     32 H7          3.3820    1.3210   -1.0510 hn        1 FRT      0.488300
     33 H5          1.6500   -3.3030    0.9560 h4        1 FRT      0.073100
     34 H9          5.3680   -1.0500    0.9580 ha        1 FRT      0.197500
     35 H13         4.6370    0.6780   -3.0040 ha        1 FRT      0.197500
     36 H10         7.5210   -1.9440    0.1500 ha        1 FRT      0.195500
     37 H12         6.7880   -0.2370   -3.7830 ha        1 FRT      0.195500
     38 H15         7.3810   -3.4060   -3.2870 hn        1 FRT      0.466300
     39 H161       10.2290   -3.8150   -3.9840 hx        1 FRT      0.122700
     40 H162        9.0590   -2.8040   -4.9870 hx        1 FRT      0.122700
     41 H171        8.8280   -5.8550   -4.3260 h1        1 FRT      0.081200
     42 H172        9.1710   -5.0510   -5.9400 h1        1 FRT      0.081200
     43 H191        5.5960   -5.4500   -6.0880 h1        1 FRT      0.061033
     44 H192        6.8510   -6.7490   -5.7260 h1        1 FRT      0.061033
     45 H193        7.1410   -5.5460   -7.0840 h1        1 FRT      0.061033
     46 H24        -1.4800   -2.9330   -2.4790 h4        1 FRT      0.055100
     47 H25        -0.2790    1.6540   -1.3800 h1        1 FRT      0.060700
     48 H281       -3.9380    1.4190   -3.6570 hc        1 FRT      0.082367
     49 H282       -2.5520    1.7370   -4.8030 hc        1 FRT      0.082367
     50 H283       -3.7140    0.3750   -5.1280 hc        1 FRT      0.082367
     51 H261        0.3040    3.4150   -3.0390 hc        1 FRT      0.057700
     52 H262        0.9480    1.7980   -3.5640 hc        1 FRT      0.057700
     53 H263       -0.5150    2.5000   -4.3710 hc        1 FRT      0.057700
     54 H271       -2.5250    3.0450   -2.9720 hc        1 FRT      0.057700
     55 H272       -1.6570    3.5520   -1.4680 hc        1 FRT      0.057700
     56 H273       -2.8240    2.1660   -1.4110 hc        1 FRT      0.057700
     57 H72         3.7610    0.8130    0.5090 hn        1 FRT      0.488300
     58 H152        8.5570   -4.0490   -2.3420 hn        1 FRT      0.466300
@<TRIPOS>BOND
     1    1    2 ar  
     2    1    6 ar  
     3    1   20 1   
     4    2    3 ar  
     5    3    4 ar  
     6    3    7 1   
     7    4    5 ar  
     8    5    6 ar  
     9    5   33 1   
    10    6   31 1   
    11    7    8 1   
    12    7   32 1   
    13    7   57 1   
    14    8    9 ar  
    15    8   13 ar  
    16    9   10 ar  
    17    9   34 1   
    18   10   11 ar  
    19   10   36 1   
    20   11   12 ar  
    21   11   14 1   
    22   12   13 ar  
    23   12   37 1   
    24   13   35 1   
    25   14   15 1   
    26   14   29 2   
    27   14   30 2   
    28   15   16 1   
    29   15   38 1   
    30   15   58 1   
    31   16   17 1   
    32   16   39 1   
    33   16   40 1   
    34   17   18 1   
    35   17   41 1   
    36   17   42 1   
    37   18   19 1   
    38   19   43 1   
    39   19   44 1   
    40   19   45 1   
    41   20   21 1   
    42   20   24 2   
    43   21   22 1   
    44   21   25 1   
    45   22   23 2   
    46   22   28 1   
    47   23   24 1   
    48   24   46 1   
    49   25   26 1   
    50   25   27 1   
    51   25   47 1   
    52   26   51 1   
    53   26   52 1   
    54   26   53 1   
    55   27   54 1   
    56   27   55 1   
    57   27   56 1   
    58   28   48 1   
    59   28   49 1   
    60   28   50 1   
@<TRIPOS>SUBSTRUCTURE
     1 FRT         1 TEMP              0 ****  ****    0 ROOT
