@<TRIPOS>MOLECULE
FRT
   57    58     1     0     0
SMALL
bcc


@<TRIPOS>ATOM
      1 C1          0.1590    0.0590   -0.0240 ca        1 FRT      0.571800
      2 N2          1.4710    0.1060   -0.3900 nb        1 FRT     -0.713000
      3 C3          2.3690    0.3750    0.6160 ca        1 FRT      0.816900
      4 N4          2.0740    0.5880    1.9460 nb        1 FRT     -0.693000
      5 C5          0.7680    0.5190    2.2680 ca        1 FRT      0.454200
      6 C6         -0.2370    0.2570    1.3270 ca        1 FRT     -0.340600
      7 N7          3.7560    0.5180    0.2580 nh        1 FRT     -0.675300
      8 C8          4.5090   -0.4180   -0.3630 ca        1 FRT      0.344600
      9 C9          4.0210   -1.7100   -0.7580 ca        1 FRT     -0.228000
     10 C10         4.8470   -2.6090   -1.3690 ca        1 FRT      0.062000
     11 C11         6.2210   -2.3360   -1.6480 ca        1 FRT     -0.701500
     12 C12         6.6930   -1.0480   -1.2540 ca        1 FRT      0.062000
     13 C13         5.8940   -0.1260   -0.6440 ca        1 FRT     -0.228000
     14 S14         7.1510   -3.3870   -2.2810 s4        1 FRT      1.681300
     15 N15         6.8520   -2.7400   -4.4500 n3        1 FRT     -1.001800
     16 C16         7.9410   -1.8950   -4.9220 c3        1 FRT      0.106800
     17 C17         7.9190   -1.6050   -6.4290 c3        1 FRT      0.108400
     18 O18         8.7800   -0.4870   -6.5980 os        1 FRT     -0.417600
     19 C19         9.0410   -0.1950   -7.9650 c3        1 FRT      0.112700
     20 C20        -0.8870   -0.1270   -1.0080 cc        1 FRT     -0.344100
     21 N21        -0.8420   -0.8020   -2.2430 na        1 FRT     -0.163900
     22 C22        -2.1020   -0.6170   -2.8410 cc        1 FRT      0.447800
     23 N23        -2.9220    0.1320   -2.0400 nd        1 FRT     -0.661000
     24 C24        -2.1920    0.4330   -0.9150 cd        1 FRT      0.369200
     25 C25         0.2680   -1.5810   -2.7530 c3        1 FRT      0.055000
     26 C26        -0.1380   -2.9460   -3.3170 c3        1 FRT     -0.111600
     27 C27         1.0850   -0.8280   -3.8050 c3        1 FRT     -0.111600
     28 C28        -2.5040   -1.1590   -4.1650 c3        1 FRT     -0.133400
     29 O29         8.4950   -3.1530   -2.2580 o         1 FRT     -0.456900
     30 O30         6.6410   -4.6350   -2.5010 o         1 FRT     -0.456900
     31 H6         -1.2950    0.2040    1.6180 ha        1 FRT      0.182000
     32 H7          4.2000    1.3470    0.6070 hn        1 FRT      0.484800
     33 H5          0.5330    0.6830    3.3380 h4        1 FRT      0.056100
     34 H9          2.9730   -1.9870   -0.5560 ha        1 FRT      0.174500
     35 H13         6.3120    0.8530   -0.3550 ha        1 FRT      0.174500
     36 H10         4.4490   -3.6050   -1.6490 ha        1 FRT      0.164500
     37 H12         7.7560   -0.8000   -1.4480 ha        1 FRT      0.164500
     38 H15         6.8080   -3.5910   -4.9920 hn        1 FRT      0.401800
     39 H161        7.9010   -0.9120   -4.3700 h1        1 FRT      0.096700
     40 H162        8.9180   -2.3960   -4.6610 h1        1 FRT      0.096700
     41 H171        6.8880   -1.3390   -6.7860 h1        1 FRT      0.040700
     42 H172        8.2960   -2.4860   -7.0130 h1        1 FRT      0.040700
     43 H191        9.7150    0.6980   -7.9250 h1        1 FRT      0.048367
     44 H192        9.5550   -1.0550   -8.4590 h1        1 FRT      0.048367
     45 H193        8.0910    0.0490   -8.5010 h1        1 FRT      0.048367
     46 H24        -2.6050    1.0380   -0.1050 h4        1 FRT      0.051100
     47 H25         0.9460   -1.7930   -1.8710 h1        1 FRT      0.063700
     48 H281       -3.4390   -0.6520   -4.5160 hc        1 FRT      0.068033
     49 H282       -1.7000   -0.9910   -4.9230 hc        1 FRT      0.068033
     50 H283       -2.7080   -2.2560   -4.0770 hc        1 FRT      0.068033
     51 H261        0.7740   -3.5880   -3.3700 hc        1 FRT      0.050700
     52 H262       -0.5570   -2.8490   -4.3470 hc        1 FRT      0.050700
     53 H263       -0.8920   -3.4530   -2.6680 hc        1 FRT      0.050700
     54 H271        0.4630   -0.5800   -4.6990 hc        1 FRT      0.050700
     55 H272        1.4980    0.1200   -3.3830 hc        1 FRT      0.050700
     56 H273        1.9310   -1.4790   -4.1300 hc        1 FRT      0.050700
     57 H152        5.9710   -2.2620   -4.5490 hn        1 FRT      0.401800
@<TRIPOS>BOND
     1    1    2 ar  
     2    1    6 ar  
     3    1   20 1   
     4    2    3 ar  
     5    3    4 ar  
     6    3    7 1   
     7    4    5 ar  
     8    5    6 ar  
     9    5   33 1   
    10    6   31 1   
    11    7    8 1   
    12    7   32 1   
    13    8    9 ar  
    14    8   13 ar  
    15    9   10 ar  
    16    9   34 1   
    17   10   11 ar  
    18   10   36 1   
    19   11   12 ar  
    20   11   14 1   
    21   12   13 ar  
    22   12   37 1   
    23   13   35 1   
    24   14   29 1   
    25   14   30 1   
    26   15   16 1   
    27   15   38 1   
    28   15   57 1   
    29   16   17 1   
    30   16   39 1   
    31   16   40 1   
    32   17   18 1   
    33   17   41 1   
    34   17   42 1   
    35   18   19 1   
    36   19   43 1   
    37   19   44 1   
    38   19   45 1   
    39   20   21 1   
    40   20   24 2   
    41   21   22 1   
    42   21   25 1   
    43   22   23 2   
    44   22   28 1   
    45   23   24 1   
    46   24   46 1   
    47   25   26 1   
    48   25   27 1   
    49   25   47 1   
    50   26   51 1   
    51   26   52 1   
    52   26   53 1   
    53   27   54 1   
    54   27   55 1   
    55   27   56 1   
    56   28   48 1   
    57   28   49 1   
    58   28   50 1   
@<TRIPOS>SUBSTRUCTURE
     1 FRT         1 TEMP              0 ****  ****    0 ROOT
