@<TRIPOS>MOLECULE
FRU
   24    24     1     0     0
SMALL
bcc


@<TRIPOS>ATOM
      1 C1          0.7220    0.9110   -2.0720 c3        1 FRU      0.114400
      2 C2          0.1910    0.0780   -0.8960 c3        1 FRU      0.300600
      3 C3         -1.3040    0.3270   -0.5840 c3        1 FRU      0.142100
      4 C4         -1.3710    0.3450    0.9630 c3        1 FRU      0.080100
      5 C5          0.0930    0.4130    1.4360 c3        1 FRU      0.077100
      6 C6          0.4770   -0.8080    2.2740 c3        1 FRU      0.114400
      7 O1          2.0890    0.6330   -2.2830 oh        1 FRU     -0.595800
      8 O2          0.4380   -1.2940   -1.0350 oh        1 FRU     -0.578800
      9 O3         -2.0770   -0.7100   -1.1400 oh        1 FRU     -0.560800
     10 O4         -2.1110    1.4940    1.3290 oh        1 FRU     -0.595800
     11 O5          0.9340    0.4510    0.2730 os        1 FRU     -0.462600
     12 O6          1.7840   -0.6740    2.7900 oh        1 FRU     -0.594800
     13 H11         0.2040    0.5930   -3.0160 h1        1 FRU      0.070700
     14 H12         0.5570    2.0010   -1.8730 h1        1 FRU      0.070700
     15 H3         -1.6190    1.3250   -0.9960 h1        1 FRU      0.071700
     16 H4         -1.8810   -0.5800    1.3460 h1        1 FRU      0.068700
     17 H5          0.3110    1.3640    1.9940 h1        1 FRU      0.084700
     18 H61         0.3960   -1.7350    1.6450 h1        1 FRU      0.059700
     19 H62        -0.1850   -0.8880    3.1750 h1        1 FRU      0.059700
     20 HO1         2.5670    0.9430   -1.5020 ho        1 FRU      0.416000
     21 HO2         1.3240   -1.3870   -1.4160 ho        1 FRU      0.425000
     22 HO3        -2.9990   -0.4940   -0.9420 ho        1 FRU      0.410000
     23 HO4        -2.1010    1.5420    2.2930 ho        1 FRU      0.412000
     24 HO6         2.3750   -0.5670    2.0320 ho        1 FRU      0.412000
@<TRIPOS>BOND
     1    1    2 1   
     2    1    7 1   
     3    1   13 1   
     4    1   14 1   
     5    2    3 1   
     6    2    8 1   
     7    2   11 1   
     8    3    4 1   
     9    3    9 1   
    10    3   15 1   
    11    4    5 1   
    12    4   10 1   
    13    4   16 1   
    14    5    6 1   
    15    5   11 1   
    16    5   17 1   
    17    6   12 1   
    18    6   18 1   
    19    6   19 1   
    20    7   20 1   
    21    8   21 1   
    22    9   22 1   
    23   10   23 1   
    24   12   24 1   
@<TRIPOS>SUBSTRUCTURE
     1 FRU         1 TEMP              0 ****  ****    0 ROOT
