@<TRIPOS>MOLECULE
FRV
   48    50     1     0     0
SMALL
bcc


@<TRIPOS>ATOM
      1 C13        -0.1080    0.4610    0.0440 ca        1 FRV     -0.220000
      2 N21        -2.5330   -1.1830   -5.2360 na        1 FRV     -0.146900
      3 C25        -1.9780   -2.1810   -6.0790 cx        1 FRV     -0.030000
      4 C22        -3.9290   -1.0070   -5.0780 cc        1 FRV      0.440800
      5 C28        -4.9370   -1.7620   -5.8650 c3        1 FRV     -0.134400
      6 C26        -0.5130   -2.5540   -6.1480 cx        1 FRV     -0.127900
      7 C6          0.3140    0.4590   -5.1300 ca        1 FRV     -0.344600
      8 C1         -0.5060   -0.0590   -4.1020 ca        1 FRV      0.567800
      9 C20        -1.9250   -0.3010   -4.3280 cc        1 FRV     -0.327100
     10 C24        -2.9780    0.3640   -3.6550 cd        1 FRV      0.351200
     11 C5          1.6490    0.7560   -4.8020 ca        1 FRV      0.456200
     12 C8          1.2120   -0.0690   -0.1370 ca        1 FRV      0.339600
     13 C3          1.2870    0.0680   -2.6280 ca        1 FRV      0.826900
     14 N2         -0.0300   -0.2660   -2.8430 nb        1 FRV     -0.702000
     15 C16        -1.5290   -2.6000    4.9820 c3        1 FRV      0.096100
     16 C9          1.9110   -0.4980    1.0480 ca        1 FRV     -0.220000
     17 C10         1.3150   -0.4400    2.2760 ca        1 FRV      0.057500
     18 C11        -0.0080    0.0560    2.4630 ca        1 FRV     -0.692500
     19 O30        -1.8240    0.8590    3.9710 o         1 FRV     -0.456900
     20 S14        -0.6620    0.1470    3.8610 s4        1 FRV      1.675300
     21 O29         0.1210   -0.1380    4.9430 o         1 FRV     -0.456900
     22 N15        -1.6880   -1.8440    3.7520 n8        1 FRV     -1.007800
     23 C12        -0.6750    0.5130    1.2880 ca        1 FRV      0.057500
     24 N7          1.8490   -0.1710   -1.3330 nu        1 FRV     -0.685300
     25 N4          2.1620    0.5740   -3.5740 nb        1 FRV     -0.695000
     26 N23        -4.2010   -0.0690   -4.1290 nd        1 FRV     -0.662000
     27 C30        -1.1570   -1.8730   -7.3190 cx        1 FRV     -0.127900
     28 H6         -0.0820    0.6350   -6.1380 ha        1 FRV      0.181000
     29 H7          2.8260   -0.3990   -1.3300 hn        1 FRV      0.482800
     30 H5          2.3510    1.1690   -5.5540 h4        1 FRV      0.056100
     31 H9          2.9430   -0.8820    0.9640 ha        1 FRV      0.179000
     32 H13        -0.6810    0.8460   -0.8160 ha        1 FRV      0.179000
     33 H10         1.8780   -0.7800    3.1680 ha        1 FRV      0.166500
     34 H12        -1.6910    0.9420    1.3970 ha        1 FRV      0.166500
     35 H15        -2.6670   -1.6650    3.5780 hn        1 FRV      0.407800
     36 H161       -2.0600   -2.0700    5.8180 h1        1 FRV      0.081367
     37 H162       -0.4360   -2.6670    5.2350 h1        1 FRV      0.081367
     38 H163       -1.9460   -3.6400    4.8990 h1        1 FRV      0.081367
     39 H24        -2.8970    1.1310   -2.8840 h4        1 FRV      0.042100
     40 H25        -2.7040   -3.0290   -6.1650 h1        1 FRV      0.108700
     41 H281       -4.7150   -1.6870   -6.9590 hc        1 FRV      0.068700
     42 H282       -4.9290   -2.8400   -5.5640 hc        1 FRV      0.068700
     43 H283       -5.9590   -1.3460   -5.6780 hc        1 FRV      0.068700
     44 H261        0.2310   -2.0000   -5.5500 hc        1 FRV      0.084950
     45 H262       -0.2670   -3.6300   -6.2110 hc        1 FRV      0.084950
     46 H301       -1.3730   -2.4520   -8.2350 hc        1 FRV      0.084950
     47 H302       -0.8810   -0.8300   -7.5510 hc        1 FRV      0.084950
     48 H152       -1.3190   -2.3620    2.9700 hn        1 FRV      0.407800
@<TRIPOS>BOND
     1    1   12 ar  
     2    1   23 ar  
     3    1   32 1   
     4    2    3 1   
     5    2    4 1   
     6    2    9 1   
     7    3    6 1   
     8    3   27 1   
     9    3   40 1   
    10    4    5 1   
    11    4   26 2   
    12    5   41 1   
    13    5   42 1   
    14    5   43 1   
    15    6   27 1   
    16    6   44 1   
    17    6   45 1   
    18    7    8 ar  
    19    7   11 ar  
    20    7   28 1   
    21    8    9 1   
    22    8   14 ar  
    23    9   10 2   
    24   10   26 1   
    25   10   39 1   
    26   11   25 ar  
    27   11   30 1   
    28   12   16 ar  
    29   12   24 1   
    30   13   14 ar  
    31   13   24 1   
    32   13   25 ar  
    33   15   22 1   
    34   15   36 1   
    35   15   37 1   
    36   15   38 1   
    37   16   17 ar  
    38   16   31 1   
    39   17   18 ar  
    40   17   33 1   
    41   18   20 1   
    42   18   23 ar  
    43   19   20 1   
    44   20   21 1   
    45   22   35 1   
    46   22   48 1   
    47   23   34 1   
    48   24   29 1   
    49   27   46 1   
    50   27   47 1   
@<TRIPOS>SUBSTRUCTURE
     1 FRV         1 TEMP              0 ****  ****    0 ROOT
