@<TRIPOS>MOLECULE
FRV
   47    38     1     0     0
SMALL
bcc


@<TRIPOS>ATOM
      1 C13         1.9990    0.3610    1.5540 c1        1 FRV     -0.118750
      2 N21        -2.4030   -0.9350   -4.0160 n2        1 FRV     -0.120500
      3 C25        -0.9970   -0.9270   -4.3410 cu        1 FRV     -0.041000
      4 C22        -3.4280   -0.8260   -4.9040 c1        1 FRV     -0.021000
      5 C28        -3.2910   -0.6650   -6.4170 c2        1 FRV     -0.150000
      6 C26        -0.1380    0.0290   -3.5310 cx        1 FRV     -0.201500
      7 C6         -2.2960   -2.5860   -0.9850 c1        1 FRV     -0.118750
      8 C1         -2.2080   -1.3730   -1.6140 c1        1 FRV      0.142000
      9 C20        -2.9300   -1.1440   -2.7990 c1        1 FRV     -0.116000
     10 C24        -4.2970   -1.1650   -2.9270 c1        1 FRV     -0.116000
     11 C5         -1.7050   -2.7680    0.2370 c1        1 FRV     -0.118750
     12 C8          0.6510    0.2910    1.8910 c1        1 FRV      0.135000
     13 C3         -0.9510   -0.5440    0.1910 c1        1 FRV      0.159000
     14 N2         -1.5410   -0.3610   -1.0300 n1        1 FRV     -0.230000
     15 C16         4.2220    2.1930    7.2410 c3        1 FRV     -0.064000
     16 C9          0.2510    0.5020    3.2060 c1        1 FRV     -0.153000
     17 C10         1.1980    0.7850    4.1850 c1        1 FRV      0.002000
     18 C11         2.5460    0.8550    3.8490 c1        1 FRV     -0.854000
     19 O30         3.3360    3.2610    4.6920 o         1 FRV     -0.544400
     20 S14         3.7780    1.8940    4.6190 s4        1 FRV      2.074800
     21 O29         4.9440    2.0220    3.7890 o         1 FRV     -0.544400
     22 N15         4.1680    1.3070    6.1160 n2        1 FRV     -0.892000
     23 C12         2.9460    0.6430    2.5330 c1        1 FRV     -0.118750
     24 N7         -0.2730    0.5460    0.8280 n2        1 FRV     -0.247000
     25 N4         -1.0390   -1.7540    0.8190 n1        1 FRV     -0.212000
     26 N23        -4.5950   -0.9700   -4.2200 n2        1 FRV     -0.120500
     27 C30        -0.4740    0.3490   -4.9770 cx        1 FRV     -0.201500
     28 H6         -2.7820   -3.3250   -1.4100 ha        1 FRV      0.156000
     29 H7         -0.4190    1.4050    0.5440 hn        1 FRV      0.243000
     30 H5         -1.7680   -3.6380    0.6890 ha        1 FRV      0.156000
     31 H9         -0.6990    0.4530    3.4430 ha        1 FRV      0.163000
     32 H13         2.2810    0.2120    0.6280 ha        1 FRV      0.156000
     33 H10         0.9160    0.9340    5.1120 ha        1 FRV      0.154000
     34 H12         3.8970    0.6930    2.2960 ha        1 FRV      0.156000
     35 H15         4.3850    0.4220    6.2190 hn        1 FRV      0.243000
     36 H161        5.0930    2.6530    7.2540 h1        1 FRV      0.082000
     37 H162        3.5020    2.8570    7.1700 h1        1 FRV      0.082000
     38 H163        4.1120    1.6770    8.0700 h1        1 FRV      0.082000
     39 H24        -4.9430   -1.3000   -2.1990 DU        1 FRV      0.181000
     40 H25        -0.5560   -1.7580   -4.6280 ha        1 FRV      0.146000
     41 H281       -3.4280   -1.5360   -6.8530 ha        1 FRV      0.100667
     42 H282       -2.3930   -0.3300   -6.6300 ha        1 FRV      0.100667
     43 H283       -3.9650   -0.0260   -6.7410 ha        1 FRV      0.100667
     44 H261        0.7850   -0.2650   -3.3620 hc        1 FRV      0.122750
     45 H262       -0.6130    0.5600   -2.8550 hc        1 FRV      0.122750
     46 H301        0.2600    0.2360   -5.6210 hc        1 FRV      0.122750
     47 H302       -1.1370    1.0600   -5.1120 hc        1 FRV      0.122750
@<TRIPOS>BOND
     1    1   23 1   
     2    1   32 1   
     3    2    4 1   
     4    2    9 1   
     5    3    6 1   
     6    3   27 1   
     7    3   40 1   
     8    4   26 1   
     9    5   41 1   
    10    5   42 1   
    11    5   43 1   
    12    6   27 1   
    13    6   44 1   
    14    6   45 1   
    15    7   11 1   
    16    7   28 1   
    17    8   14 1   
    18    9   10 1   
    19   10   26 1   
    20   11   30 1   
    21   12   16 1   
    22   13   24 1   
    23   13   25 1   
    24   15   22 1   
    25   15   36 1   
    26   15   37 1   
    27   15   38 1   
    28   16   31 1   
    29   17   18 1   
    30   17   33 1   
    31   18   20 1   
    32   19   20 1   
    33   20   21 1   
    34   22   35 1   
    35   23   34 1   
    36   24   29 1   
    37   27   46 1   
    38   27   47 1   
@<TRIPOS>SUBSTRUCTURE
     1 FRV         1 TEMP              0 ****  ****    0 ROOT
