@<TRIPOS>MOLECULE
FRV
   48    50     1     0     0
SMALL
bcc


@<TRIPOS>ATOM
      1 C13        -0.1140    0.4850    0.0280 ca        1 FRV     -0.220000
      2 N21        -2.5260   -1.2330   -5.2340 na        1 FRV     -0.146900
      3 C25        -1.9670   -2.2410   -6.0620 cx        1 FRV     -0.030000
      4 C22        -3.9230   -1.0570   -5.0810 cc        1 FRV      0.440800
      5 C28        -4.9280   -1.8250   -5.8600 c3        1 FRV     -0.134400
      6 C26        -0.5020   -2.6120   -6.1240 cx        1 FRV     -0.127900
      7 C6          0.3170    0.4160   -5.1460 ca        1 FRV     -0.344600
      8 C1         -0.5030   -0.0890   -4.1120 ca        1 FRV      0.567800
      9 C20        -1.9210   -0.3380   -4.3370 cc        1 FRV     -0.327100
     10 C24        -2.9770    0.3350   -3.6750 cd        1 FRV      0.351200
     11 C5          1.6520    0.7200   -4.8200 ca        1 FRV      0.456200
     12 C8          1.2080   -0.0420   -0.1450 ca        1 FRV      0.339600
     13 C3          1.2870    0.0610   -2.6370 ca        1 FRV      0.826900
     14 N2         -0.0290   -0.2780   -2.8500 nb        1 FRV     -0.702000
     15 C16        -1.5300   -2.5170    5.0030 c3        1 FRV      0.096100
     16 C9          1.9070   -0.4530    1.0470 ca        1 FRV     -0.220000
     17 C10         1.3090   -0.3800    2.2730 ca        1 FRV      0.057500
     18 C11        -0.0160    0.1130    2.4520 ca        1 FRV     -0.692500
     19 O30        -1.8370    0.9290    3.9460 o         1 FRV     -0.456900
     20 S14        -0.6730    0.2200    3.8470 s4        1 FRV      1.675300
     21 O29         0.1100   -0.0470    4.9340 o         1 FRV     -0.456900
     22 N15        -1.6920   -1.7760    3.7630 n3        1 FRV     -1.007800
     23 C12        -0.6830    0.5510    1.2700 ca        1 FRV      0.057500
     24 N7          1.8470   -0.1590   -1.3380 nh        1 FRV     -0.685300
     25 N4          2.1630    0.5560   -3.5890 nb        1 FRV     -0.695000
     26 N23        -4.1980   -0.1070   -4.1460 nd        1 FRV     -0.662000
     27 C30        -1.1450   -1.9490   -7.3050 cx        1 FRV     -0.127900
     28 H6         -0.0770    0.5770   -6.1570 ha        1 FRV      0.181000
     29 H7          2.8260   -0.3840   -1.3310 hn        1 FRV      0.482800
     30 H5          2.3530    1.1240   -5.5770 h4        1 FRV      0.056100
     31 H9          2.9400   -0.8350    0.9700 ha        1 FRV      0.179000
     32 H13        -0.6870    0.8560   -0.8380 ha        1 FRV      0.179000
     33 H10         1.8720   -0.7070    3.1710 ha        1 FRV      0.166500
     34 H12        -1.7000    0.9790    1.3720 ha        1 FRV      0.166500
     35 H15        -1.3200   -2.3030    2.9880 hn        1 FRV      0.407800
     36 H161       -1.9430   -3.5580    4.9320 h1        1 FRV      0.081367
     37 H162       -0.4360   -2.5760    5.2560 h1        1 FRV      0.081367
     38 H163       -2.0620   -1.9780    5.8330 h1        1 FRV      0.081367
     39 H24        -2.8990    1.1120   -2.9140 h4        1 FRV      0.042100
     40 H25        -2.6920   -3.0920   -6.1380 h1        1 FRV      0.108700
     41 H281       -5.9510   -1.4090   -5.6810 hc        1 FRV      0.068700
     42 H282       -4.9180   -2.8980   -5.5440 hc        1 FRV      0.068700
     43 H283       -4.7040   -1.7650   -6.9540 hc        1 FRV      0.068700
     44 H261       -0.2530   -3.6890   -6.1710 hc        1 FRV      0.084950
     45 H262        0.2400   -2.0480   -5.5320 hc        1 FRV      0.084950
     46 H301       -1.3590   -2.5410   -8.2130 hc        1 FRV      0.084950
     47 H302       -0.8710   -0.9080   -7.5510 hc        1 FRV      0.084950
     48 H152       -2.6710   -1.6030    3.5870 hn        1 FRV      0.407800
@<TRIPOS>BOND
     1    1   12 ar  
     2    1   23 ar  
     3    1   32 1   
     4    2    3 1   
     5    2    4 1   
     6    2    9 1   
     7    3    6 1   
     8    3   27 1   
     9    3   40 1   
    10    4    5 1   
    11    4   26 2   
    12    5   41 1   
    13    5   42 1   
    14    5   43 1   
    15    6   27 1   
    16    6   44 1   
    17    6   45 1   
    18    7    8 ar  
    19    7   11 ar  
    20    7   28 1   
    21    8    9 1   
    22    8   14 ar  
    23    9   10 2   
    24   10   26 1   
    25   10   39 1   
    26   11   25 ar  
    27   11   30 1   
    28   12   16 ar  
    29   12   24 1   
    30   13   14 ar  
    31   13   24 1   
    32   13   25 ar  
    33   15   22 1   
    34   15   36 1   
    35   15   37 1   
    36   15   38 1   
    37   16   17 ar  
    38   16   31 1   
    39   17   18 ar  
    40   17   33 1   
    41   18   20 1   
    42   18   23 ar  
    43   19   20 1   
    44   20   21 1   
    45   22   35 1   
    46   22   48 1   
    47   23   34 1   
    48   24   29 1   
    49   27   46 1   
    50   27   47 1   
@<TRIPOS>SUBSTRUCTURE
     1 FRV         1 TEMP              0 ****  ****    0 ROOT
