@<TRIPOS>MOLECULE
FRV
   47    50     1     0     0
SMALL
bcc


@<TRIPOS>ATOM
      1 C13         3.5980   29.1260    8.6720 ca        1 FRV     -0.191000
      2 N21        -0.8280   29.7790   10.9350 na        1 FRV     -0.134900
      3 C25        -1.1410   28.8870    9.8760 cx        1 FRV     -0.027000
      4 C22        -1.2990   29.5840   12.2580 cc        1 FRV      0.414800
      5 C28        -2.0240   28.3640   12.6980 c3        1 FRV     -0.127400
      6 C26        -0.1220   28.2760    8.9340 cx        1 FRV     -0.126400
      7 C6          0.1660   33.0870    9.6190 ca        1 FRV     -0.395600
      8 C1          0.4850   31.7290    9.8450 ca        1 FRV      0.566800
      9 C20        -0.2120   31.0400   10.9260 cc        1 FRV     -0.298100
     10 C24        -0.3300   31.5490   12.2430 cd        1 FRV      0.329200
     11 C5          0.9060   33.7560    8.6290 ca        1 FRV      0.464200
     12 C8          3.5580   29.9040    7.4930 ca        1 FRV      0.226600
     13 C3          2.1360   31.8360    8.2050 ca        1 FRV      0.881900
     14 N2          1.4580   31.0900    9.1510 nb        1 FRV     -0.742000
     15 C16         3.1750   24.3560    5.9220 c3        1 FRV      0.212100
     16 C9          4.0050   29.3120    6.2810 ca        1 FRV     -0.191000
     17 C10         4.4500   28.0010    6.2650 ca        1 FRV      0.006000
     18 C11         4.4710   27.2200    7.4270 ca        1 FRV     -0.415500
     19 O30         5.5690   25.3270    8.6690 o         1 FRV     -0.655800
     20 S14         5.0370   25.6350    7.3970 sy        1 FRV      1.520200
     21 O29         5.8910   25.4870    6.2810 o         1 FRV     -0.655800
     22 N15         3.6940   24.7590    7.1860 n3        1 FRV     -0.919100
     23 C12         4.0470   27.8130    8.6220 ca        1 FRV      0.006000
     24 N7          3.1810   31.2510    7.4680 nh        1 FRV     -0.731300
     25 N4          1.8760   33.1760    7.9120 nb        1 FRV     -0.741000
     26 N23        -0.9920   30.6460   13.0510 nd        1 FRV     -0.664000
     27 C30        -1.1390   29.2430    8.4050 cx        1 FRV     -0.126400
     28 H6         -0.6220   33.5900   10.1920 ha        1 FRV      0.167000
     29 H7          3.4910   31.7740    6.6730 hn        1 FRV      0.459800
     30 H5          0.7110   34.8190    8.3910 h4        1 FRV      0.034100
     31 H9          4.0100   29.8930    5.3460 ha        1 FRV      0.155500
     32 H13         3.3010   29.5470    9.6450 ha        1 FRV      0.155500
     33 H10         4.8100   27.5610    5.3170 ha        1 FRV      0.154500
     34 H12         4.0970   27.2280    9.5590 ha        1 FRV      0.154500
     35 H15         3.1590   24.4450    7.9600 hn        1 FRV      0.446800
     36 H161        2.2110   24.8890    5.6930 h1        1 FRV      0.041700
     37 H162        3.9180   24.5870    5.1110 h1        1 FRV      0.041700
     38 H163        2.9730   23.2500    5.9120 h1        1 FRV      0.041700
     39 H24         0.0420   32.5020   12.6220 h4        1 FRV      0.046100
     40 H25        -1.9660   28.2080   10.2060 h1        1 FRV      0.095700
     41 H281       -2.1660   28.3840   13.8080 hc        1 FRV      0.061033
     42 H282       -3.0310   28.3190   12.2120 hc        1 FRV      0.061033
     43 H283       -1.4460   27.4460   12.4280 hc        1 FRV      0.061033
     44 H261        0.9410   28.5760    8.9890 hc        1 FRV      0.084700
     45 H262       -0.2310   27.2010    8.7030 hc        1 FRV      0.084700
     46 H301       -1.9790   28.8650    7.7940 hc        1 FRV      0.084700
     47 H302       -0.8180   30.2450    8.0740 hc        1 FRV      0.084700
@<TRIPOS>BOND
     1    1   12 ar  
     2    1   23 ar  
     3    1   32 1   
     4    2    3 1   
     5    2    4 1   
     6    2    9 1   
     7    3    6 1   
     8    3   27 1   
     9    3   40 1   
    10    4    5 1   
    11    4   26 2   
    12    5   41 1   
    13    5   42 1   
    14    5   43 1   
    15    6   27 1   
    16    6   44 1   
    17    6   45 1   
    18    7    8 ar  
    19    7   11 ar  
    20    7   28 1   
    21    8    9 1   
    22    8   14 ar  
    23    9   10 2   
    24   10   26 1   
    25   10   39 1   
    26   11   25 ar  
    27   11   30 1   
    28   12   16 ar  
    29   12   24 1   
    30   13   14 ar  
    31   13   24 1   
    32   13   25 ar  
    33   15   22 1   
    34   15   36 1   
    35   15   37 1   
    36   15   38 1   
    37   16   17 ar  
    38   16   31 1   
    39   17   18 ar  
    40   17   33 1   
    41   18   20 1   
    42   18   23 ar  
    43   19   20 2   
    44   20   21 2   
    45   20   22 1   
    46   22   35 1   
    47   23   34 1   
    48   24   29 1   
    49   27   46 1   
    50   27   47 1   
@<TRIPOS>SUBSTRUCTURE
     1 FRV         1 TEMP              0 ****  ****    0 ROOT
