@<TRIPOS>MOLECULE
FRV
   49    52     1     0     0
SMALL
bcc


@<TRIPOS>ATOM
      1 C13         1.4740    0.9170    0.7030 ca        1 FRV     -0.109000
      2 N21        -2.1930   -1.9730   -5.1510 na        1 FRV     -0.133900
      3 C25        -1.6530   -2.1390   -6.4560 cx        1 FRV     -0.047000
      4 C22        -3.3500   -2.6670   -4.7320 cc        1 FRV      0.484800
      5 C28        -4.2160   -3.4470   -5.6540 c3        1 FRV     -0.147400
      6 C26        -0.3150   -1.6210   -6.9360 cx        1 FRV     -0.121900
      7 C6         -0.3340    0.6470   -4.6630 ca        1 FRV     -0.301600
      8 C1         -0.5270   -0.4920   -3.8350 ca        1 FRV      0.600800
      9 C20        -1.6580   -1.3770   -3.9920 cc        1 FRV     -0.372100
     10 C24        -2.5230   -1.7480   -2.9230 cd        1 FRV      0.381200
     11 C5          0.7200    1.5230   -4.3560 ca        1 FRV      0.465200
     12 C8          1.5350   -0.1940   -0.1570 ca        1 FRV      0.081600
     13 C3          1.2900    0.1930   -2.5830 ca        1 FRV      0.693900
     14 N2          0.3030   -0.7310   -2.7720 nb        1 FRV     -0.693000
     15 C16        -2.8580   -0.3490    4.8200 c3        1 FRV      0.058100
     16 C9          0.9540   -1.4190    0.2150 ca        1 FRV     -0.109000
     17 C10         0.3430   -1.5280    1.4620 ca        1 FRV      0.017000
     18 C11         0.2870   -0.4400    2.3500 ca        1 FRV     -0.460500
     19 O30         0.0970    0.3950    4.7170 o         1 FRV     -0.537300
     20 S14        -0.2850   -0.6320    3.8840 sy        1 FRV      1.457200
     21 O29        -0.3550   -1.9550    4.2550 o         1 FRV     -0.537300
     22 N15        -2.0950   -0.2210    3.5630 n4        1 FRV     -0.704900
     23 C12         0.8550    0.7810    1.9430 ca        1 FRV      0.017000
     24 N7          2.2370   -0.0800   -1.4420 n4        1 FRV     -0.631100
     25 N4          1.5510    1.3250   -3.3070 nb        1 FRV     -0.672000
     26 N23        -3.5590   -2.5190   -3.3870 nd        1 FRV     -0.661000
     27 C30        -1.5770   -1.0260   -7.4860 cx        1 FRV     -0.121900
     28 H6         -1.0080    0.8450   -5.5110 ha        1 FRV      0.204000
     29 H7          2.9320    0.6840   -1.3950 hn        1 FRV      0.491800
     30 H5          0.9230    2.4360   -4.9550 h4        1 FRV      0.084100
     31 H9          0.9680   -2.2970   -0.4610 ha        1 FRV      0.200000
     32 H13         1.9140    1.8940    0.4250 ha        1 FRV      0.200000
     33 H10        -0.0800   -2.5100    1.7610 ha        1 FRV      0.196500
     34 H12         0.8430    1.6530    2.6300 ha        1 FRV      0.196500
     35 H15        -2.2080    0.7300    3.2120 hn        1 FRV      0.455800
     36 H161       -2.7740   -1.4060    5.2020 hx        1 FRV      0.123367
     37 H162       -2.4440    0.3710    5.5820 hx        1 FRV      0.123367
     38 H163       -3.9460   -0.1120    4.6580 hx        1 FRV      0.123367
     39 H24        -2.4380   -1.4620   -1.8760 h4        1 FRV      0.029100
     40 H25        -1.9490   -3.1490   -6.8430 h1        1 FRV      0.121700
     41 H281       -4.4630   -2.8450   -6.5650 hc        1 FRV      0.083033
     42 H282       -3.6890   -4.3840   -5.9680 hc        1 FRV      0.083033
     43 H283       -5.1700   -3.7290   -5.1400 hc        1 FRV      0.083033
     44 H261        0.2880   -2.2970   -7.5720 hc        1 FRV      0.089200
     45 H262        0.3260   -1.0180   -6.2720 hc        1 FRV      0.089200
     46 H301       -1.8600    0.0050   -7.2120 hc        1 FRV      0.089200
     47 H302       -1.8840   -1.2660   -8.5220 hc        1 FRV      0.089200
     48 H152       -2.5070   -0.8470    2.8710 hn        1 FRV      0.455800
     49 H72         2.7250   -0.9680   -1.6460 hn        1 FRV      0.491800
@<TRIPOS>BOND
     1    1   12 ar  
     2    1   23 ar  
     3    1   32 1   
     4    2    3 1   
     5    2    4 1   
     6    2    9 1   
     7    3    6 1   
     8    3   27 1   
     9    3   40 1   
    10    4    5 1   
    11    4   26 2   
    12    5   41 1   
    13    5   42 1   
    14    5   43 1   
    15    6   27 1   
    16    6   44 1   
    17    6   45 1   
    18    7    8 ar  
    19    7   11 ar  
    20    7   28 1   
    21    8    9 1   
    22    8   14 ar  
    23    9   10 2   
    24   10   26 1   
    25   10   39 1   
    26   11   25 ar  
    27   11   30 1   
    28   12   16 ar  
    29   12   24 1   
    30   13   14 ar  
    31   13   24 1   
    32   13   25 ar  
    33   15   22 1   
    34   15   36 1   
    35   15   37 1   
    36   15   38 1   
    37   16   17 ar  
    38   16   31 1   
    39   17   18 ar  
    40   17   33 1   
    41   18   20 1   
    42   18   23 ar  
    43   19   20 2   
    44   20   21 2   
    45   20   22 1   
    46   22   35 1   
    47   22   48 1   
    48   23   34 1   
    49   24   29 1   
    50   24   49 1   
    51   27   46 1   
    52   27   47 1   
@<TRIPOS>SUBSTRUCTURE
     1 FRV         1 TEMP              0 ****  ****    0 ROOT
