@<TRIPOS>MOLECULE
FRW
   65    66     1     0     0
SMALL
bcc


@<TRIPOS>ATOM
      1 O6         -9.5060    0.0610    1.7770 o         1 FRW     -0.820300
      2 C4         -8.4770    0.7430    2.0340 c         1 FRW      0.905200
      3 O5         -8.4770    1.8410    2.6560 o         1 FRW     -0.820300
      4 C3         -7.1330    0.2040    1.5530 ca        1 FRW     -0.091600
      5 C2         -7.0610   -1.0100    0.8630 ca        1 FRW     -0.121000
      6 C1         -5.8360   -1.4970    0.4140 ca        1 FRW     -0.114500
      7 C7         -5.9560    0.9210    1.8000 ca        1 FRW     -0.121000
      8 C8         -4.7280    0.4450    1.3510 ca        1 FRW     -0.114500
      9 C9         -4.6630   -0.7640    0.6450 ca        1 FRW     -0.185600
     10 C10        -3.3880   -1.3140    0.1330 c         1 FRW      0.694700
     11 O11        -3.1540   -2.5400    0.0490 o         1 FRW     -0.646100
     12 N12        -2.4280   -0.4060   -0.3030 n         1 FRW     -0.575900
     13 C13        -1.1690   -0.8150   -0.8480 c3        1 FRW      0.060700
     14 C14        -0.7480   -0.0670   -2.1360 c3        1 FRW     -0.065700
     15 C15        -1.4770   -0.6510   -3.3280 c3        1 FRW     -0.099600
     16 C16        -0.9650    1.4290   -2.0670 c3        1 FRW     -0.099600
     17 C17        -0.0370   -0.6200    0.1990 c         1 FRW      0.642100
     18 O18         0.3380    0.5270    0.5280 o         1 FRW     -0.641100
     19 N19         0.6050   -1.7310    0.7160 n         1 FRW     -0.456800
     20 C23         0.0370   -3.0710    0.6830 c3        1 FRW      0.070000
     21 C22         0.5970   -3.8530    1.8820 c3        1 FRW     -0.089400
     22 C21         1.5770   -2.9240    2.5880 c3        1 FRW     -0.086400
     23 C20         1.5880   -1.6050    1.7880 c3        1 FRW      0.033700
     24 C24         2.9980   -1.3180    1.2180 c         1 FRW      0.661100
     25 O25         3.9090   -2.1660    1.2190 o         1 FRW     -0.611100
     26 N26         3.1970   -0.0420    0.7280 n         1 FRW     -0.566900
     27 C27         4.3840    0.3350    0.0120 c3        1 FRW      0.031700
     28 C28         4.0920    0.8620   -1.4180 c3        1 FRW     -0.074700
     29 C29         3.0880    1.9940   -1.4280 c3        1 FRW     -0.109600
     30 C30         5.3850    1.2740   -2.0870 c3        1 FRW     -0.109600
     31 C31         5.1660    1.3970    0.7840 c         1 FRW      0.538100
     32 O32         4.6940    2.3960    1.3080 o         1 FRW     -0.446100
     33 C33         6.7180    1.1730    0.9180 c3        1 FRW      0.523900
     34 F36         7.4520    2.2440    0.4730 f         1 FRW     -0.230967
     35 F34         7.1200    0.9780    2.2130 f         1 FRW     -0.230967
     36 F35         7.2260    0.1020    0.2300 f         1 FRW     -0.230967
     37 H2         -7.9960   -1.5650    0.6860 ha        1 FRW      0.160000
     38 H1         -5.7730   -2.4570   -0.1190 ha        1 FRW      0.120500
     39 H7         -6.0320    1.8680    2.3600 ha        1 FRW      0.160000
     40 H8         -3.8150    1.0170    1.5740 ha        1 FRW      0.120500
     41 HN12       -2.5920    0.5690   -0.2090 hn        1 FRW      0.327500
     42 H13        -1.2490   -1.9150   -1.1180 h1        1 FRW      0.098700
     43 H14         0.3570   -0.2560   -2.2610 hc        1 FRW      0.047700
     44 H15        -1.1710   -0.1180   -4.2600 hc        1 FRW      0.042700
     45 H15A       -1.2380   -1.7360   -3.4450 hc        1 FRW      0.042700
     46 H15B       -2.5820   -0.5440   -3.2050 hc        1 FRW      0.042700
     47 H16        -0.5550    1.8400   -1.1110 hc        1 FRW      0.042700
     48 H16A       -0.4410    1.9240   -2.9210 hc        1 FRW      0.042700
     49 H16B       -2.0500    1.6830   -2.1360 hc        1 FRW      0.042700
     50 H23        -1.0900   -3.0340    0.7260 h1        1 FRW      0.072700
     51 H23A        0.3390   -3.5640   -0.2820 h1        1 FRW      0.072700
     52 H22        -0.2340   -4.1540    2.5660 hc        1 FRW      0.057200
     53 H22A        1.1090   -4.7820    1.5300 hc        1 FRW      0.057200
     54 H21         1.2490   -2.7180    3.6360 hc        1 FRW      0.069700
     55 H21A        2.6010   -3.3750    2.6240 hc        1 FRW      0.069700
     56 H20         1.3070   -0.7410    2.4610 h1        1 FRW      0.085700
     57 HN26        2.4390    0.6090    0.7270 hn        1 FRW      0.354500
     58 H27         5.0460   -0.5840   -0.0870 h1        1 FRW      0.114700
     59 H28         3.6570   -0.0040   -1.9950 hc        1 FRW      0.067700
     60 H29         3.3570    2.7710   -0.6700 hc        1 FRW      0.047200
     61 H29A        3.0680    2.4750   -2.4360 hc        1 FRW      0.047200
     62 H29B        2.0570    1.6220   -1.2020 hc        1 FRW      0.047200
     63 H30         6.1250    0.4370   -2.0620 hc        1 FRW      0.047200
     64 H30A        5.1920    1.5490   -3.1520 hc        1 FRW      0.047200
     65 H30B        5.8370    2.1570   -1.5710 hc        1 FRW      0.047200
@<TRIPOS>BOND
     1    1    2 1   
     2    2    3 1   
     3    2    4 1   
     4    4    5 ar  
     5    4    7 ar  
     6    5    6 ar  
     7    5   37 1   
     8    6    9 ar  
     9    6   38 1   
    10    7    8 ar  
    11    7   39 1   
    12    8    9 ar  
    13    8   40 1   
    14    9   10 1   
    15   10   11 2   
    16   10   12 1   
    17   12   13 1   
    18   12   41 1   
    19   13   14 1   
    20   13   17 1   
    21   13   42 1   
    22   14   15 1   
    23   14   16 1   
    24   14   43 1   
    25   15   44 1   
    26   15   45 1   
    27   15   46 1   
    28   16   47 1   
    29   16   48 1   
    30   16   49 1   
    31   17   18 2   
    32   17   19 1   
    33   19   20 1   
    34   19   23 1   
    35   20   21 1   
    36   20   50 1   
    37   20   51 1   
    38   21   22 1   
    39   21   52 1   
    40   21   53 1   
    41   22   23 1   
    42   22   54 1   
    43   22   55 1   
    44   23   24 1   
    45   23   56 1   
    46   24   25 2   
    47   24   26 1   
    48   26   27 1   
    49   26   57 1   
    50   27   28 1   
    51   27   31 1   
    52   27   58 1   
    53   28   29 1   
    54   28   30 1   
    55   28   59 1   
    56   29   60 1   
    57   29   61 1   
    58   29   62 1   
    59   30   63 1   
    60   30   64 1   
    61   30   65 1   
    62   31   32 2   
    63   31   33 1   
    64   33   34 1   
    65   33   35 1   
    66   33   36 1   
@<TRIPOS>SUBSTRUCTURE
     1 FRW         1 TEMP              0 ****  ****    0 ROOT
