@<TRIPOS>MOLECULE
FRW
   67    68     1     0     0
SMALL
bcc


@<TRIPOS>ATOM
      1 O6          7.9950   -2.6250   -3.4050 o         1 FRW     -0.826800
      2 C4          7.5230   -1.7380   -2.6230 c         1 FRW      0.900200
      3 O5          8.2680   -1.1460   -1.7860 o         1 FRW     -0.826800
      4 C3          6.1540   -1.1900   -2.9260 ca        1 FRW     -0.079600
      5 C2          5.3690   -1.7920   -3.9180 ca        1 FRW     -0.095500
      6 C1          4.4310   -1.0320   -4.6120 ca        1 FRW     -0.088500
      7 C7          5.8140    0.0810   -2.4400 ca        1 FRW     -0.095500
      8 C8          4.8990    0.8580   -3.1410 ca        1 FRW     -0.088500
      9 C9          4.3090    0.3330   -4.3040 ca        1 FRW     -0.218600
     10 C10         3.7070    1.2140   -5.2990 c         1 FRW      0.591700
     11 O11         2.6360    1.2070   -5.8770 o         1 FRW     -0.407100
     12 N12         4.6660    2.3350   -5.7460 ny        1 FRW     -0.689800
     13 C13         5.6890    1.8700   -6.7450 c3        1 FRW      0.065500
     14 C14         6.1790    3.0220   -7.6490 c3        1 FRW     -0.082700
     15 C15         5.1120    3.4130   -8.6490 c3        1 FRW     -0.120600
     16 C16         6.6460    4.2210   -6.8530 c3        1 FRW     -0.120600
     17 C17         6.9060    1.2500   -6.0100 c         1 FRW      0.662100
     18 O18         7.2300    1.6980   -4.8920 o         1 FRW     -0.590100
     19 N19         7.5980    0.2180   -6.5950 n         1 FRW     -0.451800
     20 C23         7.4780   -0.2150   -7.9780 c3        1 FRW      0.088000
     21 C22         8.2870   -1.5130   -8.1310 c3        1 FRW     -0.088400
     22 C21         8.8440   -1.8530   -6.7540 c3        1 FRW     -0.089400
     23 C20         8.3830   -0.7200   -5.8040 c3        1 FRW      0.034700
     24 C24         9.6140   -0.1110   -5.1220 c         1 FRW      0.540100
     25 O25        10.2340    0.8880   -5.4570 o         1 FRW     -0.431100
     26 N26        10.0720   -0.8740   -3.9210 ny        1 FRW     -0.696800
     27 C27        11.5450   -0.8440   -3.6610 c3        1 FRW      0.041500
     28 C28        11.8390   -1.4370   -2.2550 c3        1 FRW     -0.064700
     29 C29        11.2690   -2.8300   -2.0990 c3        1 FRW     -0.126600
     30 C30        13.3260   -1.4090   -1.9870 c3        1 FRW     -0.126600
     31 C31        12.3050   -1.5950   -4.7440 c         1 FRW      0.515100
     32 O32        11.8690   -2.5840   -5.3210 o         1 FRW     -0.432100
     33 C33        13.7010   -1.0190   -5.1700 c3        1 FRW      0.560900
     34 F36        13.7510   -0.7670   -6.5150 f         1 FRW     -0.207633
     35 F34        14.0360    0.1650   -4.5710 f         1 FRW     -0.207633
     36 F35        14.7340   -1.8750   -4.9080 f         1 FRW     -0.207633
     37 H2          5.5550   -2.8490   -4.1810 ha        1 FRW      0.188000
     38 H1          3.8360   -1.4760   -5.4250 ha        1 FRW      0.149500
     39 H7          6.3400    0.4720   -1.5520 ha        1 FRW      0.188000
     40 H8          4.6730    1.8810   -2.8040 ha        1 FRW      0.149500
     41 HN12        4.1260    3.0960   -6.1770 hn        1 FRW      0.467300
     42 H13         5.1780    1.0930   -7.3900 hx        1 FRW      0.117700
     43 H14         7.0610    2.6040   -8.2180 hc        1 FRW      0.094700
     44 H15         4.2380    3.9020   -8.1550 hc        1 FRW      0.061367
     45 H15A        4.7500    2.5230   -9.2190 hc        1 FRW      0.061367
     46 H15B        5.5410    4.1440   -9.3790 hc        1 FRW      0.061367
     47 H16         7.2380    4.9000   -7.5160 hc        1 FRW      0.061367
     48 H16A        7.3000    3.9050   -6.0020 hc        1 FRW      0.061367
     49 H16B        5.7850    4.8090   -6.4530 hc        1 FRW      0.061367
     50 H23         7.8810    0.5880   -8.6560 h1        1 FRW      0.058700
     51 H23A        6.3980   -0.3950   -8.2370 h1        1 FRW      0.058700
     52 H22         9.1130   -1.3670   -8.8710 hc        1 FRW      0.082200
     53 H22A        7.6300   -2.3370   -8.5080 hc        1 FRW      0.082200
     54 H21         9.9600   -1.9350   -6.7800 hc        1 FRW      0.093200
     55 H21A        8.4400   -2.8270   -6.3730 hc        1 FRW      0.093200
     56 H20         7.7070   -1.1520   -4.9930 h1        1 FRW      0.140700
     57 HN26        9.5860   -0.4980   -3.0650 hn        1 FRW      0.520300
     58 H27        11.8730    0.2420   -3.6730 hx        1 FRW      0.136700
     59 H28        11.3320   -0.7610   -1.5030 hc        1 FRW      0.092700
     60 H29        11.5330   -3.4740   -2.9730 hc        1 FRW      0.066033
     61 H29A       11.6890   -3.3030   -1.1770 hc        1 FRW      0.066033
     62 H29B       10.1520   -2.8020   -1.9870 hc        1 FRW      0.066033
     63 H30        13.5150   -1.6940   -0.9220 hc        1 FRW      0.066033
     64 H30A       13.8680   -2.1340   -2.6430 hc        1 FRW      0.066033
     65 H30B       13.7470   -0.3870   -2.1580 hc        1 FRW      0.066033
     66 H122        5.1670    2.6980   -4.9200 hn        1 FRW      0.467300
     67 H262        9.7450   -1.8730   -3.9820 hn        1 FRW      0.520300
@<TRIPOS>BOND
     1    1    2 1   
     2    2    3 1   
     3    2    4 1   
     4    4    5 ar  
     5    4    7 ar  
     6    5    6 ar  
     7    5   37 1   
     8    6    9 ar  
     9    6   38 1   
    10    7    8 ar  
    11    7   39 1   
    12    8    9 ar  
    13    8   40 1   
    14    9   10 1   
    15   10   11 2   
    16   10   12 1   
    17   12   13 1   
    18   12   41 1   
    19   12   66 1   
    20   13   14 1   
    21   13   17 1   
    22   13   42 1   
    23   14   15 1   
    24   14   16 1   
    25   14   43 1   
    26   15   44 1   
    27   15   45 1   
    28   15   46 1   
    29   16   47 1   
    30   16   48 1   
    31   16   49 1   
    32   17   18 2   
    33   17   19 1   
    34   19   20 1   
    35   19   23 1   
    36   20   21 1   
    37   20   50 1   
    38   20   51 1   
    39   21   22 1   
    40   21   52 1   
    41   21   53 1   
    42   22   23 1   
    43   22   54 1   
    44   22   55 1   
    45   23   24 1   
    46   23   56 1   
    47   24   25 2   
    48   24   26 1   
    49   26   27 1   
    50   26   57 1   
    51   26   67 1   
    52   27   28 1   
    53   27   31 1   
    54   27   58 1   
    55   28   29 1   
    56   28   30 1   
    57   28   59 1   
    58   29   60 1   
    59   29   61 1   
    60   29   62 1   
    61   30   63 1   
    62   30   64 1   
    63   30   65 1   
    64   31   32 2   
    65   31   33 1   
    66   33   34 1   
    67   33   35 1   
    68   33   36 1   
@<TRIPOS>SUBSTRUCTURE
     1 FRW         1 TEMP              0 ****  ****    0 ROOT
