@<TRIPOS>MOLECULE
FRW
   67    68     1     0     0
SMALL
bcc


@<TRIPOS>ATOM
      1 O6          8.4170   -3.1810   -2.8570 oh        1 FRW     -0.619100
      2 C4          7.0770   -3.4240   -2.7880 c         1 FRW      0.631700
      3 O5          6.6980   -4.5620   -2.5210 o         1 FRW     -0.486000
      4 C3          6.2770   -2.2220   -3.1050 ca        1 FRW     -0.060600
      5 C2          5.1390   -2.3330   -3.9120 ca        1 FRW     -0.082000
      6 C1          4.5070   -1.1790   -4.3720 ca        1 FRW     -0.066500
      7 C7          6.7090   -0.9700   -2.6520 ca        1 FRW     -0.082000
      8 C8          6.0790    0.1850   -3.1070 ca        1 FRW     -0.066500
      9 C9          5.0240    0.0810   -4.0250 ca        1 FRW     -0.182600
     10 C10         4.4570    1.2560   -4.6910 c         1 FRW      0.575700
     11 O11         3.3000    1.4920   -5.0020 o         1 FRW     -0.411100
     12 N12         5.4550    2.3260   -5.1090 n4        1 FRW     -0.677800
     13 C13         6.1470    2.0080   -6.4090 c3        1 FRW      0.057500
     14 C14         6.7640    3.2700   -7.0460 c3        1 FRW     -0.083700
     15 C15         5.6880    4.1440   -7.6530 c3        1 FRW     -0.121100
     16 C16         7.6210    4.0530   -6.0760 c3        1 FRW     -0.121100
     17 C17         7.2680    0.9640   -6.1530 c         1 FRW      0.652100
     18 O18         7.8930    1.0240   -5.0710 o         1 FRW     -0.614100
     19 N19         7.4530   -0.0280   -7.0730 n         1 FRW     -0.427800
     20 C23         7.0000    0.0390   -8.4560 c3        1 FRW      0.080000
     21 C22         7.7500   -1.0460   -9.2460 c3        1 FRW     -0.086400
     22 C21         8.7640   -1.6590   -8.2870 c3        1 FRW     -0.087400
     23 C20         8.4200   -1.1120   -6.8840 c3        1 FRW      0.032700
     24 C24         9.7180   -0.6850   -6.1660 c         1 FRW      0.663100
     25 O25        10.4710    0.1650   -6.6730 o         1 FRW     -0.581100
     26 N26        10.0170   -1.3530   -4.9990 n         1 FRW     -0.551900
     27 C27        11.2190   -1.0700   -4.2460 c3        1 FRW      0.020700
     28 C28        11.0100   -0.0290   -3.1120 c3        1 FRW     -0.079700
     29 C29        10.5710   -0.6850   -1.8230 c3        1 FRW     -0.109600
     30 C30        12.2760    0.7760   -2.9070 c3        1 FRW     -0.109600
     31 C31        11.7640   -2.3680   -3.6510 c         1 FRW      0.544100
     32 O32        11.0780   -3.3090   -3.2710 o         1 FRW     -0.471100
     33 C33        13.3240   -2.4870   -3.5260 c3        1 FRW      0.540900
     34 F36        13.7730   -2.2210   -2.2580 f         1 FRW     -0.216967
     35 F34        13.7830   -3.7420   -3.8220 f         1 FRW     -0.216967
     36 F35        14.0300   -1.6460   -4.3440 f         1 FRW     -0.216967
     37 H2          4.7550   -3.3310   -4.1900 ha        1 FRW      0.183500
     38 H1          3.6180   -1.2550   -5.0210 ha        1 FRW      0.159500
     39 H7          7.5720   -0.9000   -1.9660 ha        1 FRW      0.183500
     40 H8          6.4440    1.1600   -2.7490 ha        1 FRW      0.159500
     41 HN12        6.1860    2.4280   -4.3870 hn        1 FRW      0.470800
     42 H13         5.3560    1.5920   -7.1030 hx        1 FRW      0.118700
     43 H14         7.4290    2.8940   -7.8790 hc        1 FRW      0.103700
     44 H15         5.0360    4.6030   -6.8710 hc        1 FRW      0.061200
     45 H15A        5.0470    3.5620   -8.3590 hc        1 FRW      0.061200
     46 H15B        6.1680    4.9780   -8.2250 hc        1 FRW      0.061200
     47 H16         8.3060    3.3740   -5.5100 hc        1 FRW      0.061200
     48 H16A        6.9980    4.6350   -5.3540 hc        1 FRW      0.061200
     49 H16B        8.2490    4.7850   -6.6440 hc        1 FRW      0.061200
     50 H23         7.2070    1.0560   -8.8910 h1        1 FRW      0.053700
     51 H23A        5.8900   -0.1450   -8.4870 h1        1 FRW      0.053700
     52 H22         8.2600   -0.5950  -10.1330 hc        1 FRW      0.076200
     53 H22A        7.0300   -1.8170   -9.6160 hc        1 FRW      0.076200
     54 H21         8.7030   -2.7750   -8.2860 hc        1 FRW      0.086200
     55 H21A        9.8060   -1.3640   -8.5740 hc        1 FRW      0.086200
     56 H20         7.8840   -1.9110   -6.2900 h1        1 FRW      0.072700
     57 HN26        8.9260   -3.9890   -2.6550 ho        1 FRW      0.482000
     58 H27        11.9860   -0.6500   -4.9700 h1        1 FRW      0.126700
     59 H28        10.2000    0.6810   -3.4500 hc        1 FRW      0.070700
     60 H29         9.7380   -1.4090   -2.0110 hc        1 FRW      0.049367
     61 H29A       10.2220    0.0890   -1.0970 hc        1 FRW      0.049367
     62 H29B       11.4210   -1.2420   -1.3540 hc        1 FRW      0.049367
     63 H30        12.5230    1.3600   -3.8260 hc        1 FRW      0.049367
     64 H30A       13.1400    0.1070   -2.6700 hc        1 FRW      0.049367
     65 H30B       12.1390    1.4880   -2.0580 hc        1 FRW      0.049367
     66 H122        4.9650    3.2240   -5.2250 hn        1 FRW      0.470800
     67 H262        9.3140   -1.8780   -4.5260 hn        1 FRW      0.332500
@<TRIPOS>BOND
     1    1    2 1   
     2    1   57 1   
     3    2    3 2   
     4    2    4 1   
     5    4    5 ar  
     6    4    7 ar  
     7    5    6 ar  
     8    5   37 1   
     9    6    9 ar  
    10    6   38 1   
    11    7    8 ar  
    12    7   39 1   
    13    8    9 ar  
    14    8   40 1   
    15    9   10 1   
    16   10   11 2   
    17   10   12 1   
    18   12   13 1   
    19   12   41 1   
    20   12   66 1   
    21   13   14 1   
    22   13   17 1   
    23   13   42 1   
    24   14   15 1   
    25   14   16 1   
    26   14   43 1   
    27   15   44 1   
    28   15   45 1   
    29   15   46 1   
    30   16   47 1   
    31   16   48 1   
    32   16   49 1   
    33   17   18 2   
    34   17   19 1   
    35   19   20 1   
    36   19   23 1   
    37   20   21 1   
    38   20   50 1   
    39   20   51 1   
    40   21   22 1   
    41   21   52 1   
    42   21   53 1   
    43   22   23 1   
    44   22   54 1   
    45   22   55 1   
    46   23   24 1   
    47   23   56 1   
    48   24   25 2   
    49   24   26 1   
    50   26   27 1   
    51   26   67 1   
    52   27   28 1   
    53   27   31 1   
    54   27   58 1   
    55   28   29 1   
    56   28   30 1   
    57   28   59 1   
    58   29   60 1   
    59   29   61 1   
    60   29   62 1   
    61   30   63 1   
    62   30   64 1   
    63   30   65 1   
    64   31   32 2   
    65   31   33 1   
    66   33   34 1   
    67   33   35 1   
    68   33   36 1   
@<TRIPOS>SUBSTRUCTURE
     1 FRW         1 TEMP              0 ****  ****    0 ROOT
