@<TRIPOS>MOLECULE
FRW
   67    68     1     0     0
SMALL
bcc


@<TRIPOS>ATOM
      1 O6          7.9580   -2.5300   -3.2730 o         1 FRW     -0.826800
      2 C4          7.4570   -1.6060   -2.5560 c         1 FRW      0.900200
      3 O5          8.1720   -0.9640   -1.7300 o         1 FRW     -0.826800
      4 C3          6.0960   -1.0860   -2.9300 ca        1 FRW     -0.079600
      5 C2          5.3450   -1.7480   -3.9110 ca        1 FRW     -0.095500
      6 C1          4.4240   -1.0340   -4.6740 ca        1 FRW     -0.088500
      7 C7          5.7320    0.2060   -2.5250 ca        1 FRW     -0.095500
      8 C8          4.8350    0.9370   -3.2950 ca        1 FRW     -0.088500
      9 C9          4.2840    0.3450   -4.4450 ca        1 FRW     -0.218600
     10 C10         3.7080    1.1650   -5.5040 c         1 FRW      0.591700
     11 O11         2.6550    1.1190   -6.1140 o         1 FRW     -0.407100
     12 N12         4.6730    2.2680   -5.9840 n4        1 FRW     -0.689800
     13 C13         5.7300    1.7570   -6.9240 c3        1 FRW      0.065500
     14 C14         6.2390    2.8610   -7.8740 c3        1 FRW     -0.082700
     15 C15         5.2020    3.1880   -8.9270 c3        1 FRW     -0.120600
     16 C16         6.6740    4.1060   -7.1320 c3        1 FRW     -0.120600
     17 C17         6.9270    1.1870   -6.1190 c         1 FRW      0.662100
     18 O18         7.2140    1.6990   -5.0180 o         1 FRW     -0.590100
     19 N19         7.6440    0.1310   -6.6240 n         1 FRW     -0.451800
     20 C23         7.5690   -0.3780   -7.9850 c3        1 FRW      0.088000
     21 C22         8.3900   -1.6760   -8.0410 c3        1 FRW     -0.088400
     22 C21         8.9060   -1.9350   -6.6310 c3        1 FRW     -0.089400
     23 C20         8.4090   -0.7560   -5.7600 c3        1 FRW      0.034700
     24 C24         9.6140   -0.1010   -5.0740 c         1 FRW      0.540100
     25 O25        10.2380    0.8830   -5.4440 o         1 FRW     -0.431100
     26 N26        10.0400   -0.7940   -3.8210 n4        1 FRW     -0.696800
     27 C27        11.5040   -0.7380   -3.5180 c3        1 FRW      0.041500
     28 C28        11.7580   -1.2520   -2.0730 c3        1 FRW     -0.064700
     29 C29        11.1920   -2.6390   -1.8590 c3        1 FRW     -0.126600
     30 C30        13.2360   -1.1980   -1.7620 c3        1 FRW     -0.126600
     31 C31        12.3020   -1.5410   -4.5350 c         1 FRW      0.515100
     32 O32        11.8900   -2.5630   -5.0700 o         1 FRW     -0.432100
     33 C33        13.7070   -0.9780   -4.9480 c3        1 FRW      0.560900
     34 F36        14.7360   -1.8100   -4.6090 f         1 FRW     -0.207633
     35 F34        13.7960   -0.7990   -6.3030 f         1 FRW     -0.207633
     36 F35        14.0150    0.2400   -4.4050 f         1 FRW     -0.207633
     37 H2          5.5450   -2.8150   -4.1090 ha        1 FRW      0.188000
     38 H1          3.8570   -1.5270   -5.4790 ha        1 FRW      0.149500
     39 H7          6.2290    0.6500   -1.6440 ha        1 FRW      0.188000
     40 H8          4.5920    1.9750   -3.0220 ha        1 FRW      0.149500
     41 HN12        4.1420    3.0000   -6.4710 hn        1 FRW      0.467300
     42 H13         5.2440    0.9410   -7.5400 hx        1 FRW      0.117700
     43 H14         7.1420    2.4200   -8.3920 hc        1 FRW      0.094700
     44 H15         5.6480    3.8820   -9.6820 hc        1 FRW      0.061367
     45 H15A        4.3100    3.6970   -8.4870 hc        1 FRW      0.061367
     46 H15B        4.8630    2.2650   -9.4570 hc        1 FRW      0.061367
     47 H16         7.3030    3.8430   -6.2450 hc        1 FRW      0.061367
     48 H16A        5.7980    4.7080   -6.7910 hc        1 FRW      0.061367
     49 H16B        7.2830    4.7520   -7.8130 hc        1 FRW      0.061367
     50 H23         7.9880    0.3900   -8.6930 h1        1 FRW      0.058700
     51 H23A        6.4990   -0.5800   -8.2670 h1        1 FRW      0.058700
     52 H22         9.2380   -1.5640   -8.7630 hc        1 FRW      0.082200
     53 H22A        7.7510   -2.5240   -8.3930 hc        1 FRW      0.082200
     54 H21        10.0230   -2.0110   -6.6180 hc        1 FRW      0.093200
     55 H21A        8.4960   -2.8900   -6.2100 hc        1 FRW      0.093200
     56 H20         7.7100   -1.1480   -4.9470 h1        1 FRW      0.140700
     57 HN26        9.7220   -1.7980   -3.8370 hn        1 FRW      0.520300
     58 H27        11.8250    0.3480   -3.5790 hx        1 FRW      0.136700
     59 H28        11.2240   -0.5400   -1.3750 hc        1 FRW      0.092700
     60 H29        11.5860   -3.0580   -0.9000 hc        1 FRW      0.066033
     61 H29A       11.4870   -3.3280   -2.6880 hc        1 FRW      0.066033
     62 H29B       10.0720   -2.6140   -1.7830 hc        1 FRW      0.066033
     63 H30        13.8020   -1.9530   -2.3610 hc        1 FRW      0.066033
     64 H30A       13.3940   -1.4240   -0.6780 hc        1 FRW      0.066033
     65 H30B       13.6560   -0.1840   -1.9760 hc        1 FRW      0.066033
     66 H122        5.1460    2.6800   -5.1630 hn        1 FRW      0.467300
     67 H262        9.5260   -0.3760   -3.0010 hn        1 FRW      0.520300
@<TRIPOS>BOND
     1    1    2 1   
     2    2    3 1   
     3    2    4 1   
     4    4    5 ar  
     5    4    7 ar  
     6    5    6 ar  
     7    5   37 1   
     8    6    9 ar  
     9    6   38 1   
    10    7    8 ar  
    11    7   39 1   
    12    8    9 ar  
    13    8   40 1   
    14    9   10 1   
    15   10   11 2   
    16   10   12 1   
    17   12   13 1   
    18   12   41 1   
    19   12   66 1   
    20   13   14 1   
    21   13   17 1   
    22   13   42 1   
    23   14   15 1   
    24   14   16 1   
    25   14   43 1   
    26   15   44 1   
    27   15   45 1   
    28   15   46 1   
    29   16   47 1   
    30   16   48 1   
    31   16   49 1   
    32   17   18 2   
    33   17   19 1   
    34   19   20 1   
    35   19   23 1   
    36   20   21 1   
    37   20   50 1   
    38   20   51 1   
    39   21   22 1   
    40   21   52 1   
    41   21   53 1   
    42   22   23 1   
    43   22   54 1   
    44   22   55 1   
    45   23   24 1   
    46   23   56 1   
    47   24   25 2   
    48   24   26 1   
    49   26   27 1   
    50   26   57 1   
    51   26   67 1   
    52   27   28 1   
    53   27   31 1   
    54   27   58 1   
    55   28   29 1   
    56   28   30 1   
    57   28   59 1   
    58   29   60 1   
    59   29   61 1   
    60   29   62 1   
    61   30   63 1   
    62   30   64 1   
    63   30   65 1   
    64   31   32 2   
    65   31   33 1   
    66   33   34 1   
    67   33   35 1   
    68   33   36 1   
@<TRIPOS>SUBSTRUCTURE
     1 FRW         1 TEMP              0 ****  ****    0 ROOT
