@<TRIPOS>MOLECULE
FRX
   51    54     1     0     0
SMALL
bcc


@<TRIPOS>ATOM
      1 O26        -0.4090   -1.0230    0.4560 o         1 FRX     -0.387100
      2 C22         0.7690   -0.7120    0.4270 c         1 FRX      0.509100
      3 N22         1.4610   -0.6030    1.7680 n4        1 FRX     -0.670800
      4 C24         1.2020    0.7120    2.4320 c3        1 FRX      0.077800
      5 C25         1.8970    1.8880    1.7280 c3        1 FRX      0.099400
      6 O25         3.2120    1.5050    1.3790 oh        1 FRX     -0.634800
      7 C21         1.6580   -0.4280   -0.7880 c3        1 FRX      0.038000
      8 N17         0.9200   -0.2200   -2.0010 n         1 FRX     -0.341000
      9 C19         0.4750    1.0580   -2.3080 c         1 FRX      0.697500
     10 O19         0.6360    2.0100   -1.5180 o         1 FRX     -0.642500
     11 C17         0.7190   -1.2950   -2.9160 ca        1 FRX      0.018600
     12 C31         0.7390   -2.6360   -2.4900 ca        1 FRX     -0.142000
     13 C30         0.5750   -3.6630   -3.4180 ca        1 FRX     -0.074000
     14 C29         0.3770   -3.3740   -4.7680 ca        1 FRX     -0.100000
     15 C16         0.4910   -1.0030   -4.2820 ca        1 FRX     -0.119300
     16 C28         0.3270   -2.0470   -5.1940 ca        1 FRX     -0.075000
     17 C15         0.4300    0.4100   -4.7420 c3        1 FRX     -0.043100
     18 C13        -0.2480    1.2530   -3.6540 c3        1 FRX      0.053500
     19 N11        -0.3250    2.7040   -4.0110 n4        1 FRX     -0.666800
     20 C11        -1.6150    3.0830   -4.7500 c         1 FRX      0.588700
     21 O13        -2.5990    2.3940   -4.4890 o         1 FRX     -0.475100
     22 C7         -1.4930    4.2010   -5.6230 cc        1 FRX     -0.282900
     23 N8         -2.6240    4.6590   -6.3530 na        1 FRX     -0.095100
     24 C3         -2.2390    5.7330   -7.0970 cc        1 FRX     -0.006400
     25 C4         -0.8080    5.9890   -6.8520 cd        1 FRX     -0.127000
     26 C6         -0.3670    5.0290   -5.9360 cd        1 FRX     -0.032000
     27 C5         -0.3530    7.1080   -7.6140 cd        1 FRX     -0.086000
     28 S2         -2.8770    6.8150   -8.1740 ss        1 FRX      0.128200
     29 C1         -1.3740    7.6370   -8.3640 cc        1 FRX      0.012300
     30 CL         -1.2620    8.9430   -9.3850 cl        1 FRX      0.043600
     31 HN22        1.1230   -1.3530    2.3850 hn        1 FRX      0.473300
     32 H241        1.5810    0.6250    3.4930 hx        1 FRX      0.122200
     33 H242        0.0880    0.8890    2.4530 hx        1 FRX      0.122200
     34 H251        1.8670    2.7740    2.4140 h1        1 FRX      0.097700
     35 H252        1.3700    2.1430    0.7640 h1        1 FRX      0.097700
     36 HO25        3.8390    2.0250    1.8990 ho        1 FRX      0.455000
     37 H211        2.2770    0.4990   -0.5620 h1        1 FRX      0.136700
     38 H212        2.3530   -1.3130   -0.9130 h1        1 FRX      0.136700
     39 H31         0.8660   -2.8920   -1.4280 ha        1 FRX      0.131000
     40 H30         0.5960   -4.7110   -3.0760 ha        1 FRX      0.170000
     41 H29         0.2520   -4.1920   -5.4970 ha        1 FRX      0.175000
     42 H28         0.1550   -1.8200   -6.2600 ha        1 FRX      0.162000
     43 H151        1.4710    0.7840   -4.9470 hc        1 FRX      0.090200
     44 H152       -0.1580    0.4830   -5.6980 hc        1 FRX      0.090200
     45 H13        -1.3160    0.8770   -3.5060 hx        1 FRX      0.172700
     46 HN11       -0.2880    3.2610   -3.1420 hn        1 FRX      0.467800
     47 HN8        -3.5280    4.2540   -6.2980 hn        1 FRX      0.341700
     48 H6          0.6410    4.9370   -5.5360 ha        1 FRX      0.159000
     49 H5          0.6760    7.4800   -7.5890 ha        1 FRX      0.192000
     50 H222        2.4790   -0.6970    1.6380 hn        1 FRX      0.473300
     51 H112        0.4810    2.9560   -4.5920 hn        1 FRX      0.467800
@<TRIPOS>BOND
     1    1    2 2   
     2    2    3 1   
     3    2    7 1   
     4    3    4 1   
     5    3   31 1   
     6    3   50 1   
     7    4    5 1   
     8    4   32 1   
     9    4   33 1   
    10    5    6 1   
    11    5   34 1   
    12    5   35 1   
    13    6   36 1   
    14    7    8 1   
    15    7   37 1   
    16    7   38 1   
    17    8    9 1   
    18    8   11 1   
    19    9   10 2   
    20    9   18 1   
    21   11   12 ar  
    22   11   15 ar  
    23   12   13 ar  
    24   12   39 1   
    25   13   14 ar  
    26   13   40 1   
    27   14   16 ar  
    28   14   41 1   
    29   15   16 ar  
    30   15   17 1   
    31   16   42 1   
    32   17   18 1   
    33   17   43 1   
    34   17   44 1   
    35   18   19 1   
    36   18   45 1   
    37   19   20 1   
    38   19   46 1   
    39   19   51 1   
    40   20   21 2   
    41   20   22 1   
    42   22   23 1   
    43   22   26 2   
    44   23   24 1   
    45   23   47 1   
    46   24   25 2   
    47   24   28 1   
    48   25   26 1   
    49   25   27 1   
    50   26   48 1   
    51   27   29 2   
    52   27   49 1   
    53   28   29 1   
    54   29   30 1   
@<TRIPOS>SUBSTRUCTURE
     1 FRX         1 TEMP              0 ****  ****    0 ROOT
