@<TRIPOS>MOLECULE
FRX
   49    52     1     0     0
SMALL
bcc


@<TRIPOS>ATOM
      1 O26        -0.6770   -3.3610   -3.4360 o         1 FRX     -0.625100
      2 C22        -0.4990   -4.3210   -2.6580 c         1 FRX      0.640100
      3 N22        -1.3450   -5.4060   -2.6110 n         1 FRX     -0.544900
      4 C24        -2.4010   -5.5640   -3.5710 c3        1 FRX      0.044000
      5 C25        -1.9800   -6.1530   -4.9260 c3        1 FRX      0.105400
      6 O25        -0.8960   -5.4700   -5.5160 oh        1 FRX     -0.604800
      7 C21         0.6900   -4.3080   -1.6820 c3        1 FRX      0.018000
      8 N17         0.3120   -4.3280   -0.2910 n         1 FRX     -0.365000
      9 C19         0.0990   -5.5470    0.3490 c         1 FRX      0.681500
     10 O19         0.2080   -6.6120   -0.2910 o         1 FRX     -0.649500
     11 C17         0.1540   -3.1090    0.4100 ca        1 FRX      0.055600
     12 C31        -0.0970   -1.8970   -0.2660 ca        1 FRX     -0.155000
     13 C30        -0.2090   -0.7120    0.4550 ca        1 FRX     -0.102000
     14 C29        -0.0890   -0.7090    1.8440 ca        1 FRX     -0.144000
     15 C16         0.2560   -3.1060    1.8240 ca        1 FRX     -0.119300
     16 C28         0.1350   -1.9050    2.5220 ca        1 FRX     -0.098000
     17 C15         0.4880   -4.3860    2.5430 c3        1 FRX     -0.037100
     18 C13        -0.2870   -5.5170    1.8430 c3        1 FRX      0.038700
     19 N11        -0.0900   -6.7950    2.4800 n         1 FRX     -0.533900
     20 C11        -1.1610   -7.4810    3.0380 c         1 FRX      0.698700
     21 O13        -2.2700   -6.9300    3.2140 o         1 FRX     -0.616100
     22 C7         -0.9100   -8.8690    3.4740 cc        1 FRX     -0.173900
     23 N8         -1.9120   -9.5840    4.1610 na        1 FRX     -0.110100
     24 C3         -1.4250  -10.8340    4.4380 cc        1 FRX     -0.053400
     25 C4         -0.0700  -10.9310    3.9210 cd        1 FRX     -0.145000
     26 C6          0.2310   -9.6790    3.3170 cd        1 FRX     -0.088000
     27 C5          0.4920  -12.2110    4.1820 cd        1 FRX     -0.073000
     28 S2         -1.9060  -12.2480    5.1780 ss        1 FRX      0.017200
     29 C1         -0.4030  -13.0100    4.8550 cc        1 FRX     -0.019700
     30 CL         -0.1290  -14.5840    5.3470 cl        1 FRX     -0.031400
     31 HN22       -1.0450   -6.2180   -2.1160 hn        1 FRX      0.333500
     32 H241       -2.8610   -4.5500   -3.7550 h1        1 FRX      0.065700
     33 H242       -3.1840   -6.2380   -3.1210 h1        1 FRX      0.065700
     34 H251       -2.8690   -6.1240   -5.6130 h1        1 FRX      0.046700
     35 H252       -1.6260   -7.2140   -4.8210 h1        1 FRX      0.046700
     36 HO25       -1.0470   -4.5200   -5.4040 ho        1 FRX      0.421000
     37 H211        1.3310   -5.2130   -1.8980 h1        1 FRX      0.094700
     38 H212        1.2920   -3.3800   -1.8970 h1        1 FRX      0.094700
     39 H31        -0.2200   -1.8800   -1.3630 ha        1 FRX      0.162000
     40 H30        -0.4010    0.2290   -0.0830 ha        1 FRX      0.141000
     41 H29        -0.1770    0.2330    2.4050 ha        1 FRX      0.138000
     42 H28         0.2160   -1.9090    3.6200 ha        1 FRX      0.138000
     43 H151        1.5880   -4.6150    2.5570 hc        1 FRX      0.070200
     44 H152        0.1440   -4.3090    3.6080 hc        1 FRX      0.070200
     45 H13        -1.3950   -5.2590    1.8800 h1        1 FRX      0.122700
     46 HN11        0.6960   -7.3230    2.1710 hn        1 FRX      0.321500
     47 HN8        -2.8070   -9.2200    4.3740 hn        1 FRX      0.325700
     48 H6          1.1630   -9.4070    2.8270 ha        1 FRX      0.161000
     49 H5          1.5010  -12.5040    3.8800 ha        1 FRX      0.169000
@<TRIPOS>BOND
     1    1    2 2   
     2    2    3 1   
     3    2    7 1   
     4    3    4 1   
     5    3   31 1   
     6    4    5 1   
     7    4   32 1   
     8    4   33 1   
     9    5    6 1   
    10    5   34 1   
    11    5   35 1   
    12    6   36 1   
    13    7    8 1   
    14    7   37 1   
    15    7   38 1   
    16    8    9 1   
    17    8   11 1   
    18    9   10 2   
    19    9   18 1   
    20   11   12 ar  
    21   11   15 ar  
    22   12   13 ar  
    23   12   39 1   
    24   13   14 ar  
    25   13   40 1   
    26   14   16 ar  
    27   14   41 1   
    28   15   16 ar  
    29   15   17 1   
    30   16   42 1   
    31   17   18 1   
    32   17   43 1   
    33   17   44 1   
    34   18   19 1   
    35   18   45 1   
    36   19   20 1   
    37   19   46 1   
    38   20   21 2   
    39   20   22 1   
    40   22   23 1   
    41   22   26 2   
    42   23   24 1   
    43   23   47 1   
    44   24   25 2   
    45   24   28 1   
    46   25   26 1   
    47   25   27 1   
    48   26   48 1   
    49   27   29 2   
    50   27   49 1   
    51   28   29 1   
    52   29   30 1   
@<TRIPOS>SUBSTRUCTURE
     1 FRX         1 TEMP              0 ****  ****    0 ROOT
