@<TRIPOS>MOLECULE
FRX
   51    54     1     0     0
SMALL
bcc


@<TRIPOS>ATOM
      1 O26        -0.4460   -1.0520    0.4240 o         1 FRX     -0.387100
      2 C22         0.7270   -0.7230    0.4210 c         1 FRX      0.509100
      3 N22         1.3890   -0.6110    1.7760 n4        1 FRX     -0.670800
      4 C24         1.0950    0.6970    2.4420 c3        1 FRX      0.077800
      5 C25         1.7870    1.8870    1.7580 c3        1 FRX      0.099400
      6 O25         3.1150    1.5260    1.4350 oh        1 FRX     -0.634800
      7 C21         1.6370   -0.4190   -0.7740 c3        1 FRX      0.038000
      8 N17         0.9210   -0.2150   -2.0010 n         1 FRX     -0.341000
      9 C19         0.4630    1.0580   -2.3110 c         1 FRX      0.697500
     10 O19         0.5930    2.0080   -1.5120 o         1 FRX     -0.642500
     11 C17         0.7550   -1.2880   -2.9250 ca        1 FRX      0.018600
     12 C31         0.7870   -2.6310   -2.5060 ca        1 FRX     -0.142000
     13 C30         0.6580   -3.6550   -3.4430 ca        1 FRX     -0.074000
     14 C29         0.4840   -3.3620   -4.7940 ca        1 FRX     -0.100000
     15 C16         0.5520   -0.9920   -4.2950 ca        1 FRX     -0.119300
     16 C28         0.4230   -2.0340   -5.2150 ca        1 FRX     -0.075000
     17 C15         0.4780    0.4220   -4.7480 c3        1 FRX     -0.043100
     18 C13        -0.2350    1.2490   -3.6710 c3        1 FRX      0.053500
     19 N11        -0.3270    2.7010   -4.0220 n4        1 FRX     -0.666800
     20 C11        -1.6070    3.0630   -4.7850 c         1 FRX      0.588700
     21 O13        -2.5860    2.3610   -4.5450 o         1 FRX     -0.475100
     22 C7         -1.4830    4.1840   -5.6550 cc        1 FRX     -0.282900
     23 N8         -2.6050    4.6280   -6.4060 na        1 FRX     -0.095100
     24 C3         -2.2200    5.7080   -7.1410 cc        1 FRX     -0.006400
     25 C4         -0.7980    5.9830   -6.8680 cd        1 FRX     -0.127000
     26 C6         -0.3620    5.0280   -5.9450 cd        1 FRX     -0.032000
     27 C5         -0.3430    7.1090   -7.6190 cd        1 FRX     -0.086000
     28 S2         -2.8520    6.7830   -8.2290 ss        1 FRX      0.128200
     29 C1         -1.3560    7.6250   -8.3890 cc        1 FRX      0.012300
     30 CL         -1.2420    8.9340   -9.4060 cl        1 FRX      0.044600
     31 HN22        2.4110   -0.6880    1.6670 hn        1 FRX      0.473300
     32 H241       -0.0210    0.8560    2.4410 hx        1 FRX      0.122200
     33 H242        1.4540    0.6090    3.5100 hx        1 FRX      0.122200
     34 H251        1.7280    2.7690    2.4490 h1        1 FRX      0.097700
     35 H252        1.2760    2.1390    0.7850 h1        1 FRX      0.097700
     36 HO25        3.7230    2.0530    1.9710 ho        1 FRX      0.455000
     37 H211        2.2360    0.5170   -0.5300 h1        1 FRX      0.136700
     38 H212        2.3480   -1.2920   -0.8890 h1        1 FRX      0.136700
     39 H31         0.8950   -2.8910   -1.4420 ha        1 FRX      0.131000
     40 H30         0.6880   -4.7050   -3.1050 ha        1 FRX      0.170000
     41 H29         0.3870   -4.1780   -5.5300 ha        1 FRX      0.175000
     42 H28         0.2700   -1.8030   -6.2830 ha        1 FRX      0.162000
     43 H151        1.5180    0.8130   -4.9300 hc        1 FRX      0.090200
     44 H152       -0.0900    0.4910   -5.7160 hc        1 FRX      0.090200
     45 H13        -1.3000    0.8560   -3.5470 hx        1 FRX      0.172700
     46 HN11        0.4870    2.9680   -4.5840 hn        1 FRX      0.468300
     47 HN8        -3.5050    4.2110   -6.3690 hn        1 FRX      0.341700
     48 H6          0.6400    4.9490   -5.5250 ha        1 FRX      0.159000
     49 H5          0.6810    7.4950   -7.5740 ha        1 FRX      0.192000
     50 H222        1.0500   -1.3700    2.3820 hn        1 FRX      0.473300
     51 H112       -0.3170    3.2530   -3.1490 hn        1 FRX      0.468300
@<TRIPOS>BOND
     1    1    2 2   
     2    2    3 1   
     3    2    7 1   
     4    3    4 1   
     5    3   31 1   
     6    3   50 1   
     7    4    5 1   
     8    4   32 1   
     9    4   33 1   
    10    5    6 1   
    11    5   34 1   
    12    5   35 1   
    13    6   36 1   
    14    7    8 1   
    15    7   37 1   
    16    7   38 1   
    17    8    9 1   
    18    8   11 1   
    19    9   10 2   
    20    9   18 1   
    21   11   12 ar  
    22   11   15 ar  
    23   12   13 ar  
    24   12   39 1   
    25   13   14 ar  
    26   13   40 1   
    27   14   16 ar  
    28   14   41 1   
    29   15   16 ar  
    30   15   17 1   
    31   16   42 1   
    32   17   18 1   
    33   17   43 1   
    34   17   44 1   
    35   18   19 1   
    36   18   45 1   
    37   19   20 1   
    38   19   46 1   
    39   19   51 1   
    40   20   21 2   
    41   20   22 1   
    42   22   23 1   
    43   22   26 2   
    44   23   24 1   
    45   23   47 1   
    46   24   25 2   
    47   24   28 1   
    48   25   26 1   
    49   25   27 1   
    50   26   48 1   
    51   27   29 2   
    52   27   49 1   
    53   28   29 1   
    54   29   30 1   
@<TRIPOS>SUBSTRUCTURE
     1 FRX         1 TEMP              0 ****  ****    0 ROOT
