@<TRIPOS>MOLECULE
FRX
   51    54     1     0     0
SMALL
bcc


@<TRIPOS>ATOM
      1 O26        -0.4150   -1.0410    0.4400 o         1 FRX     -0.387100
      2 C22         0.7620   -0.7260    0.4160 c         1 FRX      0.509100
      3 N22         1.4490   -0.6210    1.7590 ny        1 FRX     -0.670800
      4 C24         1.1830    0.6910    2.4280 c3        1 FRX      0.077800
      5 C25         1.8780    1.8720    1.7300 c3        1 FRX      0.099400
      6 O25         3.1950    1.4940    1.3840 oh        1 FRX     -0.634800
      7 C21         1.6540   -0.4350   -0.7950 c3        1 FRX      0.038000
      8 N17         0.9190   -0.2240   -2.0090 n         1 FRX     -0.341000
      9 C19         0.4720    1.0540   -2.3130 c         1 FRX      0.697500
     10 O19         0.6270    2.0030   -1.5190 o         1 FRX     -0.642500
     11 C17         0.7240   -1.2970   -2.9290 ca        1 FRX      0.018600
     12 C31         0.7470   -2.6390   -2.5080 ca        1 FRX     -0.142000
     13 C30         0.5880   -3.6630   -3.4410 ca        1 FRX     -0.074000
     14 C29         0.3950   -3.3690   -4.7900 ca        1 FRX     -0.100000
     15 C16         0.5000   -1.0000   -4.2950 ca        1 FRX     -0.119300
     16 C28         0.3420   -2.0410   -5.2120 ca        1 FRX     -0.075000
     17 C15         0.4360    0.4150   -4.7500 c3        1 FRX     -0.043100
     18 C13        -0.2480    1.2510   -3.6610 c3        1 FRX      0.053500
     19 N11        -0.3280    2.7040   -4.0130 ny        1 FRX     -0.666800
     20 C11        -1.6170    3.0810   -4.7540 c         1 FRX      0.588700
     21 O13        -2.6000    2.3910   -4.4960 o         1 FRX     -0.475100
     22 C7         -1.4950    4.2000   -5.6260 cc        1 FRX     -0.282900
     23 N8         -2.6250    4.6580   -6.3570 na        1 FRX     -0.095100
     24 C3         -2.2400    5.7320   -7.1000 cc        1 FRX     -0.006400
     25 C4         -0.8100    5.9910   -6.8520 cd        1 FRX     -0.127000
     26 C6         -0.3690    5.0300   -5.9360 cd        1 FRX     -0.032000
     27 C5         -0.3560    7.1110   -7.6110 cd        1 FRX     -0.086000
     28 S2         -2.8780    6.8140   -8.1770 ss        1 FRX      0.128200
     29 C1         -1.3760    7.6390   -8.3630 cc        1 FRX      0.012300
     30 Cl         -1.2640    8.9460   -9.3830 cl        1 FRX      0.043600
     31 HN22        1.1120   -1.3750    2.3730 hn        1 FRX      0.473300
     32 H241        0.0690    0.8650    2.4460 hx        1 FRX      0.122200
     33 H242        1.5590    0.6010    3.4890 hx        1 FRX      0.122200
     34 H251        1.8420    2.7560    2.4200 h1        1 FRX      0.097700
     35 H252        1.3530    2.1300    0.7660 h1        1 FRX      0.097700
     36 HO25        3.8180    2.0150    1.9090 ho        1 FRX      0.455000
     37 H211        2.2690    0.4930   -0.5630 h1        1 FRX      0.136700
     38 H212        2.3520   -1.3170   -0.9210 h1        1 FRX      0.136700
     39 H31         0.8710   -2.8990   -1.4470 ha        1 FRX      0.131000
     40 H30         0.6120   -4.7130   -3.1030 ha        1 FRX      0.170000
     41 H29         0.2750   -4.1850   -5.5230 ha        1 FRX      0.175000
     42 H28         0.1730   -1.8100   -6.2770 ha        1 FRX      0.162000
     43 H151       -0.1480    0.4890   -5.7070 hc        1 FRX      0.090200
     44 H152        1.4770    0.7920   -4.9500 hc        1 FRX      0.090200
     45 H13        -1.3150    0.8710   -3.5180 hx        1 FRX      0.172700
     46 HN11        0.4790    2.9600   -4.5900 hn        1 FRX      0.467800
     47 HN8        -3.5290    4.2510   -6.3050 hn        1 FRX      0.341700
     48 H6          0.6380    4.9400   -5.5340 ha        1 FRX      0.159000
     49 H5          0.6730    7.4850   -7.5840 ha        1 FRX      0.192000
     50 H222        2.4680   -0.7110    1.6320 hn        1 FRX      0.473300
     51 H112       -0.2950    3.2570   -3.1410 hn        1 FRX      0.467800
@<TRIPOS>BOND
     1    1    2 2   
     2    2    3 1   
     3    2    7 1   
     4    3    4 1   
     5    3   31 1   
     6    3   50 1   
     7    4    5 1   
     8    4   32 1   
     9    4   33 1   
    10    5    6 1   
    11    5   34 1   
    12    5   35 1   
    13    6   36 1   
    14    7    8 1   
    15    7   37 1   
    16    7   38 1   
    17    8    9 1   
    18    8   11 1   
    19    9   10 2   
    20    9   18 1   
    21   11   12 ar  
    22   11   15 ar  
    23   12   13 ar  
    24   12   39 1   
    25   13   14 ar  
    26   13   40 1   
    27   14   16 ar  
    28   14   41 1   
    29   15   16 ar  
    30   15   17 1   
    31   16   42 1   
    32   17   18 1   
    33   17   43 1   
    34   17   44 1   
    35   18   19 1   
    36   18   45 1   
    37   19   20 1   
    38   19   46 1   
    39   19   51 1   
    40   20   21 2   
    41   20   22 1   
    42   22   23 1   
    43   22   26 2   
    44   23   24 1   
    45   23   47 1   
    46   24   25 2   
    47   24   28 1   
    48   25   26 1   
    49   25   27 1   
    50   26   48 1   
    51   27   29 2   
    52   27   49 1   
    53   28   29 1   
    54   29   30 1   
@<TRIPOS>SUBSTRUCTURE
     1 FRX         1 TEMP              0 ****  ****    0 ROOT
