@<TRIPOS>MOLECULE
FRY
   42    45     1     0     0
SMALL
bcc


@<TRIPOS>ATOM
      1 C1          0.1120  -13.0520    4.9760 c3        1 FRY      0.092000
      2 C7         -0.7350   -8.9390    3.5320 cc        1 FRY      0.321800
      3 C6         -1.6890   -9.8170    4.0170 cd        1 FRY     -0.152300
      4 C5         -1.1540  -12.2590    4.8860 c2        1 FRY     -0.076200
      5 C4         -0.9700  -11.0310    4.3870 cd        1 FRY     -0.179300
      6 C3          0.4800  -10.7000    4.0470 cd        1 FRY      0.424600
      7 C10        -1.0470   -7.5730    3.0400 c         1 FRY      0.591600
      8 C12        -0.2460   -5.5050    1.9770 c3        1 FRY      0.041700
      9 C16         0.1040   -3.1000    0.5050 ca        1 FRY      0.058600
     10 C14         0.5850   -4.3750    2.6100 c3        1 FRY     -0.038100
     11 C15         0.3070   -3.0950    1.9080 ca        1 FRY     -0.120300
     12 C18         0.0140   -5.5390    0.4540 c         1 FRY      0.677500
     13 O19         0.0380   -6.6000   -0.1990 o         1 FRY     -0.642500
     14 O22        -1.0250   -3.3140   -3.2320 o         1 FRY     -0.623100
     15 C21        -0.7810   -4.2950   -2.5000 c         1 FRY      0.638100
     16 N23        -1.5950   -5.3910   -2.4630 n         1 FRY     -0.661000
     17 N17         0.1980   -4.3210   -0.2010 n         1 FRY     -0.370000
     18 C24        -0.1850   -1.8870   -0.1530 ca        1 FRY     -0.156000
     19 C25        -0.2370   -0.7000    0.5720 ca        1 FRY     -0.102000
     20 C26        -0.0180   -0.6960    1.9480 ca        1 FRY     -0.146000
     21 C27         0.2450   -1.8920    2.6110 ca        1 FRY     -0.099000
     22 N11        -0.0000   -6.7770    2.6070 n         1 FRY     -0.530900
     23 O13        -2.2210   -7.1500    3.0720 o         1 FRY     -0.604100
     24 N8          0.5990   -9.4850    3.5500 nc        1 FRY     -0.620000
     25 S2          1.4800  -11.9890    4.4050 ss        1 FRY     -0.135400
     26 CL          0.3950  -13.6540    6.5820 cl        1 FRY     -0.102400
     27 H1          0.0740  -13.9420    4.2990 h2        1 FRY      0.125700
     28 H6         -2.7610   -9.6490    4.1100 ha        1 FRY      0.185000
     29 H5         -2.0980  -12.7080    5.2140 ha        1 FRY      0.180000
     30 H12        -1.3470   -5.2510    2.0970 h1        1 FRY      0.123700
     31 H141        1.6820   -4.6090    2.5410 hc        1 FRY      0.069200
     32 H142        0.3250   -4.2930    3.6990 hc        1 FRY      0.069200
     33 H201        1.0780   -3.3880   -1.8730 h1        1 FRY      0.091200
     34 H202        1.0870   -5.2210   -1.8740 h1        1 FRY      0.091200
     35 H231       -2.4050   -5.4230   -3.0300 hn        1 FRY      0.323500
     36 H232       -1.3710   -6.1700   -1.8930 hn        1 FRY      0.323500
     37 H24        -0.3870   -1.8710   -1.2390 ha        1 FRY      0.165000
     38 H25        -0.4600    0.2410    0.0460 ha        1 FRY      0.140000
     39 H26        -0.0590    0.2470    2.5120 ha        1 FRY      0.137000
     40 H27         0.4050   -1.8950    3.7000 ha        1 FRY      0.137000
     41 HN11        0.8860   -7.1940    2.4310 hn        1 FRY      0.335500
     42 C20         0.4780   -4.3070   -1.6150 c3        1 FRY      0.017000
@<TRIPOS>BOND
     1    1    4 1   
     2    1   25 1   
     3    1   26 1   
     4    1   27 1   
     5    2    3 2   
     6    2    7 1   
     7    2   24 1   
     8    3    5 1   
     9    3   28 1   
    10    4    5 2   
    11    4   29 1   
    12    5    6 1   
    13    6   24 2   
    14    6   25 1   
    15    7   22 1   
    16    7   23 2   
    17    8   10 1   
    18    8   12 1   
    19    8   22 1   
    20    8   30 1   
    21    9   11 ar  
    22    9   17 1   
    23    9   18 ar  
    24   10   11 1   
    25   10   31 1   
    26   10   32 1   
    27   11   21 ar  
    28   12   13 2   
    29   12   17 1   
    30   14   15 2   
    31   15   16 1   
    32   15   42 1   
    33   16   35 1   
    34   16   36 1   
    35   17   42 1   
    36   18   19 ar  
    37   18   37 1   
    38   19   20 ar  
    39   19   38 1   
    40   20   21 ar  
    41   20   39 1   
    42   21   40 1   
    43   22   41 1   
    44   33   42 1   
    45   34   42 1   
@<TRIPOS>SUBSTRUCTURE
     1 FRY         1 TEMP              0 ****  ****    0 ROOT
