@<TRIPOS>MOLECULE
FRY
   44    46     1     0     0
SMALL
bcc


@<TRIPOS>ATOM
      1 C1        -98.1310    9.8780 -110.1300 c2        1 FRY     -0.545000
      2 C7       -101.1160    9.3920 -107.1950 c2        1 FRY     -0.410000
      3 C6        -99.7180    9.2480 -106.8780 c1        1 FRY      0.089000
      4 C5        -97.9580    9.6040 -108.8120 c2        1 FRY      0.068000
      5 C4        -99.1100    8.8940 -108.2150 c3        1 FRY     -0.186000
      6 C3       -100.2840    9.1360 -109.2100 c2        1 FRY     -0.640000
      7 C10      -102.0900    9.6100 -106.1700 c2        1 FRY      0.371000
      8 C12        76.2300   -8.6180   84.0600 c2        1 FRY     -0.241000
      9 C16        75.7970   -6.2430   85.5580 c2        1 FRY     -0.101000
     10 C14        76.9130   -7.5130   83.6970 c2        1 FRY      0.037000
     11 C15        76.7990   -6.3020   84.4570 c2        1 FRY     -0.075000
     12 C18        75.3350   -8.6550   85.2100 c2        1 FRY      0.321000
     13 O19        74.4930   -9.4970   85.4910 o         1 FRY     -0.193000
     14 O22        74.9600   -7.4660   89.1090 o         1 FRY     -0.351000
     15 C21        76.0220   -7.8220   88.5680 c2        1 FRY      0.278000
     16 N23        77.0680   -8.3090   89.5680 n4        1 FRY     -0.121000
     17 N17        75.4410   -7.4980   86.2210 n4        1 FRY      0.090000
     18 C24        75.1690   -5.0570   85.7840 c2        1 FRY     -0.089000
     19 C25        75.5850   -3.7770   85.1090 c3        1 FRY     -0.124000
     20 C26        77.0260   -3.8680   84.6760 c2        1 FRY     -0.077000
     21 C27        77.3200   -5.0900   84.2640 c1        1 FRY     -0.055000
     22 N11      -103.5500    9.6830 -106.6540 n4        1 FRY     -0.155000
     23 O13      -101.9880    9.7430 -104.9610 o         1 FRY     -0.186000
     24 N8       -101.4160    9.3640 -108.5720 n2        1 FRY      0.054000
     25 S2        -99.7220    9.5130 -110.7380 s4        1 FRY      1.335000
     26 CL        -97.0220   10.5840 -111.1510 cl        1 FRY      0.125000
     27 H1        -99.4990    8.3100 -111.2080 hs        1 FRY     -0.093000
     28 H6        -98.8700    7.7890 -108.1230 hc        1 FRY      0.202000
     29 H5        -97.0660    9.8410 -108.2110 ha        1 FRY      0.218000
     30 H12      -103.7990    8.8160 -107.1320 hn        1 FRY      0.251000
     31 H141       76.2740   -9.5640   83.4920 ha        1 FRY      0.199000
     32 H142       77.5760   -7.5080   82.8120 ha        1 FRY      0.184000
     33 H201       74.5170   -7.3880   86.6770 hn        1 FRY      0.256000
     34 H202       77.4000   -8.1280   86.8620 hx        1 FRY      0.187000
     35 H231       77.2950   -9.2860   89.3820 hn        1 FRY      0.248000
     36 H232       76.6760   -8.2230   90.5120 hn        1 FRY      0.248000
     37 H24        74.3050   -4.9620   86.4650 ha        1 FRY      0.169000
     38 H25        74.8740   -3.5570   84.2660 hc        1 FRY      0.151500
     39 H26        75.5080   -2.9300   85.8460 hc        1 FRY      0.151500
     40 H27        77.7060   -3.0190   84.8080 ha        1 FRY      0.190000
     41 HN11     -104.1730    9.8220 -105.8520 hn        1 FRY      0.251000
     42 C20        76.4050   -7.8700   87.2340 c2        1 FRY     -0.531000
     43 H233       77.9150   -7.7470   89.4960 hn        1 FRY      0.248000
     44 H112     -103.6590   10.4610 -107.3060 hn        1 FRY      0.251000
@<TRIPOS>BOND
     1    1    4 1   
     2    1   25 1   
     3    1   26 1   
     4    2    3 1   
     5    2    7 1   
     6    2   24 1   
     7    3    5 1   
     8    4    5 1   
     9    4   29 1   
    10    5    6 1   
    11    5   28 1   
    12    6   24 1   
    13    6   25 1   
    14    7   22 1   
    15    7   23 1   
    16    8   10 1   
    17    8   12 1   
    18    8   31 1   
    19    9   11 1   
    20    9   17 1   
    21    9   18 1   
    22   10   11 1   
    23   10   32 1   
    24   11   21 1   
    25   12   13 1   
    26   12   17 1   
    27   14   15 1   
    28   15   16 1   
    29   15   42 1   
    30   16   35 1   
    31   16   36 1   
    32   16   43 1   
    33   17   33 1   
    34   17   42 1   
    35   18   19 1   
    36   18   37 1   
    37   19   20 1   
    38   19   38 1   
    39   19   39 1   
    40   20   21 1   
    41   20   40 1   
    42   22   30 1   
    43   22   41 1   
    44   22   44 1   
    45   25   27 1   
    46   34   42 1   
@<TRIPOS>SUBSTRUCTURE
     1 FRY         1 TEMP              0 ****  ****    0 ROOT
