@<TRIPOS>MOLECULE
FRY
   44    47     1     0     0
SMALL
bcc


@<TRIPOS>ATOM
      1 C1          1.0890    0.5360   -0.0350 c2        1 FRY     -0.536000
      2 C7          3.1700   -0.3080    3.5400 c2        1 FRY     -0.418000
      3 C6          3.7940   -0.4590    2.2470 c1        1 FRY      0.099000
      4 C5          2.3770    0.1350    0.0990 c2        1 FRY      0.061000
      5 C4          2.6130   -0.6530    1.3290 c3        1 FRY     -0.189000
      6 C3          1.3950   -0.3300    2.2480 c2        1 FRY     -0.599000
      7 C10         3.9630   -0.2340    4.7170 c2        1 FRY      0.394000
      8 C12         3.9760   -0.0130    7.2610 c3        1 FRY     -0.060000
      9 C16         4.9910    0.6310    9.8840 ca        1 FRY     -0.139000
     10 C14         4.7160    1.3190    7.4300 c3        1 FRY     -0.152000
     11 C15         5.3500    1.4240    8.7740 ca        1 FRY     -0.053000
     12 C18         3.1410   -0.2140    8.5210 c2        1 FRY      0.273000
     13 O19         1.9290   -0.1440    8.6420 o         1 FRY     -0.162000
     14 O22         3.1740   -2.5010    8.0230 o         1 FRY     -0.434000
     15 C21         3.8080   -2.8560    9.0500 c2        1 FRY      0.307000
     16 N23         3.8580   -4.1350    9.4730 nt        1 FRY     -0.348000
     17 N17         3.9660   -0.4260    9.7690 nx        1 FRY      0.002000
     18 C24         5.5930    0.8340   11.1410 ca        1 FRY     -0.099000
     19 C25         6.5620    1.8230   11.2860 ca        1 FRY     -0.086000
     20 C26         6.9370    2.6050   10.1920 ca        1 FRY     -0.053000
     21 C27         6.3340    2.4060    8.9510 ca        1 FRY     -0.095000
     22 N11         3.1290   -0.1200    6.0450 ny        1 FRY     -0.123000
     23 O13         5.1690   -0.2510    4.9040 o         1 FRY     -0.217000
     24 N8          1.7580   -0.1900    3.5040 n2        1 FRY      0.045000
     25 S2          0.0800    0.2040    1.3470 s4        1 FRY      1.320000
     26 Cl          0.4340    1.3590   -1.3230 cl        1 FRY      0.144000
     27 H1         -0.4220   -0.9520    0.9780 hs        1 FRY     -0.076000
     28 H6          2.6480   -1.7590    1.0680 hc        1 FRY      0.207000
     29 H5          3.1940    0.3250   -0.6160 ha        1 FRY      0.224000
     30 H12         4.7430   -0.8540    7.1830 hx        1 FRY      0.198000
     31 H141        5.5070    1.3920    6.6260 hc        1 FRY      0.157000
     32 H142        4.0140    2.1890    7.2920 hc        1 FRY      0.157000
     33 H201        3.3250   -0.3400   10.5790 hn        1 FRY      0.274000
     34 H202        4.7260   -2.0540   10.9120 hx        1 FRY      0.175000
     35 H231        5.6290   -1.7280    9.3520 hx        1 FRY      0.175000
     36 H232        4.3740   -4.4090   10.2750 hn        1 FRY      0.271000
     37 H24         5.3080    0.2270   12.0170 ha        1 FRY      0.162000
     38 H25         7.0320    1.9860   12.2730 ha        1 FRY      0.188000
     39 H26         7.7100    3.3860   10.3090 ha        1 FRY      0.189000
     40 H27         6.6320    3.0320    8.0910 ha        1 FRY      0.178000
     41 HN11        2.5060    0.6890    5.9740 hn        1 FRY      0.265000
     42 C20         4.6020   -1.7860    9.8230 c3        1 FRY     -0.162000
     43 H233        3.3840   -4.8410    8.9490 hn        1 FRY      0.271000
     44 H112        2.5510   -0.9690    6.1270 hn        1 FRY      0.265000
@<TRIPOS>BOND
     1    1    4 1   
     2    1   25 1   
     3    1   26 1   
     4    2    3 1   
     5    2    7 1   
     6    2   24 1   
     7    3    5 1   
     8    4    5 1   
     9    4   29 1   
    10    5    6 1   
    11    5   28 1   
    12    6   24 1   
    13    6   25 1   
    14    7   22 1   
    15    7   23 1   
    16    8   10 1   
    17    8   12 1   
    18    8   22 1   
    19    8   30 1   
    20    9   11 1   
    21    9   17 1   
    22    9   18 1   
    23   10   11 1   
    24   10   31 1   
    25   10   32 1   
    26   11   21 1   
    27   12   13 1   
    28   12   17 1   
    29   14   15 1   
    30   15   16 1   
    31   15   42 1   
    32   16   36 1   
    33   16   43 1   
    34   17   33 1   
    35   17   42 1   
    36   18   19 1   
    37   18   37 1   
    38   19   20 1   
    39   19   38 1   
    40   20   21 1   
    41   20   39 1   
    42   21   40 1   
    43   22   41 1   
    44   22   44 1   
    45   25   27 1   
    46   34   42 1   
    47   35   42 1   
@<TRIPOS>SUBSTRUCTURE
     1 FRY         1 TEMP              0 ****  ****    0 ROOT
