@<TRIPOS>MOLECULE
FRY
   44    46     1     0     0
SMALL
bcc


@<TRIPOS>ATOM
      1 C1          0.7690    0.9300   -0.9950 c2        1 FRY     -0.538000
      2 C7          1.8220   -0.2920    2.9030 c2        1 FRY     -0.415000
      3 C6          2.7840   -0.2790    1.8320 c1        1 FRY      0.083000
      4 C5          1.9890    0.5380   -0.5510 c2        1 FRY      0.061000
      5 C4          1.9160   -0.3860    0.6030 c3        1 FRY     -0.185000
      6 C3          0.4760   -0.1960    1.1710 c2        1 FRY     -0.613000
      7 C10         2.2320   -0.3340    4.2680 c2        1 FRY      0.384000
      8 C12         5.2100    0.0570    7.3950 c2        1 FRY     -0.248000
      9 C16         5.4860    0.7390   10.1590 ca        1 FRY     -0.078000
     10 C14         6.3420    0.6440    7.8310 c2        1 FRY      0.044000
     11 C15         6.4700    1.0910    9.2040 ca        1 FRY     -0.066000
     12 C18         4.0760   -0.1490    8.2800 c2        1 FRY      0.344000
     13 O19         2.9000   -0.3420    7.9610 o         1 FRY     -0.306000
     14 O22         6.6500   -2.0840    9.6330 o         1 FRY     -0.321000
     15 C21         5.5600   -2.2350   10.2000 c2        1 FRY      0.305000
     16 N23         5.4710   -3.5860   10.9240 n4        1 FRY     -0.131000
     17 N17         4.3380   -0.1060    9.7830 n4        1 FRY      0.104000
     18 C24         5.5960    1.1810   11.4860 ca        1 FRY     -0.110000
     19 C25         6.6810    1.9770   11.8570 ca        1 FRY     -0.079000
     20 C26         7.6590    2.3210   10.9250 ca        1 FRY     -0.089000
     21 C27         7.5550    1.8790    9.6060 ca        1 FRY     -0.064000
     22 N11         1.1020   -0.3720    5.3080 n4        1 FRY     -0.155000
     23 O13         3.3430   -0.3530    4.7850 o         1 FRY     -0.243000
     24 N8          0.4720   -0.1990    2.4870 n2        1 FRY      0.048000
     25 S2         -0.5630    0.4190    0.0060 s4        1 FRY      1.326000
     26 CL          0.4550    1.8900   -2.3170 cl        1 FRY      0.138000
     27 H1         -0.8870   -0.6900   -0.6160 hs        1 FRY     -0.081000
     28 H6          2.0770   -1.4520    0.2440 hc        1 FRY      0.204000
     29 H5          2.9600    0.8260   -0.9840 ha        1 FRY      0.220000
     30 H12         0.5160   -1.1930    5.1490 hn        1 FRY      0.254333
     31 H141        5.0570   -0.2690    6.3490 ha        1 FRY      0.212000
     32 H142        7.1960    0.8190    7.1500 ha        1 FRY      0.186000
     33 H201        3.5020    0.3160   10.2220 hn        1 FRY      0.254000
     34 H202        3.4970   -1.7850   10.8080 hx        1 FRY      0.180000
     35 H231        5.3440   -3.4370   11.9250 hn        1 FRY      0.249333
     36 H232        4.6900   -4.1330   10.5650 hn        1 FRY      0.249333
     37 H24         4.8410    0.9100   12.2420 ha        1 FRY      0.159000
     38 H25         6.7610    2.3310   12.9000 ha        1 FRY      0.174000
     39 H26         8.5180    2.9450   11.2290 ha        1 FRY      0.177000
     40 H27         8.3310    2.1500    8.8700 ha        1 FRY      0.171000
     41 HN11        1.5040   -0.4130    6.2530 hn        1 FRY      0.254333
     42 C20         4.4150   -1.4520   10.3090 c2        1 FRY     -0.562000
     43 H233        6.3480   -4.0960   10.7640 hn        1 FRY      0.249333
     44 H112        0.5230    0.4640    5.2180 hn        1 FRY      0.254333
@<TRIPOS>BOND
     1    1    4 1   
     2    1   25 1   
     3    1   26 1   
     4    2    3 1   
     5    2    7 1   
     6    2   24 1   
     7    3    5 1   
     8    4    5 1   
     9    4   29 1   
    10    5    6 1   
    11    5   28 1   
    12    6   24 1   
    13    6   25 1   
    14    7   22 1   
    15    7   23 1   
    16    8   10 1   
    17    8   12 1   
    18    8   31 1   
    19    9   11 1   
    20    9   17 1   
    21    9   18 1   
    22   10   11 1   
    23   10   32 1   
    24   11   21 1   
    25   12   13 1   
    26   12   17 1   
    27   14   15 1   
    28   15   16 1   
    29   15   42 1   
    30   16   35 1   
    31   16   36 1   
    32   16   43 1   
    33   17   33 1   
    34   17   42 1   
    35   18   19 1   
    36   18   37 1   
    37   19   20 1   
    38   19   38 1   
    39   20   21 1   
    40   20   39 1   
    41   21   40 1   
    42   22   30 1   
    43   22   41 1   
    44   22   44 1   
    45   25   27 1   
    46   34   42 1   
@<TRIPOS>SUBSTRUCTURE
     1 FRY         1 TEMP              0 ****  ****    0 ROOT
