@<TRIPOS>MOLECULE
FRY
   42    41     1     0     0
SMALL
bcc


@<TRIPOS>ATOM
      1 C1         -4.0790    3.1630   -5.8190 c3        1 FRY     -0.207000
      2 C7         -1.5990    1.9440   -2.4500 c1        1 FRY     -0.096000
      3 C6         -1.3150    3.0930   -3.2830 c1        1 FRY     -0.087000
      4 C5         -2.9200    3.9850   -5.2380 c2        1 FRY     -0.072000
      5 C4         -2.6440    3.7570   -3.7320 c1        1 FRY     -0.114000
      6 C3         -3.6400    2.8650   -3.0410 c2        1 FRY     -0.231000
      7 C10        -0.6740    1.5820   -1.3160 c2        1 FRY      0.375000
      8 C12         0.0610   -0.0330    0.6450 c3        1 FRY      0.015000
      9 C16         1.2160   -1.6190    2.7850 c1        1 FRY      0.066000
     10 C14        -0.4940    0.1530    1.9370 c3        1 FRY     -0.124000
     11 C15         0.1760   -0.6420    3.1160 c2        1 FRY     -0.113000
     12 C18         0.5640   -1.4450    0.4200 c2        1 FRY      0.285000
     13 O19         0.4440   -1.9770   -0.7010 o         1 FRY     -0.367000
     14 C20         2.3390   -3.0820    0.9380 c3        1 FRY     -0.049000
     15 O22         3.3330   -1.5360   -0.5530 o         1 FRY     -0.384000
     16 C21         3.4840   -2.5380    0.0660 c2        1 FRY      0.282000
     17 N23         4.7320   -3.3250   -0.0920 n         1 FRY     -0.421000
     18 N17         1.4290   -1.9640    1.3240 n2        1 FRY     -0.273000
     19 C24         1.8970   -2.2590    3.7930 c2        1 FRY     -0.156000
     20 C25         1.5910   -1.9730    5.1470 c1        1 FRY     -0.102000
     21 C26         0.5770   -1.0210    5.4650 c1        1 FRY     -0.146000
     22 C27        -0.1190   -0.3670    4.4400 c2        1 FRY     -0.099000
     23 N11        -0.9690    0.4110   -0.4710 n         1 FRY     -0.340000
     24 O13         0.3520    2.1950   -1.1580 o         1 FRY     -0.365000
     25 N8         -2.9460    1.7990   -2.3090 n1        1 FRY     -0.094000
     26 S2         -4.8000    2.4670   -4.2930 ss        1 FRY      0.374000
     27 CL         -5.1020    4.1500   -6.6740 cl        1 FRY     -0.029000
     28 H1         -3.8710    2.4470   -6.4980 h2        1 FRY      0.165000
     29 H6         -0.5510    3.6250   -3.1140 ha        1 FRY      0.185000
     30 H5         -2.6380    4.8540   -5.6820 ha        1 FRY      0.180000
     31 H12         0.7740    0.5950    0.4930 h1        1 FRY      0.163000
     32 H141       -0.4150    1.1560    2.1630 hc        1 FRY      0.108500
     33 H142       -1.4480   -0.1210    1.8940 hc        1 FRY      0.108500
     34 H201        2.7070   -3.4880    1.7380 h1        1 FRY      0.130500
     35 H202        1.8350   -3.7530    0.4320 h1        1 FRY      0.130500
     36 H231        5.4450   -2.9730   -0.5710 hn        1 FRY      0.237000
     37 H232        4.7900   -4.1540    0.2570 hn        1 FRY      0.237000
     38 H24         2.5690   -2.8880    3.5830 ha        1 FRY      0.165000
     39 H25         2.0970   -2.4510    5.8980 ha        1 FRY      0.140000
     40 H26         0.3690   -0.8260    6.3910 ha        1 FRY      0.137000
     41 H27        -0.7760    0.2520    4.6490 ha        1 FRY      0.137000
     42 HN11       -1.7800   -0.0580   -0.5800 hn        1 FRY      0.249000
@<TRIPOS>BOND
     1    1    4 1   
     2    1   26 1   
     3    1   27 1   
     4    1   28 1   
     5    2    3 1   
     6    2    7 1   
     7    3   29 1   
     8    4    5 1   
     9    4   30 1   
    10    5    6 1   
    11    6   25 1   
    12    6   26 1   
    13    7   23 1   
    14    7   24 1   
    15    8   10 1   
    16    8   12 1   
    17    8   23 1   
    18    8   31 1   
    19    9   11 1   
    20    9   19 1   
    21   10   11 1   
    22   10   32 1   
    23   10   33 1   
    24   11   22 1   
    25   12   13 1   
    26   12   18 1   
    27   14   16 1   
    28   14   18 1   
    29   14   34 1   
    30   14   35 1   
    31   15   16 1   
    32   16   17 1   
    33   17   36 1   
    34   17   37 1   
    35   19   20 1   
    36   19   38 1   
    37   20   39 1   
    38   21   22 1   
    39   21   40 1   
    40   22   41 1   
    41   23   42 1   
@<TRIPOS>SUBSTRUCTURE
     1 FRY         1 TEMP              0 ****  ****    0 ROOT
