@<TRIPOS>MOLECULE
FRZ
   38    42     1     0     0
SMALL
bcc


@<TRIPOS>ATOM
      1 C1         -3.0170   -4.0630    0.0620 cc        1 FRZ     -0.180000
      2 C2         -3.5680   -2.8130   -0.0980 cd        1 FRZ     -0.038300
      3 N3         -2.7530   -1.6890   -0.0730 na        1 FRZ      0.204000
      4 C4         -1.3420   -1.8370    0.1140 cd        1 FRZ     -0.032300
      5 C5         -0.7890   -3.1360    0.2860 cd        1 FRZ     -0.120000
      6 C6         -1.6160   -4.2270    0.2600 cc        1 FRZ     -0.105000
      7 N7         -3.1150   -0.4030   -0.2060 nd        1 FRZ     -0.565100
      8 C8         -1.9630    0.3410   -0.1100 cc        1 FRZ      0.465200
      9 C9         -0.8160   -0.5190    0.0890 cc        1 FRZ     -0.344400
     10 C10         0.5680   -0.1500    0.2690 ca        1 FRZ      0.395100
     11 C11        -1.9590    1.7930   -0.2260 ca        1 FRZ     -0.097900
     12 C12        -1.0040    2.4310   -1.0290 ca        1 FRZ     -0.096000
     13 C13        -1.0050    3.8190   -1.1460 ca        1 FRZ     -0.135000
     14 C14        -1.9560    4.5800   -0.4650 ca        1 FRZ     -0.119000
     15 C15        -2.9090    3.9480    0.3340 ca        1 FRZ     -0.135000
     16 C16        -2.9160    2.5590    0.4530 ca        1 FRZ     -0.096000
     17 C22         1.5790   -0.8790   -0.3840 ca        1 FRZ     -0.126300
     18 C23         2.8910   -0.4790   -0.1420 ca        1 FRZ     -0.308200
     19 C24         3.0920    0.6490    0.7510 ca        1 FRZ      0.346800
     20 N25         2.0270    1.3190    1.3500 nb        1 FRZ     -0.284000
     21 N26         0.8620    0.9270    1.1130 nb        1 FRZ     -0.260000
     22 C27         4.2510   -0.8670   -0.5310 cc        1 FRZ      0.534800
     23 N28         5.1510   -0.0260    0.0780 nd        1 FRZ     -0.561100
     24 N29         4.4710    0.8810    0.7940 na        1 FRZ     -0.087800
     25 N30         4.5560   -1.9800   -1.3120 nh        1 FRZ     -0.843800
     26 H1         -3.6690   -4.9470    0.0400 ha        1 FRZ      0.155000
     27 H2         -4.6480   -2.6370   -0.2490 h4        1 FRZ      0.180000
     28 H5          0.2960   -3.2170    0.4460 ha        1 FRZ      0.156000
     29 H6         -1.2160   -5.2430    0.3930 ha        1 FRZ      0.145000
     30 H12        -0.2520    1.8320   -1.5640 ha        1 FRZ      0.138000
     31 H13        -0.2520    4.3150   -1.7760 ha        1 FRZ      0.131500
     32 H14        -1.9520    5.6760   -0.5560 ha        1 FRZ      0.130000
     33 H15        -3.6580    4.5460    0.8730 ha        1 FRZ      0.131500
     34 H16        -3.6710    2.0640    1.0830 ha        1 FRZ      0.138000
     35 H22         1.3370   -1.7190   -1.0480 ha        1 FRZ      0.153000
     36 H29         4.9510    1.4430    1.4600 hn        1 FRZ      0.335700
     37 H301        5.5070   -2.0220   -1.6160 hn        1 FRZ      0.396800
     38 H302        3.9080   -2.0960   -2.0630 hn        1 FRZ      0.396800
@<TRIPOS>BOND
     1    1    2 2   
     2    1    6 1   
     3    1   26 1   
     4    2    3 1   
     5    2   27 1   
     6    3    4 1   
     7    3    7 1   
     8    4    5 1   
     9    4    9 2   
    10    5    6 2   
    11    5   28 1   
    12    6   29 1   
    13    7    8 2   
    14    8    9 1   
    15    8   11 1   
    16    9   10 1   
    17   10   17 ar  
    18   10   21 ar  
    19   11   12 ar  
    20   11   16 ar  
    21   12   13 ar  
    22   12   30 1   
    23   13   14 ar  
    24   13   31 1   
    25   14   15 ar  
    26   14   32 1   
    27   15   16 ar  
    28   15   33 1   
    29   16   34 1   
    30   17   18 ar  
    31   17   35 1   
    32   18   19 ar  
    33   18   22 1   
    34   19   20 ar  
    35   19   24 1   
    36   20   21 ar  
    37   22   23 2   
    38   22   25 1   
    39   23   24 1   
    40   24   36 1   
    41   25   37 1   
    42   25   38 1   
@<TRIPOS>SUBSTRUCTURE
     1 FRZ         1 TEMP              0 ****  ****    0 ROOT
