@<TRIPOS>MOLECULE
FRZ
   38    27     1     0     0
SMALL
bcc


@<TRIPOS>ATOM
      1 C1         -2.6780   -0.2900   -4.2200 c1        1 FRZ     -0.132333
      2 C2         -1.2900   -0.2740   -4.1900 c1        1 FRZ     -0.025000
      3 N3         -0.6240   -0.2510   -2.9810 n1        1 FRZ     -0.026000
      4 C4         -1.3250   -0.2460   -1.8220 c1        1 FRZ     -0.071500
      5 C5         -2.7290   -0.2620   -1.8500 c1        1 FRZ     -0.073000
      6 C6         -3.3880   -0.2840   -3.0480 c1        1 FRZ     -0.132333
      7 N7          0.7280   -0.2320   -2.6640 n1        1 FRZ     -0.092000
      8 C8          0.8440   -0.2150   -1.3120 c2        1 FRZ     -0.025000
      9 C9         -0.4210   -0.2230   -0.7770 c1        1 FRZ     -0.144000
     10 C10        -0.8080   -0.2560    0.5540 c1        1 FRZ     -0.040000
     11 C11         2.2040   -0.2370   -1.0480 c1        1 FRZ     -0.024000
     12 C12         2.8540   -1.4480   -0.8690 c1        1 FRZ     -0.132333
     13 C13         4.1980   -1.4700   -0.5290 c1        1 FRZ     -0.132333
     14 C14         4.8910   -0.2800   -0.3680 c1        1 FRZ     -0.132333
     15 C15         4.2410    0.9310   -0.5460 c1        1 FRZ     -0.132333
     16 C16         2.8970    0.9530   -0.8860 c1        1 FRZ     -0.103000
     17 C22        -0.9570    0.7550    1.4700 c1        1 FRZ     -0.073000
     18 C23        -1.2650    0.4570    2.7830 c1        1 FRZ     -0.071500
     19 C24        -1.4180   -0.8310    3.1640 c1        1 FRZ     -0.046000
     20 N25        -1.2680   -1.8430    2.2430 n1        1 FRZ     -0.027000
     21 N26        -0.9630   -1.5460    0.9380 n1        1 FRZ     -0.026000
     22 C27        -1.4690    1.2580    3.8960 c1        1 FRZ      0.020000
     23 N28        -1.7440    0.4540    4.9440 n2        1 FRZ     -0.099000
     24 N29        -1.7160   -0.8440    4.5020 n1        1 FRZ     -0.154000
     25 N30        -1.5040    2.5800    4.4110 n2        1 FRZ     -0.286000
     26 H1         -3.1480   -0.3060   -5.0760 ha        1 FRZ      0.141500
     27 H2         -0.7840   -0.2780   -5.0260 ha        1 FRZ      0.179000
     28 H5         -3.2340   -0.2580   -1.0150 ha        1 FRZ      0.168500
     29 H6         -4.3640   -0.2960   -3.0690 ha        1 FRZ      0.141500
     30 H12         2.3660   -2.2860   -0.9830 ha        1 FRZ      0.141500
     31 H13         4.6560   -2.3230   -0.4040 ha        1 FRZ      0.141500
     32 H14         5.8380   -0.2960   -0.1280 ha        1 FRZ      0.141500
     33 H15         4.7290    1.7690   -0.4330 ha        1 FRZ      0.141500
     34 H16         2.4390    1.8060   -1.0120 ha        1 FRZ      0.145000
     35 H22        -0.8840    1.6860    1.1860 ha        1 FRZ      0.168500
     36 H29        -1.8690   -1.5860    5.0100 DU        1 FRZ      0.281000
     37 H301       -1.3520    3.2910    3.8570 hn        1 FRZ      0.195500
     38 H302       -1.6820    2.7210    5.2970 hn        1 FRZ      0.195500
@<TRIPOS>BOND
     1    1    6 1   
     2    1   26 1   
     3    2    3 1   
     4    2   27 1   
     5    4    5 1   
     6    5   28 1   
     7    6   29 1   
     8    7    8 1   
     9    8    9 1   
    10    8   11 1   
    11    9   10 1   
    12   10   21 1   
    13   11   16 1   
    14   12   13 1   
    15   12   30 1   
    16   13   31 1   
    17   14   15 1   
    18   14   32 1   
    19   15   33 1   
    20   16   34 1   
    21   17   18 1   
    22   17   35 1   
    23   19   20 1   
    24   22   23 1   
    25   23   24 1   
    26   25   37 1   
    27   25   38 1   
@<TRIPOS>SUBSTRUCTURE
     1 FRZ         1 TEMP              0 ****  ****    0 ROOT
