@<TRIPOS>MOLECULE
FRZ
   39    43     1     0     0
SMALL
bcc


@<TRIPOS>ATOM
      1 C1          0.1170   -0.1300   -0.0940 cc        1 FRZ     -0.179000
      2 C2          1.4940   -0.0600   -0.0360 cd        1 FRZ     -0.013300
      3 N3          2.1310   -0.0670    1.1950 na        1 FRZ      0.211000
      4 C4          1.3690   -0.1560    2.3980 cd        1 FRZ      0.007700
      5 C5         -0.0460   -0.2090    2.3220 cd        1 FRZ     -0.157000
      6 C6         -0.6580   -0.1960    1.0920 cc        1 FRZ     -0.067000
      7 N7          3.4580    0.0120    1.4340 nd        1 FRZ     -0.544100
      8 C8          3.6170   -0.0140    2.7890 cc        1 FRZ      0.511200
      9 C9          2.3260   -0.1270    3.4540 cc        1 FRZ     -0.424400
     10 C10         2.0740   -0.1500    4.8610 ca        1 FRZ      0.527100
     11 C11         4.9270    0.0350    3.4280 ca        1 FRZ     -0.121900
     12 C12         5.3330   -1.0000    4.2800 ca        1 FRZ     -0.095500
     13 C13         6.5910   -0.9540    4.8780 ca        1 FRZ     -0.129000
     14 C14         7.4460    0.1220    4.6300 ca        1 FRZ     -0.106000
     15 C15         7.0440    1.1500    3.7790 ca        1 FRZ     -0.129000
     16 C16         5.7900    1.1090    3.1710 ca        1 FRZ     -0.095500
     17 C22         0.9990   -0.8820    5.3990 ca        1 FRZ     -0.230300
     18 C23         0.8400   -0.8380    6.7880 ca        1 FRZ     -0.215200
     19 C24         1.7900   -0.0460    7.5430 ca        1 FRZ      0.293800
     20 N25         2.8380    0.6470    6.9340 nb        1 FRZ     -0.212000
     21 N26         2.9500    0.5830    5.6970 nb        1 FRZ     -0.248000
     22 C27        -0.0260   -1.3740    7.8180 cc        1 FRZ      0.266800
     23 N28         0.3780   -0.9300    9.0690 nd        1 FRZ     -0.429100
     24 N29         1.4250   -0.1650    8.9020 na        1 FRZ     -0.004800
     25 N30        -1.1510   -2.2520    7.6050 n4        1 FRZ     -0.720600
     26 H1         -0.3800   -0.1250   -1.0760 ha        1 FRZ      0.173000
     27 H2          2.1420    0.0070   -0.9310 h4        1 FRZ      0.199000
     28 H5         -0.6220   -0.2330    3.2570 ha        1 FRZ      0.140000
     29 H6         -1.7560   -0.2310    1.0070 ha        1 FRZ      0.154000
     30 H12         4.6660   -1.8540    4.4650 ha        1 FRZ      0.135500
     31 H13         6.9130   -1.7700    5.5400 ha        1 FRZ      0.140000
     32 H14         8.4390    0.1550    5.1040 ha        1 FRZ      0.142000
     33 H15         7.7190    1.9960    3.5790 ha        1 FRZ      0.140000
     34 H16         5.4780    1.9160    2.4910 ha        1 FRZ      0.135500
     35 H22         0.3390   -1.4700    4.7480 ha        1 FRZ      0.155000
     36 H29         1.8790    0.2680    9.6870 hn        1 FRZ      0.377700
     37 H301       -1.1460   -2.5420    6.6200 hn        1 FRZ      0.470467
     38 H302       -2.0270   -1.7570    7.8170 hn        1 FRZ      0.470467
     39 H303       -1.0770   -3.0810    8.2090 hn        1 FRZ      0.470467
@<TRIPOS>BOND
     1    1    2 2   
     2    1    6 1   
     3    1   26 1   
     4    2    3 1   
     5    2   27 1   
     6    3    4 1   
     7    3    7 1   
     8    4    5 1   
     9    4    9 2   
    10    5    6 2   
    11    5   28 1   
    12    6   29 1   
    13    7    8 2   
    14    8    9 1   
    15    8   11 1   
    16    9   10 1   
    17   10   17 ar  
    18   10   21 ar  
    19   11   12 ar  
    20   11   16 ar  
    21   12   13 ar  
    22   12   30 1   
    23   13   14 ar  
    24   13   31 1   
    25   14   15 ar  
    26   14   32 1   
    27   15   16 ar  
    28   15   33 1   
    29   16   34 1   
    30   17   18 ar  
    31   17   35 1   
    32   18   19 ar  
    33   18   22 1   
    34   19   20 ar  
    35   19   24 1   
    36   20   21 ar  
    37   22   23 2   
    38   22   25 1   
    39   23   24 1   
    40   24   36 1   
    41   25   37 1   
    42   25   38 1   
    43   25   39 1   
@<TRIPOS>SUBSTRUCTURE
     1 FRZ         1 TEMP              0 ****  ****    0 ROOT
