@<TRIPOS>MOLECULE
FRZ
   38    42     1     0     0
SMALL
bcc


@<TRIPOS>ATOM
      1 C1          0.0880   -0.0150   -0.0420 cc        1 FRZ     -0.180000
      2 C2          1.4630    0.0180   -0.0060 cd        1 FRZ     -0.038300
      3 N3          2.1230    0.0060    1.2150 na        1 FRZ      0.204000
      4 C4          1.3710   -0.0480    2.4310 cd        1 FRZ     -0.032300
      5 C5         -0.0500   -0.0750    2.3770 cd        1 FRZ     -0.120000
      6 C6         -0.6760   -0.0580    1.1590 cc        1 FRZ     -0.105000
      7 N7          3.4460    0.0390    1.4390 nd        1 FRZ     -0.565100
      8 C8          3.6150    0.0100    2.8020 cc        1 FRZ      0.465200
      9 C9          2.3340   -0.0490    3.4730 cc        1 FRZ     -0.344400
     10 C10         2.0570   -0.0630    4.8900 ca        1 FRZ      0.395100
     11 C11         4.9320    0.0150    3.4270 ca        1 FRZ     -0.097900
     12 C12         5.2170   -0.8750    4.4720 ca        1 FRZ     -0.096000
     13 C13         6.4780   -0.8750    5.0640 ca        1 FRZ     -0.135000
     14 C14         7.4610    0.0100    4.6200 ca        1 FRZ     -0.119000
     15 C15         7.1810    0.8950    3.5800 ca        1 FRZ     -0.135000
     16 C16         5.9230    0.8990    2.9800 ca        1 FRZ     -0.096000
     17 C22         1.0730   -0.9270    5.4040 ca        1 FRZ     -0.126300
     18 C23         0.8450   -0.8660    6.7770 ca        1 FRZ     -0.308200
     19 C24         1.6440    0.0730    7.5460 ca        1 FRZ      0.346800
     20 N25         2.6050    0.8880    6.9520 nb        1 FRZ     -0.284000
     21 N26         2.7770    0.8090    5.7150 nb        1 FRZ     -0.260000
     22 C27        -0.0180   -1.4990    7.7800 cc        1 FRZ      0.534800
     23 N28         0.2700   -0.9750    9.0170 nd        1 FRZ     -0.561100
     24 N29         1.2650   -0.0860    8.8830 na        1 FRZ     -0.087800
     25 N30        -1.0310   -2.4080    7.4810 nv        1 FRZ     -0.843800
     26 H1         -0.4270   -0.0050   -1.0120 ha        1 FRZ      0.155000
     27 H2          2.0960    0.0570   -0.9100 h4        1 FRZ      0.180000
     28 H5         -0.6020   -0.0990    3.3280 ha        1 FRZ      0.156000
     29 H6         -1.7740   -0.0750    1.0870 ha        1 FRZ      0.145000
     30 H12         4.4400   -1.5710    4.8230 ha        1 FRZ      0.138000
     31 H13         6.6960   -1.5740    5.8840 ha        1 FRZ      0.131500
     32 H14         8.4540    0.0100    5.0920 ha        1 FRZ      0.130000
     33 H15         7.9540    1.5950    3.2300 ha        1 FRZ      0.131500
     34 H16         5.7060    1.5990    2.1590 ha        1 FRZ      0.138000
     35 H22         0.5180   -1.6110    4.7490 ha        1 FRZ      0.153000
     36 H29         1.4710    0.5380    9.6300 hn        1 FRZ      0.335700
     37 H301       -1.4240   -2.8630    8.2800 hn        1 FRZ      0.396800
     38 H302       -0.7550   -3.0530    6.7700 hn        1 FRZ      0.396800
@<TRIPOS>BOND
     1    1    2 2   
     2    1    6 1   
     3    1   26 1   
     4    2    3 1   
     5    2   27 1   
     6    3    4 1   
     7    3    7 1   
     8    4    5 1   
     9    4    9 2   
    10    5    6 2   
    11    5   28 1   
    12    6   29 1   
    13    7    8 2   
    14    8    9 1   
    15    8   11 1   
    16    9   10 1   
    17   10   17 ar  
    18   10   21 ar  
    19   11   12 ar  
    20   11   16 ar  
    21   12   13 ar  
    22   12   30 1   
    23   13   14 ar  
    24   13   31 1   
    25   14   15 ar  
    26   14   32 1   
    27   15   16 ar  
    28   15   33 1   
    29   16   34 1   
    30   17   18 ar  
    31   17   35 1   
    32   18   19 ar  
    33   18   22 1   
    34   19   20 ar  
    35   19   24 1   
    36   20   21 ar  
    37   22   23 2   
    38   22   25 1   
    39   23   24 1   
    40   24   36 1   
    41   25   37 1   
    42   25   38 1   
@<TRIPOS>SUBSTRUCTURE
     1 FRZ         1 TEMP              0 ****  ****    0 ROOT
