@<TRIPOS>MOLECULE
FS7
   59    62     1     0     0
SMALL
bcc


@<TRIPOS>ATOM
      1 N01         0.8390   -0.6740   -0.7270 nb        1 FS7     -0.633000
      2 C02         1.7410    0.3640   -0.6830 ca        1 FS7      0.395600
      3 C03         2.5220    0.5600    0.5040 ca        1 FS7     -0.149300
      4 C04         3.4200    1.5940    0.5800 ca        1 FS7     -0.124000
      5 C05         3.5900    2.4820   -0.5080 ca        1 FS7     -0.111000
      6 C06         2.8610    2.3180   -1.6610 ca        1 FS7     -0.129000
      7 C07         1.9230    1.2620   -1.7810 ca        1 FS7     -0.109300
      8 C08         1.1420    1.0250   -2.9510 ca        1 FS7     -0.107600
      9 C09         1.3060    1.8720   -4.1460 c         1 FS7      0.672700
     10 O10         1.5160    1.5260   -5.3140 o         1 FS7     -0.571000
     11 O11         1.2070    3.2230   -3.9080 os        1 FS7     -0.415900
     12 C12         1.1070    4.1140   -5.0240 c3        1 FS7      0.093100
     13 C13         0.2480    5.2760   -4.5610 c3        1 FS7     -0.097100
     14 C14         2.5140    4.6160   -5.4020 c         1 FS7      0.646100
     15 O15         2.8890    5.7710   -5.1800 o         1 FS7     -0.519100
     16 N16         3.3440    3.6700   -6.0450 n         1 FS7     -0.453100
     17 C17         4.6170    3.8540   -6.5170 ca        1 FS7      0.229600
     18 C18         5.3290    5.0910   -6.4380 ca        1 FS7     -0.216500
     19 C19         6.5990    5.1990   -6.9450 ca        1 FS7      0.048000
     20 C20         7.2760    4.1110   -7.5580 ca        1 FS7     -0.650500
     21 S21         8.6950    4.2790   -8.2040 sy        1 FS7      1.516200
     22 O22         9.1110    3.2620   -9.0380 o         1 FS7     -0.579800
     23 O23         9.1400    5.5730   -8.3770 o         1 FS7     -0.579800
     24 N24         9.7620    3.8160   -6.6240 n4        1 FS7     -0.780500
     25 C25         6.5600    2.8850   -7.6330 ca        1 FS7      0.048000
     26 C26         5.2900    2.7470   -7.1380 ca        1 FS7     -0.216500
     27 C27         0.2360   -0.0230   -2.9960 ca        1 FS7     -0.101600
     28 C28        -0.5460   -0.2910   -4.2310 c3        1 FS7     -0.048100
     29 C29        -1.7370   -1.2120   -4.0250 c3        1 FS7     -0.064700
     30 C30        -2.3000   -1.6480   -5.3600 c3        1 FS7     -0.092100
     31 C31        -1.3190   -2.4100   -3.1920 c3        1 FS7     -0.080400
     32 C32        -0.9020   -1.9750   -1.8070 c3        1 FS7     -0.136700
     33 C33         0.1110   -0.8600   -1.8220 ca        1 FS7      0.434600
     34 H1          2.3820   -0.1310    1.3510 ha        1 FS7      0.162000
     35 H2          4.0150    1.7470    1.4930 ha        1 FS7      0.146000
     36 H3          4.3090    3.3100   -0.4140 ha        1 FS7      0.137000
     37 H4          2.9830    3.0220   -2.4980 ha        1 FS7      0.131000
     38 H5          0.6430    3.5910   -5.9090 h1        1 FS7      0.097700
     39 H6          0.1660    6.0230   -5.3870 hc        1 FS7      0.072700
     40 H7         -0.7680    4.9030   -4.2880 hc        1 FS7      0.072700
     41 H8          0.7050    5.7690   -3.6690 hc        1 FS7      0.072700
     42 H9          2.9420    2.7560   -6.1830 hn        1 FS7      0.366500
     43 H10         4.8540    5.9770   -5.9760 ha        1 FS7      0.189000
     44 H11         7.1140    6.1790   -6.8930 ha        1 FS7      0.165500
     45 H12        10.3680    4.5910   -6.3730 hn        1 FS7      0.446467
     46 H13         9.1800    3.5960   -5.8250 hn        1 FS7      0.446467
     47 H14         7.0450    2.0200   -8.1270 ha        1 FS7      0.165500
     48 H15         4.7760    1.7740   -7.2280 ha        1 FS7      0.189000
     49 H16        -0.9060    0.6780   -4.6710 hc        1 FS7      0.065200
     50 H17         0.1540   -0.7490   -4.9870 hc        1 FS7      0.065200
     51 H18        -2.5360   -0.6470   -3.4650 hc        1 FS7      0.058700
     52 H19        -3.2120   -2.2740   -5.2060 hc        1 FS7      0.041367
     53 H20        -1.5510   -2.2500   -5.9280 hc        1 FS7      0.041367
     54 H21        -2.5790   -0.7580   -5.9730 hc        1 FS7      0.041367
     55 H22        -0.4760   -2.9480   -3.7010 hc        1 FS7      0.055700
     56 H23        -2.1750   -3.1300   -3.1080 hc        1 FS7      0.055700
     57 H24        -0.4950   -2.8600   -1.2470 hc        1 FS7      0.076200
     58 H25        -1.8020   -1.6080   -1.2390 hc        1 FS7      0.076200
     59 H243       10.3480    3.0100   -6.8230 hn        1 FS7      0.446467
@<TRIPOS>BOND
     1    1    2 ar  
     2    1   33 ar  
     3    2    3 ar  
     4    2    7 ar  
     5    3    4 ar  
     6    3   34 1   
     7    4    5 ar  
     8    4   35 1   
     9    5    6 ar  
    10    5   36 1   
    11    6    7 ar  
    12    6   37 1   
    13    7    8 ar  
    14    8    9 1   
    15    8   27 ar  
    16    9   10 2   
    17    9   11 1   
    18   11   12 1   
    19   12   13 1   
    20   12   14 1   
    21   12   38 1   
    22   13   39 1   
    23   13   40 1   
    24   13   41 1   
    25   14   15 2   
    26   14   16 1   
    27   16   17 1   
    28   16   42 1   
    29   17   18 ar  
    30   17   26 ar  
    31   18   19 ar  
    32   18   43 1   
    33   19   20 ar  
    34   19   44 1   
    35   20   21 1   
    36   20   25 ar  
    37   21   22 2   
    38   21   23 2   
    39   21   24 1   
    40   24   45 1   
    41   24   46 1   
    42   24   59 1   
    43   25   26 ar  
    44   25   47 1   
    45   26   48 1   
    46   27   28 1   
    47   27   33 ar  
    48   28   29 1   
    49   28   49 1   
    50   28   50 1   
    51   29   30 1   
    52   29   31 1   
    53   29   51 1   
    54   30   52 1   
    55   30   53 1   
    56   30   54 1   
    57   31   32 1   
    58   31   55 1   
    59   31   56 1   
    60   32   33 1   
    61   32   57 1   
    62   32   58 1   
@<TRIPOS>SUBSTRUCTURE
     1 FS7         1 TEMP              0 ****  ****    0 ROOT
