@<TRIPOS>MOLECULE
FS7
   59    62     1     0     0
SMALL
bcc


@<TRIPOS>ATOM
      1 N01         0.8940   -0.7520   -0.7580 nb        1 FS7     -0.633000
      2 C02         1.8010    0.2830   -0.7070 ca        1 FS7      0.395600
      3 C03         2.6030    0.4490    0.4700 ca        1 FS7     -0.149300
      4 C04         3.5060    1.4780    0.5520 ca        1 FS7     -0.124000
      5 C05         3.6610    2.3900   -0.5180 ca        1 FS7     -0.111000
      6 C06         2.9110    2.2550   -1.6600 ca        1 FS7     -0.129000
      7 C07         1.9670    1.2050   -1.7880 ca        1 FS7     -0.109300
      8 C08         1.1630    0.9980   -2.9480 ca        1 FS7     -0.107600
      9 C09         1.3090    1.8710   -4.1270 c         1 FS7      0.672700
     10 O10         1.4980    1.5500   -5.3060 o         1 FS7     -0.571000
     11 O11         1.2200    3.2160   -3.8560 os        1 FS7     -0.415900
     12 C12         1.1030    4.1320   -4.9500 c3        1 FS7      0.093100
     13 C13         0.2560    5.2870   -4.4460 c3        1 FS7     -0.097100
     14 C14         2.5050    4.6390   -5.3410 c         1 FS7      0.646100
     15 O15         2.8870    5.7880   -5.1010 o         1 FS7     -0.519100
     16 N16         3.3220    3.7050   -6.0170 ns        1 FS7     -0.453100
     17 C17         4.5870    3.8950   -6.5060 ca        1 FS7      0.229600
     18 C18         5.3030    5.1290   -6.4130 ca        1 FS7     -0.216500
     19 C19         6.5650    5.2450   -6.9390 ca        1 FS7      0.048000
     20 C20         7.2290    4.1680   -7.5860 ca        1 FS7     -0.650500
     21 S21         8.6390    4.3460   -8.2510 sy        1 FS7      1.516200
     22 O22         9.0380    3.3450   -9.1120 o         1 FS7     -0.579800
     23 O23         9.0830    5.6420   -8.4050 o         1 FS7     -0.579800
     24 N24         9.7300    3.8490   -6.6990 nz        1 FS7     -0.780500
     25 C25         6.5090    2.9460   -7.6740 ca        1 FS7      0.048000
     26 C26         5.2470    2.8000   -7.1610 ca        1 FS7     -0.216500
     27 C27         0.2520   -0.0460   -3.0000 ca        1 FS7     -0.101600
     28 C28        -0.5520   -0.2840   -4.2270 c3        1 FS7     -0.048100
     29 C29        -1.7440   -1.2040   -4.0190 c3        1 FS7     -0.064700
     30 C30        -2.3340   -1.6070   -5.3530 c3        1 FS7     -0.092100
     31 C31        -1.3150   -2.4230   -3.2230 c3        1 FS7     -0.080400
     32 C32        -0.8710   -2.0210   -1.8360 c3        1 FS7     -0.136700
     33 C33         0.1460   -0.9090   -1.8440 ca        1 FS7      0.434600
     34 H1          2.4770   -0.2610    1.3040 ha        1 FS7      0.162000
     35 H2          4.1190    1.6090    1.4580 ha        1 FS7      0.146000
     36 H3          4.3840    3.2140   -0.4180 ha        1 FS7      0.137000
     37 H4          3.0200    2.9770   -2.4840 ha        1 FS7      0.131000
     38 H5          0.6220    3.6320   -5.8380 h1        1 FS7      0.097700
     39 H6          0.1630    6.0530   -5.2530 hc        1 FS7      0.072700
     40 H7          0.7290    5.7570   -3.5510 hc        1 FS7      0.072700
     41 H8         -0.7560    4.9100   -4.1640 hc        1 FS7      0.072700
     42 H9          2.9140    2.7950   -6.1680 hn        1 FS7      0.366500
     43 H10         4.8380    6.0060   -5.9260 ha        1 FS7      0.189000
     44 H11         7.0840    6.2220   -6.8750 ha        1 FS7      0.165500
     45 H12        10.3100    3.0460   -6.9230 hn        1 FS7      0.446467
     46 H13        10.3420    4.6180   -6.4420 hn        1 FS7      0.446467
     47 H14         6.9830    2.0900   -8.1940 ha        1 FS7      0.165500
     48 H15         4.7290    1.8310   -7.2630 ha        1 FS7      0.189000
     49 H16         0.1320   -0.7270   -5.0050 hc        1 FS7      0.065200
     50 H17        -0.9170    0.6970   -4.6390 hc        1 FS7      0.065200
     51 H18        -2.5300   -0.6490   -3.4320 hc        1 FS7      0.058700
     52 H19        -3.2450   -2.2330   -5.1960 hc        1 FS7      0.041367
     53 H20        -1.5970   -2.1990   -5.9490 hc        1 FS7      0.041367
     54 H21        -2.6200   -0.7020   -5.9410 hc        1 FS7      0.041367
     55 H22        -2.1720   -3.1410   -3.1380 hc        1 FS7      0.055700
     56 H23        -0.4850   -2.9520   -3.7590 hc        1 FS7      0.055700
     57 H24        -1.7580   -1.6640   -1.2430 hc        1 FS7      0.076200
     58 H25        -0.4570   -2.9210   -1.3040 hc        1 FS7      0.076200
     59 H243        9.1600    3.6140   -5.8940 hn        1 FS7      0.446467
@<TRIPOS>BOND
     1    1    2 ar  
     2    1   33 ar  
     3    2    3 ar  
     4    2    7 ar  
     5    3    4 ar  
     6    3   34 1   
     7    4    5 ar  
     8    4   35 1   
     9    5    6 ar  
    10    5   36 1   
    11    6    7 ar  
    12    6   37 1   
    13    7    8 ar  
    14    8    9 1   
    15    8   27 ar  
    16    9   10 2   
    17    9   11 1   
    18   11   12 1   
    19   12   13 1   
    20   12   14 1   
    21   12   38 1   
    22   13   39 1   
    23   13   40 1   
    24   13   41 1   
    25   14   15 2   
    26   14   16 1   
    27   16   17 1   
    28   16   42 1   
    29   17   18 ar  
    30   17   26 ar  
    31   18   19 ar  
    32   18   43 1   
    33   19   20 ar  
    34   19   44 1   
    35   20   21 1   
    36   20   25 ar  
    37   21   22 2   
    38   21   23 2   
    39   21   24 1   
    40   24   45 1   
    41   24   46 1   
    42   24   59 1   
    43   25   26 ar  
    44   25   47 1   
    45   26   48 1   
    46   27   28 1   
    47   27   33 ar  
    48   28   29 1   
    49   28   49 1   
    50   28   50 1   
    51   29   30 1   
    52   29   31 1   
    53   29   51 1   
    54   30   52 1   
    55   30   53 1   
    56   30   54 1   
    57   31   32 1   
    58   31   55 1   
    59   31   56 1   
    60   32   33 1   
    61   32   57 1   
    62   32   58 1   
@<TRIPOS>SUBSTRUCTURE
     1 FS7         1 TEMP              0 ****  ****    0 ROOT
