@<TRIPOS>MOLECULE
FS7
   60    63     1     0     0
SMALL
bcc


@<TRIPOS>ATOM
      1 N01         0.7760   -0.4520   -0.4380 nb        1 FS7     -0.613000
      2 C02         2.0700   -0.0480   -0.6780 ca        1 FS7      0.403600
      3 C03         3.0210   -0.0650    0.3950 ca        1 FS7     -0.126300
      4 C04         4.3170    0.3330    0.1770 ca        1 FS7     -0.123000
      5 C05         4.7360    0.7610   -1.1040 ca        1 FS7     -0.090000
      6 C06         3.8460    0.7930   -2.1510 ca        1 FS7     -0.159000
      7 C07         2.5010    0.3900   -1.9680 ca        1 FS7     -0.113300
      8 C08         1.5250    0.3880   -3.0130 ca        1 FS7     -0.133600
      9 C09         1.9520    0.8310   -4.3430 c         1 FS7      0.695700
     10 O10         2.8060    0.4010   -5.1240 o         1 FS7     -0.570000
     11 O11         1.3510    2.0190   -4.7640 os        1 FS7     -0.448900
     12 C12         1.3190    2.3060   -6.1510 c3        1 FS7      0.114100
     13 C13         0.0490    3.1030   -6.4100 c3        1 FS7     -0.110100
     14 C14         2.5280    3.1360   -6.5990 c         1 FS7      0.525100
     15 O15         2.6040    3.8870   -7.5510 o         1 FS7     -0.382100
     16 N16         3.8060    2.9420   -5.7660 n4        1 FS7     -0.591200
     17 C17         4.9670    3.6990   -6.2290 ca        1 FS7      0.089600
     18 C18         5.1850    5.0100   -5.7680 ca        1 FS7     -0.118500
     19 C19         6.2680    5.7350   -6.2580 ca        1 FS7      0.027000
     20 C20         7.1550    5.1850   -7.2020 ca        1 FS7     -0.474500
     21 S21         8.3080    6.1130   -7.9100 sy        1 FS7      1.466200
     22 O22         8.7850    5.5740   -9.0810 o         1 FS7     -0.533800
     23 O23         8.1340    7.4550   -7.6760 o         1 FS7     -0.533800
     24 N24         9.7550    5.7460   -6.7510 n4        1 FS7     -0.800500
     25 C25         6.9290    3.8640   -7.6300 ca        1 FS7      0.027000
     26 C26         5.8540    3.1180   -7.1540 ca        1 FS7     -0.118500
     27 C27         0.2300   -0.0400   -2.7770 ca        1 FS7     -0.073600
     28 C28        -0.7570   -0.1410   -3.8830 c3        1 FS7     -0.054100
     29 C29        -2.2010   -0.1990   -3.4090 c3        1 FS7     -0.063700
     30 C30        -3.1210   -0.5070   -4.5700 c3        1 FS7     -0.095100
     31 C31        -2.3280   -1.2480   -2.3200 c3        1 FS7     -0.084400
     32 C32        -1.5220   -0.8590   -1.1030 c3        1 FS7     -0.140700
     33 C33        -0.1070   -0.4530   -1.4280 ca        1 FS7      0.442600
     34 H1          2.6930   -0.4050    1.3920 ha        1 FS7      0.178000
     35 H2          5.0490    0.3150    1.0010 ha        1 FS7      0.160000
     36 H3          5.7860    1.0570   -1.2490 ha        1 FS7      0.135000
     37 H4          4.1770    1.1000   -3.1540 ha        1 FS7      0.087000
     38 H5          1.3570    1.3570   -6.7680 h1        1 FS7      0.133700
     39 H6          0.0310    3.4540   -7.4710 hc        1 FS7      0.092033
     40 H7         -0.0240    3.9780   -5.7210 hc        1 FS7      0.092033
     41 H8         -0.8310    2.4360   -6.2250 hc        1 FS7      0.092033
     42 H9          4.0210    1.9240   -5.7750 hn        1 FS7      0.489800
     43 H10         4.5060    5.4880   -5.0380 ha        1 FS7      0.193000
     44 H11         6.4060    6.7810   -5.9130 ha        1 FS7      0.197000
     45 H12         9.5310    5.1040   -5.9950 hn        1 FS7      0.470133
     46 H13        10.0970    6.6120   -6.3240 hn        1 FS7      0.470133
     47 H14         7.5980    3.4060   -8.3890 ha        1 FS7      0.197000
     48 H15         5.7100    2.0870   -7.5280 ha        1 FS7      0.193000
     49 H16        -0.6360    0.7290   -4.5860 hc        1 FS7      0.058200
     50 H17        -0.5280   -1.0790   -4.4640 hc        1 FS7      0.058200
     51 H18        -2.4820    0.8040   -2.9810 hc        1 FS7      0.060700
     52 H19        -2.9000   -1.5160   -4.9960 hc        1 FS7      0.045367
     53 H20        -3.0010    0.2550   -5.3770 hc        1 FS7      0.045367
     54 H21        -4.1850   -0.4950   -4.2280 hc        1 FS7      0.045367
     55 H22        -1.9880   -2.2430   -2.7100 hc        1 FS7      0.066700
     56 H23        -3.4050   -1.3560   -2.0230 hc        1 FS7      0.066700
     57 H24        -1.5180   -1.7140   -0.3730 hc        1 FS7      0.087200
     58 H25        -2.0120    0.0130   -0.5860 hc        1 FS7      0.087200
     59 H162        3.5780    3.2030   -4.7950 hn        1 FS7      0.489800
     60 H243       10.5370    5.3420   -7.2740 hn        1 FS7      0.470133
@<TRIPOS>BOND
     1    1    2 ar  
     2    1   33 ar  
     3    2    3 ar  
     4    2    7 ar  
     5    3    4 ar  
     6    3   34 1   
     7    4    5 ar  
     8    4   35 1   
     9    5    6 ar  
    10    5   36 1   
    11    6    7 ar  
    12    6   37 1   
    13    7    8 ar  
    14    8    9 1   
    15    8   27 ar  
    16    9   10 2   
    17    9   11 1   
    18   11   12 1   
    19   12   13 1   
    20   12   14 1   
    21   12   38 1   
    22   13   39 1   
    23   13   40 1   
    24   13   41 1   
    25   14   15 2   
    26   14   16 1   
    27   16   17 1   
    28   16   42 1   
    29   16   59 1   
    30   17   18 ar  
    31   17   26 ar  
    32   18   19 ar  
    33   18   43 1   
    34   19   20 ar  
    35   19   44 1   
    36   20   21 1   
    37   20   25 ar  
    38   21   22 2   
    39   21   23 2   
    40   21   24 1   
    41   24   45 1   
    42   24   46 1   
    43   24   60 1   
    44   25   26 ar  
    45   25   47 1   
    46   26   48 1   
    47   27   28 1   
    48   27   33 ar  
    49   28   29 1   
    50   28   49 1   
    51   28   50 1   
    52   29   30 1   
    53   29   31 1   
    54   29   51 1   
    55   30   52 1   
    56   30   53 1   
    57   30   54 1   
    58   31   32 1   
    59   31   55 1   
    60   31   56 1   
    61   32   33 1   
    62   32   57 1   
    63   32   58 1   
@<TRIPOS>SUBSTRUCTURE
     1 FS7         1 TEMP              0 ****  ****    0 ROOT
