@<TRIPOS>MOLECULE
FS8
   66    67     1     0     0
SMALL
bcc


@<TRIPOS>ATOM
      1 OAA        -0.4420    0.6670    0.0430 o         1 FS8     -0.351000
      2 OAC        -6.9710   -3.3670  -18.1280 oh        1 FS8     -0.148000
      3 OAD        -5.2760   -2.0010  -16.2480 oh        1 FS8     -0.316000
      4 CAF         3.1740   -2.9730    1.7700 c1        1 FS8     -0.155000
      5 CAG         2.8900   -4.0890    2.1040 c1        1 FS8     -0.173000
      6 CAH         3.5580   -1.6830    1.3790 c2        1 FS8     -0.032000
      7 CAI         0.1360    2.0720   -4.9560 ca        1 FS8     -0.127000
      8 CAJ        -2.7850    1.0390   -5.8070 c3        1 FS8     -0.197000
      9 CAK         0.5140   -1.4100    1.7830 c2        1 FS8     -0.108000
     10 CAL         2.7410   -0.6920    0.9840 c2        1 FS8     -0.130000
     11 CAM         1.4010    1.5140   -4.8280 ca        1 FS8     -0.119000
     12 CAN        -3.3330    0.1510   -9.1770 c3        1 FS8     -0.305000
     13 CAO        -4.3680    0.3020  -10.1790 c1        1 FS8      0.025000
     14 CAP        -3.8950    0.7060   -6.7140 c2        1 FS8      0.073000
     15 CAQ        -4.3180    2.7480   -4.8160 c2        1 FS8     -0.340000
     16 CAR        -0.4200    1.2980   -2.7070 ca        1 FS8     -0.144000
     17 CAS        -4.8970   -1.1390   -7.9920 c2        1 FS8     -0.092000
     18 CAT        -6.0530   -3.0300  -18.9540 c1        1 FS8     -0.022000
     19 CAU        -6.2560   -1.1330  -10.8010 c1        1 FS8     -0.009000
     20 CAV        -6.6380    3.0540   -5.6080 c3        1 FS8     -0.223000
     21 CAW        -5.0920   -1.1400  -14.0080 c2        1 FS8     -0.315000
     22 NAX         1.2700    0.0730   -1.3950 n         1 FS8     -0.320000
     23 CBA         0.6280    0.0640   -0.1580 c2        1 FS8      0.356000
     24 CBB        -6.1520    0.9600   -7.6560 c2        1 FS8      0.336000
     25 CBC        -3.0450    2.1380   -4.8370 c2        1 FS8      0.215000
     26 CBD        -0.7810    1.9590   -3.8960 ca        1 FS8      0.008000
     27 CBE         1.7790    0.8570   -3.6490 ca        1 FS8      0.053000
     28 CBF        -3.5900   -0.4860   -7.6340 c3        1 FS8      0.243000
     29 CBG         1.2910   -0.7400    0.9190 c2        1 FS8     -0.139000
     30 CBH        -5.7960   -0.0770   -9.9180 c3        1 FS8     -0.172000
     31 CBI        -5.3300    2.3730   -5.6980 c2        1 FS8      0.197000
     32 CBJ         0.8630    0.7420   -2.5530 ca        1 FS8      0.075000
     33 CBK        -5.1110    1.3510   -6.6640 c2        1 FS8     -0.266000
     34 CBL        -5.8430   -0.2430   -8.4280 c2        1 FS8     -0.356000
     35 CBM        -5.6630   -1.9210  -14.9250 c2        1 FS8     -0.046000
     36 HOAC       -6.8490   -3.1040  -17.1870 ho        1 FS8      0.169000
     37 HAF         0.9400   -2.0100    2.6000 ha        1 FS8      0.139000
     38 HAG        -0.5840   -1.3860    1.7170 ha        1 FS8      0.139000
     39 HAH         3.1880    0.2770    0.6920 ha        1 FS8      0.137000
     40 HAI        -0.1290    2.5980   -5.8860 ha        1 FS8      0.152000
     41 HAJ        -2.5180    0.0680   -5.2660 hc        1 FS8      0.207000
     42 HAK         2.6410   -5.0780    2.3970 ha        1 FS8      0.230000
     43 HAL         4.6520   -1.5060    1.4020 ha        1 FS8      0.147000
     44 HAM         2.1250    1.5840   -5.6560 ha        1 FS8      0.166000
     45 HAN        -2.8440    1.1440   -9.0110 hc        1 FS8      0.152500
     46 HAO        -6.4430    0.8090  -10.2500 hc        1 FS8      0.210000
     47 HAP        -1.8660    1.2450   -6.4370 hc        1 FS8      0.207000
     48 HAQ        -4.5290    3.5440   -4.0820 ha        1 FS8      0.152000
     49 HAR        -1.1530    1.2160   -1.8830 ha        1 FS8      0.189000
     50 HAS        -4.8410   -2.1730   -8.3570 ha        1 FS8      0.142000
     51 HAT        -6.5120   -2.6030  -14.7580 h4        1 FS8      0.156000
     52 HATA       -5.1760   -2.4620  -18.5580 ha        1 FS8     -0.002000
     53 HAU        -6.6870    3.7630   -4.7470 hc        1 FS8      0.122333
     54 HAUA       -6.9620   -1.8440  -10.3400 ha        1 FS8      0.052000
     55 HAV        -6.8340    3.6140   -6.5620 hc        1 FS8      0.122333
     56 HAVA       -7.4580    2.2940   -5.5100 hc        1 FS8      0.122333
     57 HAW        -5.4470   -1.1180  -12.9620 ha        1 FS8      0.149000
     58 HAWA       -2.5580   -0.5460   -9.6080 hc        1 FS8      0.152500
     59 HNAX        2.1330   -0.4260   -1.4660 hn        1 FS8      0.253000
     60 HNAY       -2.2950    3.2230   -3.2830 hn        1 FS8      0.258000
     61 HBM        -4.2450   -0.4810  -14.2340 ha        1 FS8      0.149000
     62 FAE         3.0230    0.3270   -3.5580 f         1 FS8     -0.098000
     63 NAY        -2.0720    2.5480   -3.9860 nh        1 FS8     -0.225000
     64 OAB        -7.1830    1.6300   -7.8230 o         1 FS8     -0.338000
     65 OAZ        -2.5770   -1.1890   -7.2460 o         1 FS8     -0.606000
     66 HOAD       -4.5230   -1.4110  -16.3910 ho        1 FS8      0.219000
@<TRIPOS>BOND
     1    1   23 1   
     2    2   18 1   
     3    2   36 1   
     4    3   35 1   
     5    3   66 1   
     6    4    5 1   
     7    4    6 1   
     8    5   42 1   
     9    6   10 1   
    10    6   43 1   
    11    7   11 1   
    12    7   26 1   
    13    7   40 1   
    14    8   14 1   
    15    8   25 1   
    16    8   41 1   
    17    8   47 1   
    18    9   29 1   
    19    9   37 1   
    20    9   38 1   
    21   10   29 1   
    22   10   39 1   
    23   11   27 1   
    24   11   44 1   
    25   12   13 1   
    26   12   28 1   
    27   12   45 1   
    28   12   58 1   
    29   13   30 1   
    30   14   28 1   
    31   14   33 1   
    32   15   25 1   
    33   15   31 1   
    34   15   48 1   
    35   16   26 1   
    36   16   32 1   
    37   16   49 1   
    38   17   28 1   
    39   17   34 1   
    40   17   50 1   
    41   18   52 1   
    42   19   30 1   
    43   19   54 1   
    44   20   31 1   
    45   20   53 1   
    46   20   55 1   
    47   20   56 1   
    48   21   35 1   
    49   21   57 1   
    50   21   61 1   
    51   22   23 1   
    52   22   32 1   
    53   22   59 1   
    54   23   29 1   
    55   24   33 1   
    56   24   34 1   
    57   24   64 1   
    58   25   63 1   
    59   26   63 1   
    60   27   32 1   
    61   27   62 1   
    62   28   65 1   
    63   30   34 1   
    64   30   46 1   
    65   31   33 1   
    66   35   51 1   
    67   60   63 1   
@<TRIPOS>SUBSTRUCTURE
     1 FS8         1 TEMP              0 ****  ****    0 ROOT
