@<TRIPOS>MOLECULE
FS8
   66    66     1     0     0
SMALL
bcc


@<TRIPOS>ATOM
      1 OAA         2.1730   -1.8210   -0.8120 o         1 FS8     -0.347000
      2 OAC        -1.1300    0.1140  -15.2860 oh        1 FS8     -0.159000
      3 OAD        -3.9700   -1.6430  -14.0290 oh        1 FS8     -0.137000
      4 CAF         3.7080    3.3740   -0.3860 c1        1 FS8     -0.143000
      5 CAG         2.3680    2.9750   -0.2720 c2        1 FS8     -0.048000
      6 CAH         4.8390    3.7570   -0.4860 c1        1 FS8     -0.189000
      7 CAI        -1.3660   -3.1190   -4.2040 c2        1 FS8     -0.077000
      8 CAJ        -3.9690   -1.7760   -6.0280 ca        1 FS8     -0.207000
      9 CAK         1.8990    1.7170   -0.3280 c2        1 FS8     -0.115000
     10 CAL         3.9170    0.3260   -0.0000 c2        1 FS8     -0.117000
     11 CAM        -0.1230   -3.5020   -3.8570 c2        1 FS8     -0.215000
     12 CAN        -4.7630    1.7100  -10.2850 c3        1 FS8     -0.210000
     13 CAO        -5.4640    2.3010   -9.1570 c1        1 FS8     -0.046000
     14 CAP        -4.9690   -1.5850   -6.9730 ca        1 FS8     -0.059000
     15 CAQ        -5.3120   -0.5760   -4.3960 ca        1 FS8     -0.194000
     16 CAR        -0.8940   -0.8330   -3.2590 c1        1 FS8     -0.143000
     17 CAS        -5.9560   -0.4760   -9.7520 c1        1 FS8     -0.084000
     18 CAT        -1.9480    1.0450  -15.6070 c1        1 FS8     -0.018000
     19 CAU        -7.5530    2.3680   -7.8880 c1        1 FS8      0.008000
     20 CAV        -7.5710    0.3090   -4.9850 c3        1 FS8     -0.204000
     21 CAW        -3.7150    0.1530  -12.4300 c2        1 FS8     -0.232000
     22 NAX         1.2740   -0.3340   -2.3260 ns        1 FS8     -0.285000
     23 CBA         2.0140   -0.6420   -1.1830 c2        1 FS8      0.325000
     24 CBB        -7.2030   -0.7460   -7.6640 c2        1 FS8      0.321000
     25 CBC        -4.1240   -1.2780   -4.7140 ca        1 FS8      0.078000
     26 CBD        -1.7860   -1.6830   -4.0730 c3        1 FS8     -0.024000
     27 CBE         0.8200   -2.5720   -3.2540 c2        1 FS8      0.224000
     28 CBF        -5.1500    0.3100  -10.5790 c2        1 FS8     -0.184000
     29 CBG         2.6790    0.5020   -0.4830 c2        1 FS8     -0.133000
     30 CBH        -6.4100    1.5640   -8.3320 c3        1 FS8     -0.264000
     31 CBI        -6.3190   -0.4020   -5.3430 ca        1 FS8      0.002000
     32 CBJ         0.4140   -1.2650   -2.9460 c2        1 FS8     -0.103000
     33 CBK        -6.1420   -0.9020   -6.6440 ca        1 FS8     -0.202000
     34 CBL        -6.8740    0.1790   -8.8290 c3        1 FS8     -0.159000
     35 CBM        -3.3140   -0.6240  -13.5830 c1        1 FS8      0.018000
     36 HOAC       -1.4920   -0.6150  -14.7200 ho        1 FS8      0.184000
     37 HAF         4.4540    1.1220    0.5350 ha        1 FS8      0.135500
     38 HAG         0.8080    1.5590   -0.2330 ha        1 FS8      0.137000
     39 HAH         4.4490   -0.6300   -0.1110 ha        1 FS8      0.135500
     40 HAI        -2.0940   -3.8300   -4.6260 ha        1 FS8      0.158000
     41 HAJ        -3.0690   -2.3420   -6.3100 ha        1 FS8      0.132000
     42 HAK         1.6550    3.8130   -0.1310 ha        1 FS8      0.143000
     43 HAL         5.8390    4.0970   -0.5750 ha        1 FS8      0.227000
     44 HAM         0.2280   -4.5380   -3.9960 ha        1 FS8      0.162000
     45 HAN        -3.6580    1.7940  -10.0550 hc        1 FS8      0.157000
     46 HAO        -5.8320    1.4080   -7.3430 hc        1 FS8      0.227000
     47 HAP        -4.8460   -1.9780   -7.9980 ha        1 FS8      0.158000
     48 HAQ        -5.4590   -0.1720   -3.3810 ha        1 FS8      0.142000
     49 HAR        -1.5960   -1.2340   -5.1210 h1        1 FS8      0.160000
     50 HAS        -7.8410    0.3170   -9.4160 hc        1 FS8      0.175000
     51 HAT        -3.0030    0.9540  -15.2330 ha        1 FS8     -0.016000
     52 HATA       -1.3420    2.5930  -13.8920 ha        1 FS8      0.004000
     53 HAU        -7.4910    0.8050   -3.9880 hc        1 FS8      0.100000
     54 HAUA       -7.3920    3.4590   -7.9020 ha        1 FS8      0.060000
     55 HAV        -7.8160    1.0840   -5.7580 hc        1 FS8      0.100000
     56 HAVA       -8.4200   -0.4210   -4.9560 hc        1 FS8      0.100000
     57 HAW        -4.9420    2.3720  -11.1860 hc        1 FS8      0.157000
     58 HAWA       -3.2370    1.1210  -12.2260 h4        1 FS8      0.184000
     59 HNAX        0.9900    0.6170   -2.4420 hn        1 FS8      0.243000
     60 HNAY       -3.2950   -0.9530   -2.8970 hn        1 FS8      0.218000
     61 HBM        -1.7850    2.2800  -13.4840 ha        1 FS8      0.004000
     62 FAE         2.0450   -3.0440   -2.9940 f         1 FS8     -0.049000
     63 NAY        -3.1860   -1.5420   -3.7030 nu        1 FS8     -0.244000
     64 OAB        -8.2920   -1.3150   -7.6030 o         1 FS8     -0.258000
     65 OAZ        -4.6270   -0.3610  -11.6260 os        1 FS8      0.089000
     66 HOAD       -4.7930   -1.8820  -13.5520 ho        1 FS8      0.202000
@<TRIPOS>BOND
     1    1   23 1   
     2    2   18 1   
     3    2   36 1   
     4    3   35 1   
     5    3   66 1   
     6    4    5 1   
     7    4    6 1   
     8    5    9 1   
     9    5   42 1   
    10    6   43 1   
    11    7   11 1   
    12    7   26 1   
    13    7   40 1   
    14    8   14 1   
    15    8   25 1   
    16    8   41 1   
    17    9   29 1   
    18    9   38 1   
    19   10   29 1   
    20   10   37 1   
    21   10   39 1   
    22   11   27 1   
    23   11   44 1   
    24   12   13 1   
    25   12   28 1   
    26   12   45 1   
    27   12   57 1   
    28   13   30 1   
    29   14   33 1   
    30   14   47 1   
    31   15   25 1   
    32   15   31 1   
    33   15   48 1   
    34   16   26 1   
    35   16   32 1   
    36   17   28 1   
    37   17   34 1   
    38   18   51 1   
    39   19   30 1   
    40   19   54 1   
    41   20   31 1   
    42   20   53 1   
    43   20   55 1   
    44   20   56 1   
    45   21   35 1   
    46   21   58 1   
    47   21   65 1   
    48   22   23 1   
    49   22   32 1   
    50   22   59 1   
    51   23   29 1   
    52   24   33 1   
    53   24   34 1   
    54   24   64 1   
    55   25   63 1   
    56   26   49 1   
    57   26   63 1   
    58   27   32 1   
    59   27   62 1   
    60   28   65 1   
    61   30   34 1   
    62   30   46 1   
    63   31   33 1   
    64   34   50 1   
    65   52   61 1   
    66   60   63 1   
@<TRIPOS>SUBSTRUCTURE
     1 FS8         1 TEMP              0 ****  ****    0 ROOT
