@<TRIPOS>MOLECULE
FS8
   66    58     1     0     0
SMALL
bcc


@<TRIPOS>ATOM
      1 OAA        -1.3370   -0.1220    6.7010 o         1 FS8     -0.347000
      2 OAB        -1.0300   -1.6500   -2.7190 o         1 FS8     -0.285000
      3 OAC        -0.8340   -2.8140  -11.2780 oh        1 FS8     -0.342000
      4 OAD         0.8300   -0.8660  -10.3610 oh        1 FS8     -0.331000
      5 FAE         1.7540   -2.2480    7.1410 f         1 FS8     -0.114000
      6 CAF        -1.8660    1.9600   11.0830 c1        1 FS8     -0.125625
      7 CAG        -2.6920    1.3890   10.1270 c1        1 FS8     -0.125625
      8 CAH        -0.4920    1.9800   10.8900 c1        1 FS8     -0.125625
      9 CAI         2.6280   -1.6720    3.7330 c1        1 FS8     -0.125625
     10 CAJ         1.9030   -1.4250    0.1750 c1        1 FS8     -0.125625
     11 CAK        -2.1450    0.8390    8.9780 c1        1 FS8     -0.076000
     12 CAL         0.0550    1.4300    9.7410 c1        1 FS8     -0.125625
     13 CAM         2.5900   -2.1970    5.0150 c1        1 FS8     -0.125625
     14 CAN        -1.2350    1.4820   -6.2190 c1        1 FS8     -0.187000
     15 CAO        -1.6790    1.8800   -4.9640 c1        1 FS8     -0.096000
     16 CAP         1.5770   -1.3790   -1.1760 c1        1 FS8     -0.125625
     17 CAQ         0.5870    0.5590    0.5640 c1        1 FS8     -0.201500
     18 CAR         1.2530    0.1630    4.4430 c1        1 FS8     -0.201500
     19 CAS         0.2580   -0.1060   -5.1910 c1        1 FS8     -0.114000
     20 CAT        -1.2980   -1.9410  -10.2670 c3        1 FS8     -0.059000
     21 CAU        -1.4670    1.5730   -2.3460 c3        1 FS8     -0.122000
     22 CAV        -0.1990    1.8530   -1.5670 c3        1 FS8     -0.127000
     23 CAW        -0.5950   -0.3470   -8.5180 c3        1 FS8     -0.024000
     24 NAX         0.9070    0.1930    6.9950 n         1 FS8     -0.321000
     25 NAY         2.0900    0.1040    2.1610 n3        1 FS8     -0.262000
     26 OAZ         0.1320   -0.4420   -7.3100 os        1 FS8     -0.217000
     27 CBA        -0.4430    0.2790    7.4230 c2        1 FS8      0.360000
     28 CBB        -0.2810   -0.6940   -2.7530 c1        1 FS8      0.317000
     29 CBC         1.4080   -0.4550    1.0460 c1        1 FS8      0.093000
     30 CBD         1.9590   -0.4910    3.4460 c1        1 FS8      0.093000
     31 CBE         1.8840   -1.5420    6.0110 c1        1 FS8      0.003000
     32 CBF        -0.2650    0.4870   -6.3320 c1        1 FS8      0.076000
     33 CBG        -0.7720    0.8590    8.7850 c1        1 FS8     -0.129000
     34 CBH        -1.1520    1.2820   -3.8100 c2        1 FS8     -0.078000
     35 CBI         0.2570    0.6070   -0.7990 c1        1 FS8      0.019000
     36 CBJ         1.2150   -0.3620    5.7250 c1        1 FS8      0.083000
     37 CBK         0.7480   -0.3560   -1.6640 c1        1 FS8     -0.174000
     38 CBL        -0.1910    0.2960   -3.9210 c2        1 FS8     -0.094000
     39 CBM        -0.1220   -1.4150   -9.4780 c3        1 FS8      0.032000
     40 HOAC       -1.5110   -3.3050  -11.5780 ho        1 FS8      0.209000
     41 HOAD        1.5320   -1.4120  -10.4190 ho        1 FS8      0.225000
     42 HAF        -2.2510    2.3480   11.8930 ha        1 FS8      0.145125
     43 HAG        -3.6590    1.3750   10.2630 ha        1 FS8      0.145125
     44 HAH         0.0900    2.3820   11.5640 ha        1 FS8      0.145125
     45 HAI         3.1250   -2.1330    3.0320 ha        1 FS8      0.145125
     46 HAJ         2.4790   -2.1370    0.5150 ha        1 FS8      0.145125
     47 HAK        -2.7260    0.4370    8.3040 ha        1 FS8      0.154000
     48 HAL         1.0220    1.4440    9.6060 ha        1 FS8      0.145125
     49 HAM         3.0610   -3.0280    5.2170 ha        1 FS8      0.145125
     50 HAN        -1.6020    1.8980   -7.0210 ha        1 FS8      0.142000
     51 HAO        -2.3570    2.5760   -4.8850 ha        1 FS8      0.136000
     52 HAP         1.9230   -2.0570   -1.7840 ha        1 FS8      0.145125
     53 HAQ         0.2410    1.2370    1.1730 ha        1 FS8      0.157500
     54 HAR         0.7820    0.9940    4.2420 ha        1 FS8      0.157500
     55 HAS         0.9350   -0.8000   -5.2700 ha        1 FS8      0.160000
     56 HAT        -1.7770   -1.1910  -10.6770 h1        1 FS8      0.082500
     57 HATA       -1.9030   -2.4270   -9.6680 h1        1 FS8      0.082500
     58 HAU        -1.9190    0.8000   -1.9550 hc        1 FS8      0.097500
     59 HAUA       -2.0550    2.3510   -2.2920 hc        1 FS8      0.097500
     60 HAV        -0.3650    2.5790   -0.9330 hc        1 FS8      0.098500
     61 HAVA        0.5060    2.1240   -2.1890 hc        1 FS8      0.098500
     62 HAW        -0.4520    0.5370   -8.9170 h1        1 FS8      0.095500
     63 HAWA       -1.5510   -0.4720   -8.3350 h1        1 FS8      0.095500
     64 HNAX        1.5760    0.5050    7.5310 hn        1 FS8      0.245000
     65 HNAY        2.6270    0.8310    2.0480 hn        1 FS8      0.226000
     66 HBM         0.2860   -2.1470   -8.9750 h1        1 FS8      0.106000
@<TRIPOS>BOND
     1    1   27 1   
     2    2   28 1   
     3    3   20 1   
     4    3   40 1   
     5    4   39 1   
     6    4   41 1   
     7    5   31 1   
     8    6    7 1   
     9    6   42 1   
    10    7   43 1   
    11    8   12 1   
    12    8   44 1   
    13    9   13 1   
    14    9   45 1   
    15   10   16 1   
    16   10   46 1   
    17   11   33 1   
    18   11   47 1   
    19   12   48 1   
    20   13   49 1   
    21   14   32 1   
    22   14   50 1   
    23   15   34 1   
    24   15   51 1   
    25   16   52 1   
    26   17   29 1   
    27   17   53 1   
    28   18   30 1   
    29   18   54 1   
    30   19   38 1   
    31   19   55 1   
    32   20   39 1   
    33   20   56 1   
    34   20   57 1   
    35   21   22 1   
    36   21   34 1   
    37   21   58 1   
    38   21   59 1   
    39   22   35 1   
    40   22   60 1   
    41   22   61 1   
    42   23   26 1   
    43   23   39 1   
    44   23   62 1   
    45   23   63 1   
    46   24   27 1   
    47   24   36 1   
    48   24   64 1   
    49   25   29 1   
    50   25   30 1   
    51   25   65 1   
    52   26   32 1   
    53   27   33 1   
    54   28   38 1   
    55   31   36 1   
    56   34   38 1   
    57   35   37 1   
    58   39   66 1   
@<TRIPOS>SUBSTRUCTURE
     1 FS8         1 TEMP              0 ****  ****    0 ROOT
