@<TRIPOS>MOLECULE
FS8
   66    70     1     0     0
SMALL
bcc


@<TRIPOS>ATOM
      1 OAA        -6.5980   -1.2310   -0.8480 o         1 FS8     -0.586100
      2 OAC        11.4420    0.5050   -0.1120 oh        1 FS8     -0.600800
      3 OAD         8.9210    3.0940   -0.2400 oh        1 FS8     -0.579800
      4 CAF       -11.4730   -0.4570    0.0640 ca        1 FS8     -0.105000
      5 CAG       -10.6690   -1.5480    0.3970 ca        1 FS8     -0.136000
      6 CAH       -10.8930    0.7140   -0.4250 ca        1 FS8     -0.136000
      7 CAI        -2.5010    1.9900   -0.1360 ca        1 FS8     -0.163000
      8 CAJ        -0.3310    0.0670    0.8560 ca        1 FS8     -0.198000
      9 CAK        -9.2860   -1.4690    0.2460 ca        1 FS8     -0.089500
     10 CAL        -9.5090    0.8030   -0.5730 ca        1 FS8     -0.089500
     11 CAM        -3.4600    2.9040    0.2760 ca        1 FS8     -0.112000
     12 CAN         6.6820   -1.3100   -0.9700 ca        1 FS8     -0.190000
     13 CAO         5.6960   -2.2810   -1.1460 ca        1 FS8     -0.096000
     14 CAP         0.9160   -0.2190    1.3840 ca        1 FS8     -0.051000
     15 CAQ         0.1650   -1.4190   -0.9920 ca        1 FS8     -0.207000
     16 CAR        -4.2470    0.3160   -0.4430 ca        1 FS8     -0.195000
     17 CAS         5.3270   -0.2800    0.7800 ca        1 FS8     -0.111000
     18 CAT        10.8770    1.7280   -0.5500 c3        1 FS8      0.096400
     19 CAU         3.4540   -3.2690   -0.5660 c3        1 FS8     -0.035100
     20 CAV         2.2420   -2.6720   -1.2480 c3        1 FS8     -0.040100
     21 CAW         8.6090    0.6720   -0.4880 c3        1 FS8      0.095400
     22 NAX        -6.5960    0.9190    0.0180 n         1 FS8     -0.467100
     23 CBA        -7.2200   -0.2540   -0.3930 c         1 FS8      0.686700
     24 CBB         3.1260   -1.2490    1.4160 c         1 FS8      0.597300
     25 CBC        -0.7270   -0.5190   -0.3680 ca        1 FS8      0.186600
     26 CBD        -2.8830    0.6810   -0.4960 ca        1 FS8      0.160600
     27 CBE        -4.8140    2.5520    0.3270 ca        1 FS8      0.037900
     28 CBF         6.4930   -0.3090   -0.0100 ca        1 FS8      0.121100
     29 CBG        -8.7040   -0.2880   -0.2310 ca        1 FS8     -0.149600
     30 CBH         4.5270   -2.2570   -0.3850 ca        1 FS8     -0.086300
     31 CBI         1.4290   -1.7030   -0.4550 ca        1 FS8      0.010700
     32 CBJ        -5.2320    1.2340   -0.0440 ca        1 FS8      0.075600
     33 CBK         1.8200   -1.0810    0.7380 ca        1 FS8     -0.193600
     34 CBL         4.3510   -1.2510    0.5790 ca        1 FS8     -0.115600
     35 CBM         9.4650    1.8220    0.0470 c3        1 FS8      0.137100
     36 HOAC       12.3890    0.5610   -0.2830 ho        1 FS8      0.408000
     37 HAF       -12.5650   -0.5220    0.1820 ha        1 FS8      0.138000
     38 HAG       -11.1260   -2.4740    0.7760 ha        1 FS8      0.140000
     39 HAH       -11.5270    1.5700   -0.6980 ha        1 FS8      0.140000
     40 HAI        -1.4460    2.2980   -0.1900 ha        1 FS8      0.154000
     41 HAJ        -1.0110    0.7370    1.4040 ha        1 FS8      0.148000
     42 HAK        -8.6430   -2.3300    0.4890 ha        1 FS8      0.146500
     43 HAL        -9.0660    1.7260   -0.9760 ha        1 FS8      0.146500
     44 HAM        -3.1650    3.9250    0.5610 ha        1 FS8      0.152000
     45 HAN         7.5930   -1.3460   -1.5820 ha        1 FS8      0.139000
     46 HAO         5.8460   -3.0730   -1.8950 ha        1 FS8      0.135000
     47 HAP         1.2130    0.2300    2.3480 ha        1 FS8      0.150000
     48 HAQ        -0.1270   -1.9130   -1.9320 ha        1 FS8      0.136000
     49 HAR        -4.5430   -0.7090   -0.7270 ha        1 FS8      0.179000
     50 HAS         5.2060    0.5000    1.5460 ha        1 FS8      0.162000
     51 HAT        11.4830    2.6030   -0.1970 h1        1 FS8      0.034200
     52 HATA       10.8300    1.7420   -1.6720 h1        1 FS8      0.034200
     53 HAU         3.1610   -3.6920    0.4340 hc        1 FS8      0.057700
     54 HAUA        3.8320   -4.1230   -1.1910 hc        1 FS8      0.057700
     55 HAV         2.5720   -2.1510   -2.1900 hc        1 FS8      0.058200
     56 HAVA        1.5700   -3.5200   -1.5600 hc        1 FS8      0.058200
     57 HAW         9.1390   -0.3010   -0.3150 h1        1 FS8      0.053700
     58 HAWA        8.3910    0.8070   -1.5800 h1        1 FS8      0.053700
     59 HNAX       -7.1820    1.6380    0.3880 hn        1 FS8      0.331500
     60 HNAY       -2.3410   -1.0070   -1.5010 hn        1 FS8      0.430800
     61 HBM         9.5100    1.7790    1.1720 h1        1 FS8      0.107700
     62 FAE        -5.7250    3.4750    0.7320 f         1 FS8     -0.149900
     63 NAY        -1.9450   -0.2380   -1.0000 nh        1 FS8     -0.630000
     64 OAB         3.2000   -1.3220    2.6490 o         1 FS8     -0.522100
     65 OAZ         7.3860    0.7120    0.2520 os        1 FS8     -0.318900
     66 HOAD        8.6510    3.0960   -1.1670 ho        1 FS8      0.399000
@<TRIPOS>BOND
     1    1   23 2   
     2    2   18 1   
     3    2   36 1   
     4    3   35 1   
     5    3   66 1   
     6    4    5 ar  
     7    4    6 ar  
     8    4   37 1   
     9    5    9 ar  
    10    5   38 1   
    11    6   10 ar  
    12    6   39 1   
    13    7   11 ar  
    14    7   26 ar  
    15    7   40 1   
    16    8   14 ar  
    17    8   25 ar  
    18    8   41 1   
    19    9   29 ar  
    20    9   42 1   
    21   10   29 ar  
    22   10   43 1   
    23   11   27 ar  
    24   11   44 1   
    25   12   13 ar  
    26   12   28 ar  
    27   12   45 1   
    28   13   30 ar  
    29   13   46 1   
    30   14   33 ar  
    31   14   47 1   
    32   15   25 ar  
    33   15   31 ar  
    34   15   48 1   
    35   16   26 ar  
    36   16   32 ar  
    37   16   49 1   
    38   17   28 ar  
    39   17   34 ar  
    40   17   50 1   
    41   18   35 1   
    42   18   51 1   
    43   18   52 1   
    44   19   20 1   
    45   19   30 1   
    46   19   53 1   
    47   19   54 1   
    48   20   31 1   
    49   20   55 1   
    50   20   56 1   
    51   21   35 1   
    52   21   57 1   
    53   21   58 1   
    54   21   65 1   
    55   22   23 1   
    56   22   32 1   
    57   22   59 1   
    58   23   29 1   
    59   24   33 1   
    60   24   34 1   
    61   24   64 2   
    62   25   63 1   
    63   26   63 1   
    64   27   32 ar  
    65   27   62 1   
    66   28   65 1   
    67   30   34 ar  
    68   31   33 ar  
    69   35   61 1   
    70   60   63 1   
@<TRIPOS>SUBSTRUCTURE
     1 FS8         1 TEMP              0 ****  ****    0 ROOT
