@<TRIPOS>MOLECULE
FS9
   45    48     1     0     0
SMALL
bcc


@<TRIPOS>ATOM
      1 N01        -0.0500    0.0810   -0.3520 nb        1 FS9     -0.711000
      2 C02         1.2680    0.3530   -0.2240 ca        1 FS9      0.672900
      3 N03         2.0200    0.4930    0.9020 nb        1 FS9     -0.778000
      4 C04         1.4160    0.3320    2.1200 ca        1 FS9      0.726200
      5 N05         2.1680    0.3490    3.3130 nh        1 FS9     -0.730300
      6 C06         1.7130    1.2570    4.3580 c3        1 FS9      0.190800
      7 C07         2.3810    0.9840    5.7050 c3        1 FS9     -0.077900
      8 C08         3.8960    1.0080    5.5680 c3        1 FS9     -0.136700
      9 C09         4.5430    0.6730    6.9120 c         1 FS9      0.668100
     10 O10         3.8760    0.2630    7.8760 o         1 FS9     -0.574100
     11 N11         5.9180    0.8750    6.9810 n         1 FS9     -0.476100
     12 C12         6.7650    0.6350    8.0730 ca        1 FS9      0.072600
     13 C13         6.2900    0.2870    9.3560 ca        1 FS9     -0.114000
     14 C14         7.1970    0.0760   10.3930 ca        1 FS9     -0.139300
     15 C15         6.6650   -0.3190   11.7680 c3        1 FS9      0.687200
     16 F16         7.4990   -0.0030   12.8140 f         1 FS9     -0.236300
     17 F17         5.4680    0.2630   12.1080 f         1 FS9     -0.236300
     18 F18         6.4390   -1.6660   11.9170 f         1 FS9     -0.236300
     19 C19         8.5720    0.2020   10.1990 ca        1 FS9     -0.114000
     20 C20         9.0450    0.5470    8.9340 ca        1 FS9     -0.106000
     21 C21         8.1650    0.7610    7.8810 ca        1 FS9     -0.162000
     22 C22         4.3250    0.0140    4.5020 c3        1 FS9     -0.077900
     23 C23         3.6180    0.3000    3.1760 c3        1 FS9      0.190800
     24 C24         0.0100    0.0490    2.1490 ca        1 FS9     -0.180200
     25 N25        -0.9130   -0.1870    3.1790 nc        1 FS9     -0.535100
     26 C26        -2.0790   -0.4350    2.5660 cd        1 FS9      0.408700
     27 N27        -2.0000   -0.3820    1.1580 na        1 FS9     -0.379000
     28 C28        -0.6690   -0.0740    0.8550 ca        1 FS9      0.434800
     29 H1          1.8230    0.4920   -1.1760 h5        1 FS9      0.055100
     30 H2          0.6030    1.1530    4.4960 h1        1 FS9      0.055700
     31 H3          1.9290    2.3260    4.0600 h1        1 FS9      0.055700
     32 H4          2.0500    1.7700    6.4320 hc        1 FS9      0.066450
     33 H5          2.0560   -0.0100    6.1100 hc        1 FS9      0.066450
     34 H6          4.2140    2.0440    5.2610 hc        1 FS9      0.067700
     35 H7          6.3730    1.1700    6.1450 hn        1 FS9      0.317500
     36 H8          5.2090    0.1800    9.5550 ha        1 FS9      0.191000
     37 H9          9.2700    0.0340   11.0330 ha        1 FS9      0.153000
     38 H10        10.1280    0.6510    8.7670 ha        1 FS9      0.142000
     39 H11         8.5700    1.0320    6.8930 ha        1 FS9      0.134000
     40 H12         4.0900   -1.0280    4.8450 hc        1 FS9      0.066450
     41 H13         5.4290    0.0770    4.3190 hc        1 FS9      0.066450
     42 H14         3.8810   -0.5270    2.4570 h1        1 FS9      0.055700
     43 H15         4.0170    1.2690    2.7560 h1        1 FS9      0.055700
     44 H17        -3.0240   -0.6650    3.0740 h5        1 FS9      0.076800
     45 H18        -2.7250   -0.5320    0.5080 hn        1 FS9      0.320700
@<TRIPOS>BOND
     1    1    2 ar  
     2    1   28 ar  
     3    2    3 ar  
     4    2   29 1   
     5    3    4 ar  
     6    4    5 1   
     7    4   24 ar  
     8    5    6 1   
     9    5   23 1   
    10    6    7 1   
    11    6   30 1   
    12    6   31 1   
    13    7    8 1   
    14    7   32 1   
    15    7   33 1   
    16    8    9 1   
    17    8   22 1   
    18    8   34 1   
    19    9   10 2   
    20    9   11 1   
    21   11   12 1   
    22   11   35 1   
    23   12   13 ar  
    24   12   21 ar  
    25   13   14 ar  
    26   13   36 1   
    27   14   15 1   
    28   14   19 ar  
    29   15   16 1   
    30   15   17 1   
    31   15   18 1   
    32   19   20 ar  
    33   19   37 1   
    34   20   21 ar  
    35   20   38 1   
    36   21   39 1   
    37   22   23 1   
    38   22   40 1   
    39   22   41 1   
    40   23   42 1   
    41   23   43 1   
    42   24   25 1   
    43   24   28 ar  
    44   25   26 2   
    45   26   27 1   
    46   26   44 1   
    47   27   28 1   
    48   27   45 1   
@<TRIPOS>SUBSTRUCTURE
     1 FS9         1 TEMP              0 ****  ****    0 ROOT
