@<TRIPOS>MOLECULE
FS9
   46    49     1     0     0
SMALL
bcc


@<TRIPOS>ATOM
      1 N01        -0.8510   -0.3220    1.5130 nb        1 FS9     -0.676000
      2 C02         0.1670    0.3880    0.9810 ca        1 FS9      0.669900
      3 N03         1.3410    0.7830    1.5570 nb        1 FS9     -0.756000
      4 C04         1.5750    0.4270    2.8500 ca        1 FS9      0.693200
      5 N05         2.8120    0.7210    3.4920 nh        1 FS9     -0.740300
      6 C06         2.7150    1.6090    4.6410 c3        1 FS9      0.186300
      7 C07         3.9850    1.5460    5.4970 c3        1 FS9     -0.087400
      8 C08         5.2080    1.8440    4.6420 c3        1 FS9     -0.134700
      9 C09         6.4870    1.7210    5.4310 c         1 FS9      0.561100
     10 O10         7.3440    2.5680    5.6180 o         1 FS9     -0.409100
     11 N11         6.7810    0.3540    6.0490 n4        1 FS9     -0.552200
     12 C12         6.5690    0.3370    7.4980 ca        1 FS9     -0.062400
     13 C13         5.5610   -0.4770    8.0420 ca        1 FS9     -0.062000
     14 C14         5.3900   -0.4990    9.4270 ca        1 FS9     -0.150300
     15 C15         4.2810   -1.3730   10.0230 c3        1 FS9      0.691200
     16 F16         4.5240   -1.7820   11.3070 f         1 FS9     -0.216300
     17 F17         3.0630   -0.7430   10.0730 f         1 FS9     -0.216300
     18 F18         4.0500   -2.5270    9.3180 f         1 FS9     -0.216300
     19 C19         6.2020    0.2680   10.2650 ca        1 FS9     -0.027000
     20 C20         7.1990    1.0750    9.7110 ca        1 FS9     -0.106000
     21 C21         7.3910    1.1190    8.3330 ca        1 FS9     -0.073000
     22 C22         5.2600    0.9730    3.3920 c3        1 FS9     -0.087400
     23 C23         3.9330    1.0610    2.6270 c3        1 FS9      0.186300
     24 C24         0.5870   -0.3230    3.5580 ca        1 FS9     -0.167200
     25 N25         0.5070   -0.8490    4.8560 nc        1 FS9     -0.561100
     26 C26        -0.6770   -1.4820    4.9070 cd        1 FS9      0.432700
     27 N27        -1.4090   -1.4170    3.7060 na        1 FS9     -0.369000
     28 C28        -0.6280   -0.6770    2.8120 ca        1 FS9      0.436800
     29 H1          0.0340    0.7050   -0.0780 h5        1 FS9      0.070100
     30 H2          1.8420    1.3040    5.2830 h1        1 FS9      0.074950
     31 H3          2.5540    2.6800    4.3180 h1        1 FS9      0.074950
     32 H4          4.0590    0.5320    5.9680 hc        1 FS9      0.059950
     33 H5          3.8930    2.3070    6.3160 hc        1 FS9      0.059950
     34 H6          5.1580    2.9290    4.3150 hc        1 FS9      0.129700
     35 H7          6.1760   -0.3510    5.6070 hn        1 FS9      0.465800
     36 H8          4.9050   -1.1040    7.4100 ha        1 FS9      0.176000
     37 H9          6.0560    0.2310   11.3600 ha        1 FS9      0.188000
     38 H10         7.8420    1.6840   10.3700 ha        1 FS9      0.182000
     39 H11         8.1770    1.7680    7.9090 ha        1 FS9      0.175000
     40 H12         6.0790    1.3240    2.7120 hc        1 FS9      0.059950
     41 H13         5.4560   -0.0990    3.6540 hc        1 FS9      0.059950
     42 H14         3.8330    2.0970    2.1910 h1        1 FS9      0.074950
     43 H15         3.9720    0.3270    1.7730 h1        1 FS9      0.074950
     44 H17        -1.0700   -2.0140    5.7840 h5        1 FS9      0.084800
     45 H18        -2.2990   -1.8040    3.5200 hn        1 FS9      0.332700
     46 H112        7.7660    0.1120    5.8700 hn        1 FS9      0.465800
@<TRIPOS>BOND
     1    1    2 ar  
     2    1   28 ar  
     3    2    3 ar  
     4    2   29 1   
     5    3    4 ar  
     6    4    5 1   
     7    4   24 ar  
     8    5    6 1   
     9    5   23 1   
    10    6    7 1   
    11    6   30 1   
    12    6   31 1   
    13    7    8 1   
    14    7   32 1   
    15    7   33 1   
    16    8    9 1   
    17    8   22 1   
    18    8   34 1   
    19    9   10 2   
    20    9   11 1   
    21   11   12 1   
    22   11   35 1   
    23   11   46 1   
    24   12   13 ar  
    25   12   21 ar  
    26   13   14 ar  
    27   13   36 1   
    28   14   15 1   
    29   14   19 ar  
    30   15   16 1   
    31   15   17 1   
    32   15   18 1   
    33   19   20 ar  
    34   19   37 1   
    35   20   21 ar  
    36   20   38 1   
    37   21   39 1   
    38   22   23 1   
    39   22   40 1   
    40   22   41 1   
    41   23   42 1   
    42   23   43 1   
    43   24   25 1   
    44   24   28 ar  
    45   25   26 2   
    46   26   27 1   
    47   26   44 1   
    48   27   28 1   
    49   27   45 1   
@<TRIPOS>SUBSTRUCTURE
     1 FS9         1 TEMP              0 ****  ****    0 ROOT
