@<TRIPOS>MOLECULE
FS9
   45    48     1     0     0
SMALL
bcc


@<TRIPOS>ATOM
      1 N01        -0.0540    0.0670   -0.3480 nb        1 FS9     -0.711000
      2 C02         1.2620    0.3480   -0.2210 ca        1 FS9      0.672900
      3 N03         2.0140    0.4900    0.9040 nb        1 FS9     -0.778000
      4 C04         1.4120    0.3230    2.1220 ca        1 FS9      0.726200
      5 N05         2.1660    0.3420    3.3150 nh        1 FS9     -0.730300
      6 C06         1.7060    1.2450    4.3620 c3        1 FS9      0.190800
      7 C07         2.3770    0.9740    5.7070 c3        1 FS9     -0.077900
      8 C08         3.8910    1.0080    5.5700 c3        1 FS9     -0.136700
      9 C09         4.5420    0.6750    6.9120 c         1 FS9      0.668100
     10 O10         3.8800    0.2580    7.8750 o         1 FS9     -0.574100
     11 N11         5.9160    0.8870    6.9800 ns        1 FS9     -0.476100
     12 C12         6.7660    0.6510    8.0700 ca        1 FS9      0.072600
     13 C13         6.2950    0.2970    9.3530 ca        1 FS9     -0.113000
     14 C14         7.2040    0.0900   10.3890 ca        1 FS9     -0.139300
     15 C15         6.6760   -0.3100   11.7640 c3        1 FS9      0.687200
     16 F16         7.5090    0.0090   12.8100 f         1 FS9     -0.236300
     17 F17         5.4760    0.2620   12.1060 f         1 FS9     -0.236300
     18 F18         6.4610   -1.6590   11.9110 f         1 FS9     -0.236300
     19 C19         8.5780    0.2260   10.1930 ca        1 FS9     -0.114000
     20 C20         9.0470    0.5770    8.9290 ca        1 FS9     -0.106000
     21 C21         8.1640    0.7870    7.8770 ca        1 FS9     -0.162000
     22 C22         4.3270    0.0190    4.5010 c3        1 FS9     -0.077900
     23 C23         3.6160    0.3030    3.1760 c3        1 FS9      0.190800
     24 C24         0.0080    0.0300    2.1520 ca        1 FS9     -0.180200
     25 N25        -0.9120   -0.2140    3.1830 nc        1 FS9     -0.535100
     26 C26        -2.0770   -0.4680    2.5700 cd        1 FS9      0.408700
     27 N27        -2.0000   -0.4110    1.1630 na        1 FS9     -0.379000
     28 C28        -0.6710   -0.0940    0.8590 ca        1 FS9      0.434800
     29 H1          1.8160    0.4920   -1.1740 h5        1 FS9      0.055100
     30 H2          0.5960    1.1330    4.5010 h1        1 FS9      0.055700
     31 H3          1.9140    2.3160    4.0660 h1        1 FS9      0.055700
     32 H4          2.0420    1.7550    6.4370 hc        1 FS9      0.066450
     33 H5          2.0590   -0.0240    6.1110 hc        1 FS9      0.066450
     34 H6          4.2020    2.0470    5.2640 hc        1 FS9      0.067700
     35 H7          6.3680    1.1880    6.1440 hn        1 FS9      0.317500
     36 H8          5.2140    0.1830    9.5530 ha        1 FS9      0.191000
     37 H9          9.2780    0.0620   11.0270 ha        1 FS9      0.153000
     38 H10        10.1300    0.6890    8.7600 ha        1 FS9      0.142000
     39 H11         8.5660    1.0630    6.8890 ha        1 FS9      0.134000
     40 H12         5.4290    0.0910    4.3170 hc        1 FS9      0.066450
     41 H13         4.0990   -1.0250    4.8410 hc        1 FS9      0.066450
     42 H14         4.0080    1.2760    2.7570 h1        1 FS9      0.055700
     43 H15         3.8830   -0.5200    2.4540 h1        1 FS9      0.055700
     44 H17        -3.0200   -0.7050    3.0790 h5        1 FS9      0.076800
     45 H18        -2.7250   -0.5650    0.5130 hn        1 FS9      0.320700
@<TRIPOS>BOND
     1    1    2 ar  
     2    1   28 ar  
     3    2    3 ar  
     4    2   29 1   
     5    3    4 ar  
     6    4    5 1   
     7    4   24 ar  
     8    5    6 1   
     9    5   23 1   
    10    6    7 1   
    11    6   30 1   
    12    6   31 1   
    13    7    8 1   
    14    7   32 1   
    15    7   33 1   
    16    8    9 1   
    17    8   22 1   
    18    8   34 1   
    19    9   10 2   
    20    9   11 1   
    21   11   12 1   
    22   11   35 1   
    23   12   13 ar  
    24   12   21 ar  
    25   13   14 ar  
    26   13   36 1   
    27   14   15 1   
    28   14   19 ar  
    29   15   16 1   
    30   15   17 1   
    31   15   18 1   
    32   19   20 ar  
    33   19   37 1   
    34   20   21 ar  
    35   20   38 1   
    36   21   39 1   
    37   22   23 1   
    38   22   40 1   
    39   22   41 1   
    40   23   42 1   
    41   23   43 1   
    42   24   25 1   
    43   24   28 ar  
    44   25   26 2   
    45   26   27 1   
    46   26   44 1   
    47   27   28 1   
    48   27   45 1   
@<TRIPOS>SUBSTRUCTURE
     1 FS9         1 TEMP              0 ****  ****    0 ROOT
