@<TRIPOS>MOLECULE
FSA
   29    29     1     0     0
SMALL
bcc


@<TRIPOS>ATOM
      1 OAB        -1.0490   -2.6430    5.0520 o         1 FSA     -0.839300
      2 CAL        -1.5950   -2.9770    3.9640 c         1 FSA      0.921600
      3 OAA        -2.8100   -3.2840    3.9410 o         1 FSA     -0.839300
      4 CAH        -0.7850   -2.9630    2.6640 c3        1 FSA     -0.127300
      5 SAK        -0.9820   -1.3800    1.8530 ss        1 FSA     -0.330200
      6 CAI        -0.0060   -1.3510    0.3610 c3        1 FSA     -0.025300
      7 CAP        -0.2920   -0.0960   -0.3910 c3        1 FSA      0.336600
      8 OAF        -1.4800   -0.2520   -1.0840 oh        1 FSA     -0.635800
      9 CAO         0.8550    0.1530   -1.4020 c3        1 FSA      0.098100
     10 OAE         0.8160   -0.8600   -2.4020 oh        1 FSA     -0.600800
     11 CAN         0.7480    1.4710   -2.0580 c3        1 FSA      0.089100
     12 OAD         1.9730    1.7100   -2.8600 oh        1 FSA     -0.585800
     13 CAM         0.5960    2.5650   -1.0900 c3        1 FSA      0.073100
     14 OAC         1.8250    2.7130   -0.3600 oh        1 FSA     -0.613800
     15 CAG        -0.5460    2.3080   -0.0880 c3        1 FSA      0.108400
     16 OAJ        -0.4400    0.9910    0.5600 os        1 FSA     -0.438600
     17 HAH         0.1820   -3.1120    2.8720 h1        1 FSA      0.061700
     18 HAHA       -1.1110   -3.6900    2.0590 h1        1 FSA      0.061700
     19 HAI        -0.2330   -2.1180   -0.1900 h1        1 FSA      0.093200
     20 HAIA        0.9590   -1.3850    0.5960 h1        1 FSA      0.093200
     21 HOAF       -2.1330   -0.4900   -0.5110 ho        1 FSA      0.478000
     22 HAO         1.7020    0.1020   -0.9350 h1        1 FSA      0.048700
     23 HOAE        1.6410   -1.2480   -2.4760 ho        1 FSA      0.462000
     24 HAN        -0.0170    1.4650   -2.6480 h1        1 FSA      0.102700
     25 HOAD        1.7420    1.9380   -3.7060 ho        1 FSA      0.398000
     26 HAM         0.4090    3.4150   -1.5860 h1        1 FSA      0.076700
     27 HOAC        1.9840    3.6130   -0.2030 ho        1 FSA      0.408000
     28 HAG        -1.4280    2.3610   -0.5760 h1        1 FSA      0.062700
     29 HAGA       -0.5230    3.0440    0.6430 h1        1 FSA      0.062700
@<TRIPOS>BOND
     1    1    2 1   
     2    2    3 1   
     3    2    4 1   
     4    4    5 1   
     5    4   17 1   
     6    4   18 1   
     7    5    6 1   
     8    6    7 1   
     9    6   19 1   
    10    6   20 1   
    11    7    8 1   
    12    7    9 1   
    13    7   16 1   
    14    8   21 1   
    15    9   10 1   
    16    9   11 1   
    17    9   22 1   
    18   10   23 1   
    19   11   12 1   
    20   11   13 1   
    21   11   24 1   
    22   12   25 1   
    23   13   14 1   
    24   13   15 1   
    25   13   26 1   
    26   14   27 1   
    27   15   16 1   
    28   15   28 1   
    29   15   29 1   
@<TRIPOS>SUBSTRUCTURE
     1 FSA         1 TEMP              0 ****  ****    0 ROOT
