@<TRIPOS>MOLECULE
FSA
   29    29     1     0     0
SMALL
bcc


@<TRIPOS>ATOM
      1 OAB         1.8810    1.9520   -0.7820 o         1 FSA     -0.839300
      2 CAL         2.6240    1.1560   -1.4110 c         1 FSA      0.921600
      3 OAA         3.6600    1.5120   -2.0540 o         1 FSA     -0.839300
      4 CAH         2.2170   -0.3240   -1.4220 c3        1 FSA     -0.127300
      5 SAK         3.5000   -1.5420   -1.3620 ss        1 FSA     -0.330200
      6 CAI         4.5390   -1.1600   -2.7400 c3        1 FSA     -0.025300
      7 CAP         5.9290   -0.6150   -2.4140 c3        1 FSA      0.336600
      8 OAF         6.0130    0.3020   -1.3610 oh        1 FSA     -0.635800
      9 CAO         6.5470    0.0410   -3.6860 c3        1 FSA      0.098100
     10 OAE         5.7950    1.1450   -4.1250 oh        1 FSA     -0.600800
     11 CAN         8.0060    0.4460   -3.4020 c3        1 FSA      0.089100
     12 OAD         8.6460    0.9610   -4.5510 oh        1 FSA     -0.585800
     13 CAM         8.7930   -0.7600   -2.8580 c3        1 FSA      0.073100
     14 OAC         8.9770   -1.7290   -3.8810 oh        1 FSA     -0.613800
     15 CAG         8.0690   -1.3560   -1.6510 c3        1 FSA      0.108400
     16 OAJ         6.7400   -1.7180   -1.9980 os        1 FSA     -0.438600
     17 HAH         1.5890   -0.4880   -2.3280 h1        1 FSA      0.061700
     18 HAHA        1.6060   -0.5370   -0.5110 h1        1 FSA      0.061700
     19 HAI         4.0290   -0.3840   -3.3730 h1        1 FSA      0.093200
     20 HAIA        4.6670   -2.1040   -3.3220 h1        1 FSA      0.093200
     21 HOAF        5.1090    0.5210   -1.0620 ho        1 FSA      0.478000
     22 HAO         6.5210   -0.6980   -4.5350 h1        1 FSA      0.048700
     23 HOAE        5.3960    1.5720   -3.3450 ho        1 FSA      0.462000
     24 HAN         8.0200    1.2890   -2.6560 h1        1 FSA      0.102700
     25 HOAD        8.6360    0.2580   -5.2130 ho        1 FSA      0.398000
     26 HAM         9.8370   -0.4430   -2.5860 h1        1 FSA      0.076700
     27 HOAC        8.1310   -2.1850   -3.9860 ho        1 FSA      0.408000
     28 HAG         8.0670   -0.6250   -0.8020 h1        1 FSA      0.062700
     29 HAGA        8.5420   -2.3240   -1.3390 h1        1 FSA      0.062700
@<TRIPOS>BOND
     1    1    2 1   
     2    2    3 1   
     3    2    4 1   
     4    4    5 1   
     5    4   17 1   
     6    4   18 1   
     7    5    6 1   
     8    6    7 1   
     9    6   19 1   
    10    6   20 1   
    11    7    8 1   
    12    7    9 1   
    13    7   16 1   
    14    8   21 1   
    15    9   10 1   
    16    9   11 1   
    17    9   22 1   
    18   10   23 1   
    19   11   12 1   
    20   11   13 1   
    21   11   24 1   
    22   12   25 1   
    23   13   14 1   
    24   13   15 1   
    25   13   26 1   
    26   14   27 1   
    27   15   16 1   
    28   15   28 1   
    29   15   29 1   
@<TRIPOS>SUBSTRUCTURE
     1 FSA         1 TEMP              0 ****  ****    0 ROOT
