@<TRIPOS>MOLECULE
FSA
   29    29     1     0     0
SMALL
bcc


@<TRIPOS>ATOM
      1 OAB        -3.8560   -1.6340   -1.2010 o         1 FSA     -0.839300
      2 CAL        -2.8590   -1.2970   -0.5130 c         1 FSA      0.921600
      3 OAA        -1.6610   -1.6010   -0.8060 o         1 FSA     -0.839300
      4 CAH        -3.1290   -0.5050    0.7730 c3        1 FSA     -0.127300
      5 SAK        -1.9800    0.7620    1.2280 ss        1 FSA     -0.330200
      6 CAI        -0.4180   -0.0630    1.3080 c3        1 FSA     -0.025300
      7 CAP         0.5990    0.3020    0.2270 c3        1 FSA      0.336600
      8 OAF         0.1040    0.4710   -1.0700 oh        1 FSA     -0.635800
      9 CAO         1.7280   -0.7710    0.1860 c3        1 FSA      0.098100
     10 OAE         1.2340   -2.0400   -0.1650 oh        1 FSA     -0.600800
     11 CAN         2.8330   -0.3220   -0.7880 c3        1 FSA      0.089100
     12 OAD         3.9290   -1.2140   -0.7940 oh        1 FSA     -0.585800
     13 CAM         3.3130    1.0960   -0.4270 c3        1 FSA      0.073100
     14 OAC         4.0280    1.0760    0.8010 oh        1 FSA     -0.613800
     15 CAG         2.1190    2.0490   -0.3610 c3        1 FSA      0.108400
     16 OAJ         1.1560    1.5760    0.5700 os        1 FSA     -0.438600
     17 HAH        -4.0980    0.0410    0.6650 h1        1 FSA      0.061700
     18 HAHA       -3.2190   -1.2430    1.6050 h1        1 FSA      0.061700
     19 HAI         0.0300    0.1840    2.3000 h1        1 FSA      0.093200
     20 HAIA       -0.5900   -1.1700    1.2280 h1        1 FSA      0.093200
     21 HOAF       -0.8400    0.2190   -1.0820 ho        1 FSA      0.478000
     22 HAO         2.1630   -0.8930    1.2170 h1        1 FSA      0.048700
     23 HOAE        0.4790   -1.9170   -0.7700 ho        1 FSA      0.462000
     24 HAN         2.4340   -0.3420   -1.8400 h1        1 FSA      0.102700
     25 HOAD        4.2840   -1.2240    0.1040 ho        1 FSA      0.398000
     26 HAM         4.0670    1.4470   -1.1820 h1        1 FSA      0.076700
     27 HOAC        3.3690    0.9970    1.5040 ho        1 FSA      0.408000
     28 HAG         2.4280    3.0460    0.0510 h1        1 FSA      0.062700
     29 HAGA        1.6610    2.1660   -1.3760 h1        1 FSA      0.062700
@<TRIPOS>BOND
     1    1    2 1   
     2    2    3 1   
     3    2    4 1   
     4    4    5 1   
     5    4   17 1   
     6    4   18 1   
     7    5    6 1   
     8    6    7 1   
     9    6   19 1   
    10    6   20 1   
    11    7    8 1   
    12    7    9 1   
    13    7   16 1   
    14    8   21 1   
    15    9   10 1   
    16    9   11 1   
    17    9   22 1   
    18   10   23 1   
    19   11   12 1   
    20   11   13 1   
    21   11   24 1   
    22   12   25 1   
    23   13   14 1   
    24   13   15 1   
    25   13   26 1   
    26   14   27 1   
    27   15   16 1   
    28   15   28 1   
    29   15   29 1   
@<TRIPOS>SUBSTRUCTURE
     1 FSA         1 TEMP              0 ****  ****    0 ROOT
