@<TRIPOS>MOLECULE
FSA
   29    29     1     0     0
SMALL
bcc


@<TRIPOS>ATOM
      1 OAB         1.9760    2.0950   -0.7760 o         1 FSA     -0.839300
      2 CAL         2.6890    1.2760   -1.4110 c         1 FSA      0.921600
      3 OAA         3.7510    1.5950   -2.0320 o         1 FSA     -0.839300
      4 CAH         2.2120   -0.1810   -1.4600 c3        1 FSA     -0.127300
      5 SAK         3.4330   -1.4610   -1.4080 ss        1 FSA     -0.330200
      6 CAI         4.5100   -1.1010   -2.7630 c3        1 FSA     -0.025300
      7 CAP         5.9200   -0.6310   -2.4050 c3        1 FSA      0.336600
      8 OAF         6.0310    0.2590   -1.3310 oh        1 FSA     -0.635800
      9 CAO         6.5890    0.0200   -3.6520 c3        1 FSA      0.098100
     10 OAE         5.8980    1.1680   -4.0790 oh        1 FSA     -0.600800
     11 CAN         8.0610    0.3470   -3.3380 c3        1 FSA      0.089100
     12 OAD         8.7430    0.8550   -4.4670 oh        1 FSA     -0.585800
     13 CAM         8.7800   -0.9070   -2.8090 c3        1 FSA      0.073100
     14 OAC         8.9330   -1.8620   -3.8500 oh        1 FSA     -0.613800
     15 CAG         8.0090   -1.4910   -1.6260 c3        1 FSA      0.108400
     16 OAJ         6.6700   -1.7820   -2.0000 os        1 FSA     -0.438600
     17 HAH         1.5760   -0.3830   -0.5640 h1        1 FSA      0.061700
     18 HAHA        1.5900   -0.2960   -2.3790 h1        1 FSA      0.061700
     19 HAI         4.0490   -0.2890   -3.3860 h1        1 FSA      0.093200
     20 HAIA        4.6020   -2.0380   -3.3630 h1        1 FSA      0.093200
     21 HOAF        5.1340    0.5150   -1.0400 ho        1 FSA      0.478000
     22 HAO         6.5410   -0.6990   -4.5180 h1        1 FSA      0.048700
     23 HOAE        5.5070    1.5980   -3.2960 ho        1 FSA      0.462000
     24 HAN         8.1040    1.1730   -2.5750 h1        1 FSA      0.102700
     25 HOAD        8.7090    0.1660   -5.1440 ho        1 FSA      0.398000
     26 HAM         9.8340   -0.6460   -2.5150 h1        1 FSA      0.076700
     27 HOAC        8.0680   -2.2740   -3.9770 ho        1 FSA      0.408000
     28 HAG         8.4300   -2.4870   -1.3270 h1        1 FSA      0.062700
     29 HAGA        8.0300   -0.7780   -0.7620 h1        1 FSA      0.062700
@<TRIPOS>BOND
     1    1    2 1   
     2    2    3 1   
     3    2    4 1   
     4    4    5 1   
     5    4   17 1   
     6    4   18 1   
     7    5    6 1   
     8    6    7 1   
     9    6   19 1   
    10    6   20 1   
    11    7    8 1   
    12    7    9 1   
    13    7   16 1   
    14    8   21 1   
    15    9   10 1   
    16    9   11 1   
    17    9   22 1   
    18   10   23 1   
    19   11   12 1   
    20   11   13 1   
    21   11   24 1   
    22   12   25 1   
    23   13   14 1   
    24   13   15 1   
    25   13   26 1   
    26   14   27 1   
    27   15   16 1   
    28   15   28 1   
    29   15   29 1   
@<TRIPOS>SUBSTRUCTURE
     1 FSA         1 TEMP              0 ****  ****    0 ROOT
