@<TRIPOS>MOLECULE
FSB
   36    37     1     0     0
SMALL
bcc


@<TRIPOS>ATOM
      1 C01        -0.2510    0.5430    0.3840 ca        1 FSB     -0.096000
      2 C02         1.0040   -0.0320    0.1910 ca        1 FSB      0.012500
      3 C03         1.9390   -0.1050    1.2390 ca        1 FSB     -0.461500
      4 C04         1.5750    0.4180    2.4940 ca        1 FSB      0.012500
      5 C05         0.3210    0.9890    2.7030 ca        1 FSB     -0.096000
      6 C06        -0.5940    1.0470    1.6460 ca        1 FSB     -0.076600
      7 C07        -1.9210    1.6930    1.7940 c         1 FSB      0.539700
      8 O08        -2.4140    2.5020    1.0230 o         1 FSB     -0.363100
      9 N09        -2.7410    1.3090    2.9900 ny        1 FSB     -0.681800
     10 C10        -3.8060    0.2950    2.6280 c3        1 FSB      0.194100
     11 S11         3.3620   -0.9020    1.0430 sy        1 FSB      1.463200
     12 NP2         4.4300    0.5290    0.4340 nz        1 FSB     -0.800500
     13 O13         3.3730   -1.7160   -0.0640 o         1 FSB     -0.534300
     14 O14         3.9800   -1.1940    2.2360 o         1 FSB     -0.534300
     15 C15        -4.5970   -0.0950    3.8240 ca        1 FSB     -0.237300
     16 C16        -5.9760    0.1310    3.8690 ca        1 FSB     -0.056000
     17 C17        -6.7270   -0.3270    4.9510 ca        1 FSB     -0.119000
     18 C18        -6.1090   -1.0100    6.0000 ca        1 FSB     -0.044000
     19 C19        -4.7310   -1.2370    5.9850 ca        1 FSB     -0.134000
     20 C20        -3.9750   -0.7760    4.8980 ca        1 FSB      0.122900
     21 F21        -2.6300   -0.9660    4.8660 f         1 FSB     -0.162900
     22 H01C       -0.9640    0.6050   -0.4590 ha        1 FSB      0.186500
     23 H02C        1.2510   -0.4560   -0.8040 ha        1 FSB      0.195500
     24 H04C        2.2860    0.3580    3.3450 ha        1 FSB      0.195500
     25 H05C        0.0840    1.4010    3.6990 ha        1 FSB      0.186500
     26 H09N       -2.1460    0.9080    3.7280 hn        1 FSB      0.472800
     27 H101       -4.4600    0.7580    1.8330 hx        1 FSB      0.116200
     28 H102       -3.2730   -0.6050    2.2040 hx        1 FSB      0.116200
     29 HNP1        5.2250    0.6750    1.0630 hn        1 FSB      0.471467
     30 HNP2        3.9370    1.4150    0.3600 hn        1 FSB      0.471467
     31 H16C       -6.4780    0.6580    3.0410 ha        1 FSB      0.158000
     32 H17C       -7.8160   -0.1520    4.9740 ha        1 FSB      0.179000
     33 H18C       -6.7100   -1.3770    6.8510 ha        1 FSB      0.180000
     34 H19C       -4.2370   -1.7740    6.8110 ha        1 FSB      0.182000
     35 H092       -3.2110    2.1470    3.3660 hn        1 FSB      0.472800
     36 HP23        4.8170    0.3180   -0.4900 hn        1 FSB      0.471467
@<TRIPOS>BOND
     1    1    2 ar  
     2    1    6 ar  
     3    1   22 1   
     4    2    3 ar  
     5    2   23 1   
     6    3    4 ar  
     7    3   11 1   
     8    4    5 ar  
     9    4   24 1   
    10    5    6 ar  
    11    5   25 1   
    12    6    7 1   
    13    7    8 2   
    14    7    9 1   
    15    9   10 1   
    16    9   26 1   
    17    9   35 1   
    18   10   15 1   
    19   10   27 1   
    20   10   28 1   
    21   11   12 1   
    22   11   13 2   
    23   11   14 2   
    24   12   29 1   
    25   12   30 1   
    26   12   36 1   
    27   15   16 ar  
    28   15   20 ar  
    29   16   17 ar  
    30   16   31 1   
    31   17   18 ar  
    32   17   32 1   
    33   18   19 ar  
    34   18   33 1   
    35   19   20 ar  
    36   19   34 1   
    37   20   21 1   
@<TRIPOS>SUBSTRUCTURE
     1 FSB         1 TEMP              0 ****  ****    0 ROOT
