@<TRIPOS>MOLECULE
FSB
   34    35     1     0     0
SMALL
bcc


@<TRIPOS>ATOM
      1 C01        -1.8510   -0.2820    1.5960 ca        1 FSB     -0.121000
      2 C02        -1.3740   -0.2110    2.9030 ca        1 FSB     -0.026500
      3 C03        -0.0070   -0.0600    3.1610 ca        1 FSB     -0.362500
      4 C04         0.8760    0.0300    2.0790 ca        1 FSB     -0.026500
      5 C05         0.4110   -0.0330    0.7670 ca        1 FSB     -0.121000
      6 C06        -0.9560   -0.1900    0.5250 ca        1 FSB     -0.077600
      7 C07        -1.4980   -0.2920   -0.8650 c         1 FSB      0.661700
      8 O08        -2.3690   -1.1350   -1.1590 o         1 FSB     -0.595100
      9 N09        -1.0380    0.6300   -1.7850 n         1 FSB     -0.555900
     10 C10        -1.3860    0.5610   -3.1780 c3        1 FSB      0.134300
     11 S11         0.5660    0.0430    4.7550 sy        1 FSB      1.525200
     12 NP2         0.8240   -1.4870    5.1450 n3        1 FSB     -1.026700
     13 O13        -0.4680    0.5610    5.5610 o         1 FSB     -0.654800
     14 O14         1.7970    0.7320    4.7340 o         1 FSB     -0.654800
     15 C15        -0.2930    0.0460   -4.0710 ca        1 FSB     -0.150300
     16 C16        -0.5020   -1.0870   -4.8590 ca        1 FSB     -0.088000
     17 C17         0.4910   -1.5460   -5.7240 ca        1 FSB     -0.142000
     18 C18         1.7120   -0.8770   -5.8070 ca        1 FSB     -0.101000
     19 C19         1.9500    0.2520   -5.0290 ca        1 FSB     -0.163000
     20 C20         0.9470    0.7140   -4.1560 ca        1 FSB      0.122900
     21 F21         1.1830    1.8130   -3.3960 f         1 FSB     -0.147900
     22 H01C       -2.9270   -0.4180    1.3970 ha        1 FSB      0.153500
     23 H02C       -2.0830   -0.2580    3.7480 ha        1 FSB      0.157500
     24 H04C        1.9540    0.1720    2.2720 ha        1 FSB      0.157500
     25 H05C        1.1270    0.0300   -0.0670 ha        1 FSB      0.153500
     26 H09N       -0.2660    1.2090   -1.5440 hn        1 FSB      0.319500
     27 H101       -2.3050   -0.0860   -3.2900 h1        1 FSB      0.077200
     28 H102       -1.6440    1.6090   -3.5160 h1        1 FSB      0.077200
     29 HNP1        1.6880   -1.9500    5.0090 hn        1 FSB      0.449800
     30 HNP2        0.1440   -2.0670    5.5690 hn        1 FSB      0.449800
     31 H16C       -1.4620   -1.6230   -4.7920 ha        1 FSB      0.147000
     32 H17C        0.3100   -2.4390   -6.3400 ha        1 FSB      0.141000
     33 H18C        2.4940   -1.2400   -6.4910 ha        1 FSB      0.140000
     34 H19C        2.9090    0.7870   -5.0850 ha        1 FSB      0.150000
@<TRIPOS>BOND
     1    1    2 ar  
     2    1    6 ar  
     3    1   22 1   
     4    2    3 ar  
     5    2   23 1   
     6    3    4 ar  
     7    3   11 1   
     8    4    5 ar  
     9    4   24 1   
    10    5    6 ar  
    11    5   25 1   
    12    6    7 1   
    13    7    8 2   
    14    7    9 1   
    15    9   10 1   
    16    9   26 1   
    17   10   15 1   
    18   10   27 1   
    19   10   28 1   
    20   11   12 1   
    21   11   13 2   
    22   11   14 2   
    23   12   29 1   
    24   12   30 1   
    25   15   16 ar  
    26   15   20 ar  
    27   16   17 ar  
    28   16   31 1   
    29   17   18 ar  
    30   17   32 1   
    31   18   19 ar  
    32   18   33 1   
    33   19   20 ar  
    34   19   34 1   
    35   20   21 1   
@<TRIPOS>SUBSTRUCTURE
     1 FSB         1 TEMP              0 ****  ****    0 ROOT
