@<TRIPOS>MOLECULE
FSB
   36    37     1     0     0
SMALL
bcc


@<TRIPOS>ATOM
      1 C01        -0.2580    0.5440    0.3810 ca        1 FSB     -0.096000
      2 C02         0.9960   -0.0330    0.1850 ca        1 FSB      0.012500
      3 C03         1.9340   -0.1070    1.2310 ca        1 FSB     -0.461500
      4 C04         1.5740    0.4170    2.4870 ca        1 FSB      0.012500
      5 C05         0.3210    0.9890    2.6990 ca        1 FSB     -0.096000
      6 C06        -0.5970    1.0480    1.6440 ca        1 FSB     -0.076600
      7 C07        -1.9230    1.6950    1.7960 c         1 FSB      0.539700
      8 O08        -2.4170    2.5050    1.0260 o         1 FSB     -0.363100
      9 N09        -2.7410    1.3120    2.9940 n4        1 FSB     -0.681800
     10 C10        -3.8060    0.2970    2.6350 c3        1 FSB      0.194100
     11 S11         3.3550   -0.9050    1.0300 sy        1 FSB      1.463200
     12 NP2         4.4240    0.5240    0.4190 n4        1 FSB     -0.800500
     13 O13         3.3620   -1.7190   -0.0770 o         1 FSB     -0.534300
     14 O14         3.9760   -1.1980    2.2220 o         1 FSB     -0.534300
     15 C15        -4.5930   -0.0930    3.8320 ca        1 FSB     -0.237300
     16 C16        -5.9720    0.1320    3.8820 ca        1 FSB     -0.056000
     17 C17        -6.7200   -0.3270    4.9660 ca        1 FSB     -0.119000
     18 C18        -6.0980   -1.0090    6.0130 ca        1 FSB     -0.044000
     19 C19        -4.7210   -1.2350    5.9940 ca        1 FSB     -0.134000
     20 C20        -3.9680   -0.7740    4.9050 ca        1 FSB      0.122900
     21 F21        -2.6220   -0.9640    4.8690 f         1 FSB     -0.162900
     22 H01C       -0.9730    0.6060   -0.4610 ha        1 FSB      0.186500
     23 H02C        1.2400   -0.4570   -0.8110 ha        1 FSB      0.195500
     24 H04C        2.2870    0.3550    3.3350 ha        1 FSB      0.195500
     25 H05C        0.0860    1.4010    3.6950 ha        1 FSB      0.186500
     26 H09N       -2.1440    0.9110    3.7300 hn        1 FSB      0.472800
     27 H101       -4.4620    0.7600    1.8410 hx        1 FSB      0.116200
     28 H102       -3.2730   -0.6020    2.2080 hx        1 FSB      0.116200
     29 HNP1        5.2210    0.6690    1.0460 hn        1 FSB      0.471467
     30 HNP2        3.9310    1.4110    0.3470 hn        1 FSB      0.471467
     31 H16C       -6.4770    0.6590    3.0550 ha        1 FSB      0.158000
     32 H17C       -7.8090   -0.1520    4.9920 ha        1 FSB      0.179000
     33 H18C       -6.6970   -1.3760    6.8660 ha        1 FSB      0.180000
     34 H19C       -4.2230   -1.7720    6.8180 ha        1 FSB      0.182000
     35 H092       -3.2100    2.1500    3.3700 hn        1 FSB      0.472800
     36 HP23        4.8080    0.3130   -0.5060 hn        1 FSB      0.471467
@<TRIPOS>BOND
     1    1    2 ar  
     2    1    6 ar  
     3    1   22 1   
     4    2    3 ar  
     5    2   23 1   
     6    3    4 ar  
     7    3   11 1   
     8    4    5 ar  
     9    4   24 1   
    10    5    6 ar  
    11    5   25 1   
    12    6    7 1   
    13    7    8 2   
    14    7    9 1   
    15    9   10 1   
    16    9   26 1   
    17    9   35 1   
    18   10   15 1   
    19   10   27 1   
    20   10   28 1   
    21   11   12 1   
    22   11   13 2   
    23   11   14 2   
    24   12   29 1   
    25   12   30 1   
    26   12   36 1   
    27   15   16 ar  
    28   15   20 ar  
    29   16   17 ar  
    30   16   31 1   
    31   17   18 ar  
    32   17   32 1   
    33   18   19 ar  
    34   18   33 1   
    35   19   20 ar  
    36   19   34 1   
    37   20   21 1   
@<TRIPOS>SUBSTRUCTURE
     1 FSB         1 TEMP              0 ****  ****    0 ROOT
