@<TRIPOS>MOLECULE
FSB
   34    29     1     0     0
SMALL
bcc


@<TRIPOS>ATOM
      1 C01         1.6220   -0.4990    2.4000 c1        1 FSB     -0.107000
      2 C02         3.0030   -0.3490    2.3870 c1        1 FSB     -0.027000
      3 C03         3.6740   -0.2150    1.1820 c1        1 FSB     -0.806000
      4 C04         2.9670   -0.2320   -0.0130 c1        1 FSB     -0.106250
      5 C05         1.5850   -0.3830   -0.0010 c1        1 FSB     -0.106250
      6 C06         0.9130   -0.5160    1.2040 c1        1 FSB     -0.058000
      7 C07        -0.6280   -0.5710    1.2240 c2        1 FSB      0.334000
      8 O08        -1.2230   -0.5990    2.2880 o         1 FSB     -0.353000
      9 N09        -1.3700   -0.5360   -0.0170 n         1 FSB     -0.364000
     10 C10        -2.7930   -0.7930   -0.0160 c3        1 FSB      0.010000
     11 S11         5.4290    0.0160    1.1670 s4        1 FSB      2.080800
     12 NP2         6.1920   -1.4260    1.2960 n2        1 FSB     -0.954000
     13 O13         5.8510    0.7240   -0.0100 o         1 FSB     -0.542400
     14 O14         5.8440    0.9200    2.2000 o         1 FSB     -0.542400
     15 C15        -3.4840    0.1550   -1.0020 c2        1 FSB     -0.143000
     16 C16        -3.9240    1.3990   -0.5750 c2        1 FSB     -0.087000
     17 C17        -4.5370    2.2640   -1.4710 c1        1 FSB     -0.141000
     18 C18        -4.7110    1.8840   -2.7940 c1        1 FSB     -0.106250
     19 C19        -4.2720    0.6400   -3.2220 c1        1 FSB     -0.106250
     20 C20        -3.6580   -0.2250   -2.3260 c1        1 FSB      0.086000
     21 F21        -3.2000   -1.4110   -2.7470 f         1 FSB     -0.115000
     22 H01C        1.1500   -0.5930    3.2470 ha        1 FSB      0.164000
     23 H02C        3.5010   -0.3370    3.2280 ha        1 FSB      0.158000
     24 H04C        3.4410   -0.1380   -0.8630 ha        1 FSB      0.148000
     25 H05C        1.0890   -0.3940   -0.8400 ha        1 FSB      0.148000
     26 H09N       -0.9310   -0.4130   -0.8060 hn        1 FSB      0.230000
     27 H101       -3.1510   -0.6460    0.8840 h1        1 FSB      0.116000
     28 H102       -2.9580   -1.7230   -0.2850 h1        1 FSB      0.116000
     29 HNP1        6.5230   -1.6960    2.1030 hn        1 FSB      0.244000
     30 HNP2        6.2440   -1.9810    0.5740 hn        1 FSB      0.244000
     31 H16C       -3.8020    1.6670    0.3550 ha        1 FSB      0.148000
     32 H17C       -4.8470    3.1400   -1.1710 ha        1 FSB      0.141000
     33 H18C       -5.1440    2.4940   -3.4260 ha        1 FSB      0.148000
     34 H19C       -4.3940    0.3730   -4.1530 ha        1 FSB      0.148000
@<TRIPOS>BOND
     1    1    6 1   
     2    1   22 1   
     3    2    3 1   
     4    2   23 1   
     5    3   11 1   
     6    4    5 1   
     7    4   24 1   
     8    5   25 1   
     9    6    7 1   
    10    7    8 1   
    11    7    9 1   
    12    9   10 1   
    13    9   26 1   
    14   10   15 1   
    15   10   27 1   
    16   10   28 1   
    17   11   13 1   
    18   11   14 1   
    19   12   29 1   
    20   12   30 1   
    21   15   16 1   
    22   15   20 1   
    23   16   17 1   
    24   16   31 1   
    25   17   32 1   
    26   18   19 1   
    27   18   33 1   
    28   19   34 1   
    29   20   21 1   
@<TRIPOS>SUBSTRUCTURE
     1 FSB         1 TEMP              0 ****  ****    0 ROOT
