@<TRIPOS>MOLECULE
FSB
   36    37     1     0     0
SMALL
bcc


@<TRIPOS>ATOM
      1 C01        -0.2390    0.5220    0.3870 ca        1 FSB     -0.096000
      2 C02         1.0160   -0.0570    0.2070 ca        1 FSB      0.012500
      3 C03         1.9460   -0.1190    1.2620 ca        1 FSB     -0.461500
      4 C04         1.5740    0.4170    2.5090 ca        1 FSB      0.012500
      5 C05         0.3190    0.9910    2.7040 ca        1 FSB     -0.096000
      6 C06        -0.5900    1.0390    1.6410 ca        1 FSB     -0.076600
      7 C07        -1.9170    1.6870    1.7750 c         1 FSB      0.539700
      8 O08        -2.4050    2.4880    0.9920 o         1 FSB     -0.363100
      9 N09        -2.7450    1.3160    2.9690 n4        1 FSB     -0.681800
     10 C10        -3.8040    0.2940    2.6130 c3        1 FSB      0.195100
     11 S11         3.3690   -0.9190    1.0820 sy        1 FSB      1.463200
     12 NP2         4.4410    0.5050    0.4640 n4        1 FSB     -0.800500
     13 O13         3.3850   -1.7440   -0.0170 o         1 FSB     -0.534300
     14 O14         3.9790   -1.1980    2.2810 o         1 FSB     -0.534300
     15 C15        -4.6010   -0.0840    3.8070 ca        1 FSB     -0.237300
     16 C16        -5.9820    0.1380    3.8410 ca        1 FSB     -0.056000
     17 C17        -6.7390   -0.3090    4.9230 ca        1 FSB     -0.119000
     18 C18        -6.1260   -0.9770    5.9840 ca        1 FSB     -0.044000
     19 C19        -4.7470   -1.1990    5.9820 ca        1 FSB     -0.134000
     20 C20        -3.9850   -0.7500    4.8950 ca        1 FSB      0.122900
     21 F21        -2.6390   -0.9350    4.8750 f         1 FSB     -0.162900
     22 H01C       -0.9480    0.5750   -0.4620 ha        1 FSB      0.186500
     23 H02C        1.2690   -0.4910   -0.7820 ha        1 FSB      0.195500
     24 H04C        2.2800    0.3650    3.3640 ha        1 FSB      0.195500
     25 H05C        0.0760    1.4140    3.6940 ha        1 FSB      0.186500
     26 H09N       -3.2200    2.1570    3.3310 hn        1 FSB      0.472800
     27 H101       -3.2640   -0.6100    2.2030 hx        1 FSB      0.115700
     28 H102       -4.4540    0.7450    1.8080 hx        1 FSB      0.115700
     29 HNP1        5.2330    0.6570    1.0960 hn        1 FSB      0.471467
     30 HNP2        4.8330    0.2840   -0.4560 hn        1 FSB      0.471467
     31 H16C       -6.4800    0.6530    3.0020 ha        1 FSB      0.158000
     32 H17C       -7.8290   -0.1380    4.9360 ha        1 FSB      0.179000
     33 H18C       -6.7320   -1.3350    6.8360 ha        1 FSB      0.180000
     34 H19C       -4.2570   -1.7240    6.8180 ha        1 FSB      0.182000
     35 H092       -2.1540    0.9260    3.7160 hn        1 FSB      0.472800
     36 HP23        3.9490    1.3910    0.3780 hn        1 FSB      0.471467
@<TRIPOS>BOND
     1    1    2 ar  
     2    1    6 ar  
     3    1   22 1   
     4    2    3 ar  
     5    2   23 1   
     6    3    4 ar  
     7    3   11 1   
     8    4    5 ar  
     9    4   24 1   
    10    5    6 ar  
    11    5   25 1   
    12    6    7 1   
    13    7    8 2   
    14    7    9 1   
    15    9   10 1   
    16    9   26 1   
    17    9   35 1   
    18   10   15 1   
    19   10   27 1   
    20   10   28 1   
    21   11   12 1   
    22   11   13 2   
    23   11   14 2   
    24   12   29 1   
    25   12   30 1   
    26   12   36 1   
    27   15   16 ar  
    28   15   20 ar  
    29   16   17 ar  
    30   16   31 1   
    31   17   18 ar  
    32   17   32 1   
    33   18   19 ar  
    34   18   33 1   
    35   19   20 ar  
    36   19   34 1   
    37   20   21 1   
@<TRIPOS>SUBSTRUCTURE
     1 FSB         1 TEMP              0 ****  ****    0 ROOT
