@<TRIPOS>MOLECULE
FSE
   31    33     1     0     0
SMALL
bcc


@<TRIPOS>ATOM
      1 C6         -4.7640    0.1120    0.1250 ca        1 FSE     -0.250000
      2 C5         -3.9010   -0.9700    0.1440 ca        1 FSE     -0.001000
      3 C10        -2.5090   -0.7780    0.1030 ca        1 FSE     -0.255600
      4 C9         -2.0050    0.5330    0.0430 ca        1 FSE      0.189100
      5 C8         -2.8570    1.6500    0.0220 ca        1 FSE     -0.199000
      6 C7         -4.2350    1.4200    0.0640 ca        1 FSE      0.185100
      7 C4         -1.5870   -1.9060    0.1220 c         1 FSE      0.578900
      8 C3         -0.1640   -1.5240    0.0830 cc        1 FSE     -0.073100
      9 C2          0.2510   -0.2270    0.0180 cd        1 FSE      0.149900
     10 C1'         1.6210    0.2720   -0.0460 ca        1 FSE     -0.061800
     11 C6'         1.8930    1.5050   -0.6590 ca        1 FSE     -0.088000
     12 C5'         3.1930    1.9920   -0.7380 ca        1 FSE     -0.146000
     13 C4'         4.2480    1.2440   -0.1970 ca        1 FSE      0.132100
     14 C3'         3.9750    0.0060    0.4250 ca        1 FSE      0.029100
     15 C2'         2.6690   -0.4780    0.5050 ca        1 FSE     -0.125000
     16 O1         -0.6580    0.8300    0.0010 os        1 FSE     -0.211200
     17 O4         -1.9260   -3.1000    0.1610 o         1 FSE     -0.562100
     18 O3'         5.0650   -0.6660    0.9430 oh        1 FSE     -0.518100
     19 O4'         5.5130    1.7650   -0.2980 oh        1 FSE     -0.490100
     20 O3          0.7730   -2.5340    0.1140 oh        1 FSE     -0.495100
     21 O7         -5.0370    2.5330    0.0420 oh        1 FSE     -0.486100
     22 H6         -5.8520   -0.0390    0.1560 ha        1 FSE      0.145000
     23 H5         -4.2880   -2.0020    0.1910 ha        1 FSE      0.163000
     24 H8         -2.4510    2.6700   -0.0230 ha        1 FSE      0.175000
     25 H6'         1.0650    2.0950   -1.0830 ha        1 FSE      0.150000
     26 H5'         3.4110    2.9560   -1.2200 ha        1 FSE      0.157000
     27 H2'         2.4690   -1.4450    0.9940 ha        1 FSE      0.162000
     28 H3'         4.7560   -1.5250    1.2660 ho        1 FSE      0.433000
     29 H4'         6.1310    1.1350    0.1060 ho        1 FSE      0.440000
     30 HO3         0.2880   -3.3750    0.0360 ho        1 FSE      0.444000
     31 HO7        -5.9610    2.2410    0.0770 ho        1 FSE      0.428000
@<TRIPOS>BOND
     1    1    2 ar  
     2    1    6 ar  
     3    1   22 1   
     4    2    3 ar  
     5    2   23 1   
     6    3    4 ar  
     7    3    7 1   
     8    4    5 ar  
     9    4   16 1   
    10    5    6 ar  
    11    5   24 1   
    12    6   21 1   
    13    7    8 1   
    14    7   17 2   
    15    8    9 2   
    16    8   20 1   
    17    9   10 1   
    18    9   16 1   
    19   10   11 ar  
    20   10   15 ar  
    21   11   12 ar  
    22   11   25 1   
    23   12   13 ar  
    24   12   26 1   
    25   13   14 ar  
    26   13   19 1   
    27   14   15 ar  
    28   14   18 1   
    29   15   27 1   
    30   18   28 1   
    31   19   29 1   
    32   20   30 1   
    33   21   31 1   
@<TRIPOS>SUBSTRUCTURE
     1 FSE         1 TEMP              0 ****  ****    0 ROOT
