@<TRIPOS>MOLECULE
FSE
   31    27     1     0     0
SMALL
bcc


@<TRIPOS>ATOM
      1 C6         -3.2040    0.0210   -3.6980 c1        1 FSE     -0.250000
      2 C5         -1.8080    0.0070   -3.7050 c1        1 FSE     -0.002000
      3 C10        -1.1020    0.0590   -2.5000 c1        1 FSE     -0.236000
      4 C9         -1.7990    0.1250   -1.2810 c1        1 FSE      0.145000
      5 C8         -3.1970    0.1390   -1.2760 c1        1 FSE     -0.199000
      6 C7         -3.9000    0.0880   -2.4800 c1        1 FSE      0.140000
      7 C4          0.4010    0.0000   -2.5030 c2        1 FSE      0.300000
      8 C3          1.1250    0.0430   -1.2520 c2        1 FSE     -0.094000
      9 C2          0.3830    0.1600    0.0180 c1        1 FSE      0.090000
     10 C1'         1.1300    0.1600    1.3350 c1        1 FSE     -0.044000
     11 C6'         1.4300    1.3590    1.9620 c2        1 FSE     -0.085000
     12 C5'         2.1150    1.3580    3.1670 c1        1 FSE     -0.181000
     13 C4'         2.5010    0.1590    3.7450 c1        1 FSE      0.034500
     14 C3'         2.2010   -1.0410    3.1170 c1        1 FSE      0.034500
     15 C2'         1.5160   -1.0400    1.9120 c1        1 FSE     -0.099000
     16 O1         -1.0480    0.2760    0.0030 os        1 FSE     -0.120000
     17 O4          1.0050   -0.0960   -3.5530 o         1 FSE     -0.323000
     18 O3'         2.5640   -2.2590    3.7200 oh        1 FSE     -0.257500
     19 O4'         3.2170    0.1590    4.9570 oh        1 FSE     -0.257500
     20 O3          2.5170   -0.1570   -1.2380 oh        1 FSE     -0.246000
     21 O7         -5.3060    0.1420   -2.4760 oh        1 FSE     -0.240000
     22 H6         -3.6960   -0.0150   -4.5400 ha        1 FSE      0.144000
     23 H5         -1.3250   -0.0390   -4.5530 ha        1 FSE      0.163000
     24 H8         -3.6810    0.1850   -0.4300 ha        1 FSE      0.176000
     25 H6'         1.1580    2.2030    1.5560 ha        1 FSE      0.163000
     26 H5'         2.3260    2.2030    3.6090 ha        1 FSE      0.140000
     27 H2'         1.3050   -1.8840    1.4710 ha        1 FSE      0.166000
     28 H3'         1.8460   -2.6330    4.0880 ho        1 FSE      0.233500
     29 H4'         4.0390    0.4660    4.8150 ho        1 FSE      0.233500
     30 HO3         2.9190    0.5250   -1.6430 ho        1 FSE      0.243000
     31 HO7        -5.6340   -0.6740   -2.3500 ho        1 FSE      0.227000
@<TRIPOS>BOND
     1    1    6 1   
     2    1   22 1   
     3    2    3 1   
     4    2   23 1   
     5    3    7 1   
     6    4    5 1   
     7    4   16 1   
     8    5   24 1   
     9    6   21 1   
    10    7    8 1   
    11    7   17 1   
    12    8    9 1   
    13    8   20 1   
    14    9   16 1   
    15   10   11 1   
    16   10   15 1   
    17   11   12 1   
    18   11   25 1   
    19   12   26 1   
    20   13   14 1   
    21   13   19 1   
    22   14   18 1   
    23   15   27 1   
    24   18   28 1   
    25   19   29 1   
    26   20   30 1   
    27   21   31 1   
@<TRIPOS>SUBSTRUCTURE
     1 FSE         1 TEMP              0 ****  ****    0 ROOT
