@<TRIPOS>MOLECULE
FSE
   31    33     1     0     0
SMALL
bcc


@<TRIPOS>ATOM
      1 C6         -0.0650    0.0380    0.1030 ca        1 FSE     -0.250000
      2 C5          1.3140   -0.0570    0.0300 ca        1 FSE     -0.001000
      3 C10         2.0950   -0.0820    1.1990 ca        1 FSE     -0.255600
      4 C9          1.4510   -0.0090    2.4470 ca        1 FSE      0.189100
      5 C8          0.0540    0.0890    2.5510 ca        1 FSE     -0.200000
      6 C7         -0.6890    0.1110    1.3660 ca        1 FSE      0.185100
      7 C4          3.5470   -0.1810    1.1400 c         1 FSE      0.578900
      8 C3          4.2050   -0.2040    2.4590 cc        1 FSE     -0.071100
      9 C2          3.5130   -0.1220    3.6310 cd        1 FSE      0.147900
     10 C1'         4.0500   -0.1150    4.9880 ca        1 FSE     -0.056800
     11 C6'         3.3460    0.5220    6.0190 ca        1 FSE     -0.086000
     12 C5'         3.8540    0.5420    7.3150 ca        1 FSE     -0.197000
     13 C4'         5.0750   -0.0790    7.6000 ca        1 FSE      0.121100
     14 C3'         5.7880   -0.7280    6.5630 ca        1 FSE      0.092100
     15 C2'         5.2720   -0.7460    5.2660 ca        1 FSE     -0.143000
     16 O1          2.1230   -0.0260    3.6520 os        1 FSE     -0.212200
     17 O4          4.2130   -0.2370    0.0940 o         1 FSE     -0.561100
     18 O3'         6.9780   -1.3270    6.9040 oh        1 FSE     -0.475100
     19 O4'         5.6360   -0.0960    8.8530 oh        1 FSE     -0.470100
     20 O3          5.5790   -0.3140    2.4890 oh        1 FSE     -0.493100
     21 O7         -2.0500    0.2060    1.5060 oh        1 FSE     -0.486100
     22 H6         -0.6730    0.0580   -0.8120 ha        1 FSE      0.145000
     23 H5          1.8270   -0.1150   -0.9450 ha        1 FSE      0.163000
     24 H8         -0.4380    0.1430    3.5310 ha        1 FSE      0.174000
     25 H6'         2.3830    1.0100    5.8030 ha        1 FSE      0.149000
     26 H5'         3.2970    1.0460    8.1180 ha        1 FSE      0.140000
     27 H2'         5.8310   -1.2540    4.4630 ha        1 FSE      0.163000
     28 H3'         7.3690   -1.6830    6.0910 ho        1 FSE      0.419000
     29 H4'         5.0380    0.3790    9.4490 ho        1 FSE      0.418000
     30 HO3         5.8910   -0.2400    1.5700 ho        1 FSE      0.445000
     31 HO7        -2.4450    0.2090    0.6210 ho        1 FSE      0.428000
@<TRIPOS>BOND
     1    1    2 ar  
     2    1    6 ar  
     3    1   22 1   
     4    2    3 ar  
     5    2   23 1   
     6    3    4 ar  
     7    3    7 1   
     8    4    5 ar  
     9    4   16 1   
    10    5    6 ar  
    11    5   24 1   
    12    6   21 1   
    13    7    8 1   
    14    7   17 2   
    15    8    9 2   
    16    8   20 1   
    17    9   10 1   
    18    9   16 1   
    19   10   11 ar  
    20   10   15 ar  
    21   11   12 ar  
    22   11   25 1   
    23   12   13 ar  
    24   12   26 1   
    25   13   14 ar  
    26   13   19 1   
    27   14   15 ar  
    28   14   18 1   
    29   15   27 1   
    30   18   28 1   
    31   19   29 1   
    32   20   30 1   
    33   21   31 1   
@<TRIPOS>SUBSTRUCTURE
     1 FSE         1 TEMP              0 ****  ****    0 ROOT
