@<TRIPOS>MOLECULE
FSE
   31    33     1     0     0
SMALL
bcc


@<TRIPOS>ATOM
      1 C6         -0.0890    0.0010    0.1230 ca        1 FSE     -0.250000
      2 C5          1.2880   -0.1110    0.0420 ca        1 FSE     -0.001000
      3 C10         2.0760   -0.1210    1.2060 ca        1 FSE     -0.255600
      4 C9          1.4430   -0.0160    2.4570 ca        1 FSE      0.189100
      5 C8          0.0480    0.0990    2.5690 ca        1 FSE     -0.200000
      6 C7         -0.7040    0.1060    1.3900 ca        1 FSE      0.185100
      7 C4          3.5270   -0.2370    1.1380 c         1 FSE      0.578900
      8 C3          4.1950   -0.2420    2.4520 cc        1 FSE     -0.071100
      9 C2          3.5130   -0.1290    3.6270 cd        1 FSE      0.147900
     10 C1'         4.0600   -0.1010    4.9810 ca        1 FSE     -0.056800
     11 C6'         3.3710    0.5650    6.0040 ca        1 FSE     -0.086000
     12 C5'         3.8880    0.6040    7.2950 ca        1 FSE     -0.197000
     13 C4'         5.1050   -0.0240    7.5840 ca        1 FSE      0.121100
     14 C3'         5.8020   -0.7010    6.5550 ca        1 FSE      0.092100
     15 C2'         5.2760   -0.7400    5.2620 ca        1 FSE     -0.143000
     16 O1          2.1230   -0.0170    3.6570 os        1 FSE     -0.212200
     17 O4          4.1850   -0.3210    0.0880 o         1 FSE     -0.561100
     18 O3'         6.9890   -1.3070    6.8980 oh        1 FSE     -0.475100
     19 O4'         5.6750   -0.0230    8.8320 oh        1 FSE     -0.470100
     20 O3          5.5680   -0.3650    2.4750 oh        1 FSE     -0.493100
     21 O7         -2.0620    0.2190    1.5370 oh        1 FSE     -0.486100
     22 H6         -0.7050    0.0090   -0.7870 ha        1 FSE      0.145000
     23 H5          1.7930   -0.1930   -0.9350 ha        1 FSE      0.163000
     24 H8         -0.4360    0.1780    3.5520 ha        1 FSE      0.174000
     25 H6'         2.4120    1.0590    5.7850 ha        1 FSE      0.149000
     26 H5'         3.3430    1.1310    8.0920 ha        1 FSE      0.140000
     27 H2'         5.8240   -1.2690    4.4650 ha        1 FSE      0.163000
     28 H3'         7.3690   -1.6830    6.0900 ho        1 FSE      0.419000
     29 H4'         5.0860    0.4710    9.4240 ho        1 FSE      0.418000
     30 HO3         5.8740   -0.3130    1.5520 ho        1 FSE      0.445000
     31 HO7        -2.4640    0.2090    0.6550 ho        1 FSE      0.428000
@<TRIPOS>BOND
     1    1    2 ar  
     2    1    6 ar  
     3    1   22 1   
     4    2    3 ar  
     5    2   23 1   
     6    3    4 ar  
     7    3    7 1   
     8    4    5 ar  
     9    4   16 1   
    10    5    6 ar  
    11    5   24 1   
    12    6   21 1   
    13    7    8 1   
    14    7   17 2   
    15    8    9 2   
    16    8   20 1   
    17    9   10 1   
    18    9   16 1   
    19   10   11 ar  
    20   10   15 ar  
    21   11   12 ar  
    22   11   25 1   
    23   12   13 ar  
    24   12   26 1   
    25   13   14 ar  
    26   13   19 1   
    27   14   15 ar  
    28   14   18 1   
    29   15   27 1   
    30   18   28 1   
    31   19   29 1   
    32   20   30 1   
    33   21   31 1   
@<TRIPOS>SUBSTRUCTURE
     1 FSE         1 TEMP              0 ****  ****    0 ROOT
