@<TRIPOS>MOLECULE
FSG
   13    11     1     0     0
SMALL
bcc


@<TRIPOS>ATOM
      1 O1P         1.9070   -0.5720    1.2990 o         1 FSG     -1.183667
      2 P           1.5210   -0.5050   -0.1310 p3        1 FSG      2.501000
      3 O3P         2.3740    0.2850   -1.0550 o         1 FSG     -1.183667
      4 O2P         0.7530   -1.6450   -0.7040 o         1 FSG     -1.183667
      5 C1         -0.3200    0.9360   -0.3390 c2        1 FSG     -0.528000
      6 F           0.3230    1.7800    0.5200 f         1 FSG     -0.170000
      7 C2         -1.6820    0.6020   -0.0990 c2        1 FSG      0.256000
      8 O2         -2.4010    0.9040    0.9010 o         1 FSG     -0.526000
      9 N3         -2.3040   -0.2720   -1.0990 n         1 FSG     -0.194000
     10 O3         -3.4670   -0.8080   -0.7090 oh        1 FSG     -0.311000
     11 H1          0.0440    1.0110   -1.3750 h4        1 FSG      0.136000
     12 HN3        -1.6470   -1.0340   -1.2930 hn        1 FSG      0.192000
     13 HO3        -3.5900   -0.6560    0.2540 ho        1 FSG      0.194000
@<TRIPOS>BOND
     1    1    2 1   
     2    2    3 1   
     3    2    4 1   
     4    5    6 1   
     5    5    7 1   
     6    5   11 1   
     7    7    8 1   
     8    7    9 1   
     9    9   10 1   
    10    9   12 1   
    11   10   13 1   
@<TRIPOS>SUBSTRUCTURE
     1 FSG         1 TEMP              0 ****  ****    0 ROOT
