@<TRIPOS>MOLECULE
FSG
   13    11     1     0     0
SMALL
bcc


@<TRIPOS>ATOM
      1 O1P         0.1490   -0.0100   -0.5510 o         1 FSG     -1.183667
      2 P           1.5990    0.0320   -0.2510 p3        1 FSG      2.501000
      3 O3P         2.3970   -1.2050   -0.4560 o         1 FSG     -1.183667
      4 O2P         2.3040    1.3360   -0.3750 o         1 FSG     -1.183667
      5 C1          1.8790    0.0180    2.0800 c2        1 FSG     -0.528000
      6 F           0.9190   -0.9510    2.1270 f         1 FSG     -0.170000
      7 C2          1.7780    1.1430    2.9460 c2        1 FSG      0.256000
      8 O2          0.8280    1.4500    3.7280 o         1 FSG     -0.526000
      9 N3          2.8800    2.1070    2.8590 n         1 FSG     -0.194000
     10 O3          2.6240    3.2820    3.4500 oh        1 FSG     -0.311000
     11 H1          2.8740   -0.3690    1.8090 h4        1 FSG      0.136000
     12 HN3         3.0610    2.2780    1.8660 hn        1 FSG      0.192000
     13 HO3         1.6690    3.3360    3.6690 ho        1 FSG      0.194000
@<TRIPOS>BOND
     1    1    2 1   
     2    2    3 1   
     3    2    4 1   
     4    5    6 1   
     5    5    7 1   
     6    5   11 1   
     7    7    8 1   
     8    7    9 1   
     9    9   10 1   
    10    9   12 1   
    11   10   13 1   
@<TRIPOS>SUBSTRUCTURE
     1 FSG         1 TEMP              0 ****  ****    0 ROOT
