@<TRIPOS>MOLECULE
FSG
   13    11     1     0     0
SMALL
bcc


@<TRIPOS>ATOM
      1 O1P        -2.8520   -0.3750   -1.7620 o         1 FSG     -0.861500
      2 P          -1.3360   -0.0980   -1.6460 p4        1 FSG      1.503000
      3 O3P        -0.5610   -1.2860   -2.1850 os        1 FSG     -1.189000
      4 O2P        -0.9840    1.1470   -2.4540 o         1 FSG     -0.910300
      5 C1         -0.9000    0.1700    0.1030 c3        1 FSG     -0.059600
      6 F          -1.4600    1.2760    0.5280 f         1 FSG     -0.241300
      7 C2          0.6070    0.2840    0.2370 c         1 FSG      0.612100
      8 O2          1.2580    0.8390   -0.6370 o         1 FSG     -0.765100
      9 N3          1.2590   -0.2640    1.3600 n         1 FSG     -0.353400
     10 O3          2.5990   -0.1390    1.4910 oh        1 FSG     -0.506100
     11 H1         -1.2090   -0.5620    0.6230 h1        1 FSG      0.096700
     12 HN3         0.7530   -0.6690    2.0490 hn        1 FSG      0.278500
     13 HO3         2.8260   -0.3230    2.2940 ho        1 FSG      0.395000
@<TRIPOS>BOND
     1    1    2 1   
     2    2    4 2   
     3    2    5 1   
     4    5    6 1   
     5    5    7 1   
     6    5   11 1   
     7    7    8 2   
     8    7    9 1   
     9    9   10 1   
    10    9   12 1   
    11   10   13 1   
@<TRIPOS>SUBSTRUCTURE
     1 FSG         1 TEMP              0 ****  ****    0 ROOT
