@<TRIPOS>MOLECULE
FSI
   39    39     1     0     0
SMALL
bcc


@<TRIPOS>ATOM
      1 O2          0.2860   -1.9960   -1.6140 oh        1 FSI     -0.659800
      2 C1         -0.0030   -3.2970    0.4780 c         1 FSI      0.933600
      3 F1          2.1200   -1.3690    1.4420 f         1 FSI     -0.224300
      4 C2          0.4070   -1.9310   -0.2130 c3        1 FSI      0.177600
      5 C3          1.8530   -1.4600    0.0900 c3        1 FSI      0.144600
      6 C4          2.0630   -0.0900   -0.5990 c3        1 FSI      0.085100
      7 O4          3.3740    0.3920   -0.3880 oh        1 FSI     -0.609800
      8 C5          0.9980    0.9150   -0.0850 c3        1 FSI      0.027700
      9 N5          1.1630    2.2390   -0.6440 n         1 FSI     -0.538900
     10 C6         -0.4060    0.3340   -0.3870 c3        1 FSI      0.116100
     11 O6         -0.5500   -0.9620    0.1860 os        1 FSI     -0.424600
     12 C7         -1.5220    1.1650    0.2750 c3        1 FSI      0.136100
     13 O7         -1.4960    1.0560    1.6820 oh        1 FSI     -0.608800
     14 C8         -2.8890    0.7190   -0.2830 c3        1 FSI      0.062100
     15 O8         -3.1090    1.2810   -1.5680 oh        1 FSI     -0.602800
     16 C9         -4.0390    1.1020    0.6560 c3        1 FSI      0.096400
     17 O9         -5.1050    1.6940   -0.0640 oh        1 FSI     -0.617800
     18 C10         2.1100    3.1150   -0.1370 c         1 FSI      0.657100
     19 O10         2.6930    2.9100    0.9460 o         1 FSI     -0.611100
     20 C11         2.3610    4.3810   -0.9260 c3        1 FSI     -0.175100
     21 O1A         0.0950   -3.3990    1.7170 o         1 FSI     -0.790300
     22 O1B        -0.3940   -4.1730   -0.3400 o         1 FSI     -0.790300
     23 HO2        -0.2390   -2.7890   -1.8210 ho        1 FSI      0.449000
     24 H3          2.5650   -2.2070   -0.3620 h1        1 FSI      0.071700
     25 H4          1.9780   -0.2360   -1.7110 h1        1 FSI      0.090700
     26 HO4         3.4540    0.5970    0.5550 ho        1 FSI      0.421000
     27 H5          1.1090    0.9960    1.0400 h1        1 FSI      0.109700
     28 HN5         0.9240    2.3320   -1.6040 hn        1 FSI      0.293500
     29 H6         -0.5780    0.2740   -1.4970 h1        1 FSI      0.064700
     30 H7         -1.3750    2.2610    0.0660 h1        1 FSI      0.065700
     31 HO7        -1.3380    0.1250    1.9050 ho        1 FSI      0.441000
     32 H8         -2.8750   -0.3940   -0.4650 h1        1 FSI      0.110700
     33 HO8        -3.2250    2.2320   -1.4450 ho        1 FSI      0.398000
     34 H9         -4.4020    0.1970    1.2090 h1        1 FSI      0.060200
     35 H9A        -3.7190    1.8850    1.3950 h1        1 FSI      0.060200
     36 HO9        -5.3000    1.1150   -0.8130 ho        1 FSI      0.406000
     37 H11         1.4090    4.9390   -1.0930 hc        1 FSI      0.058367
     38 H11A        3.0660    5.0280   -0.3510 hc        1 FSI      0.058367
     39 H11B        2.8190    4.1330   -1.9130 hc        1 FSI      0.058367
@<TRIPOS>BOND
     1    1    4 1   
     2    1   23 1   
     3    2    4 1   
     4    2   21 1   
     5    2   22 1   
     6    3    5 1   
     7    4    5 1   
     8    4   11 1   
     9    5    6 1   
    10    5   24 1   
    11    6    7 1   
    12    6    8 1   
    13    6   25 1   
    14    7   26 1   
    15    8    9 1   
    16    8   10 1   
    17    8   27 1   
    18    9   18 1   
    19    9   28 1   
    20   10   11 1   
    21   10   12 1   
    22   10   29 1   
    23   12   13 1   
    24   12   14 1   
    25   12   30 1   
    26   13   31 1   
    27   14   15 1   
    28   14   16 1   
    29   14   32 1   
    30   15   33 1   
    31   16   17 1   
    32   16   34 1   
    33   16   35 1   
    34   17   36 1   
    35   18   19 2   
    36   18   20 1   
    37   20   37 1   
    38   20   38 1   
    39   20   39 1   
@<TRIPOS>SUBSTRUCTURE
     1 FSI         1 TEMP              0 ****  ****    0 ROOT
