@<TRIPOS>MOLECULE
FSK
   29    29     1     0     0
SMALL
bcc


@<TRIPOS>ATOM
      1 N1         -0.0650   -0.1190    0.0590 n         1 FSK     -0.371000
      2 C6         -0.8810   -0.2390   -1.1230 c3        1 FSK      0.079300
      3 O1          1.8920   -0.1890   -1.1920 o         1 FSK     -0.641500
      4 O2          2.3310    0.4020    3.3260 o         1 FSK     -0.610500
      5 N2          2.1200    0.0950    1.0810 n         1 FSK     -0.582500
      6 C1          1.3460   -0.0730   -0.0740 c         1 FSK      0.806500
      7 C2          1.5640    0.2410    2.3620 c         1 FSK      0.716700
      8 C3          0.0940    0.1880    2.4500 cc        1 FSK     -0.250400
      9 C4         -0.5070    0.3260    3.7920 c3        1 FSK     -0.035900
     10 C5         -0.6580    0.0140    1.3170 cd        1 FSK      0.120600
     11 C11        -2.1300    0.0050    1.3870 cf        1 FSK     -0.135000
     12 C12        -2.8770   -1.0920    1.5660 c2        1 FSK     -0.121400
     13 C14        -2.2630   -2.4590    1.6940 c3        1 FSK      0.186100
     14 C13        -4.3680   -1.0420    1.6610 c3        1 FSK      0.165600
     15 F          -3.1830   -3.4560    1.9540 f         1 FSK     -0.239300
     16 O3         -4.8130    0.2860    1.4330 oh        1 FSK     -0.603800
     17 H1         -1.6470    0.5820   -1.1390 h1        1 FSK      0.062367
     18 H2         -1.4070   -1.2310   -1.1170 h1        1 FSK      0.062367
     19 H3         -0.2370   -0.1680   -2.0400 h1        1 FSK      0.062367
     20 H4          3.1110    0.1270    0.9630 hn        1 FSK      0.354500
     21 H5         -0.7550   -0.6830    4.2100 hc        1 FSK      0.054033
     22 H6         -1.4470    0.9290    3.7460 hc        1 FSK      0.054033
     23 H7          0.2110    0.8260    4.4900 hc        1 FSK      0.054033
     24 H8         -2.5990    1.0040    1.3010 ha        1 FSK      0.177000
     25 H9         -1.5060   -2.4440    2.5320 h1        1 FSK      0.064200
     26 H10        -1.7280   -2.7120    0.7330 h1        1 FSK      0.064200
     27 H11        -4.8130   -1.7320    0.8910 h1        1 FSK      0.049700
     28 H12        -4.6840   -1.3890    2.6840 h1        1 FSK      0.049700
     29 H13        -5.7690    0.2760    1.5610 ho        1 FSK      0.412000
@<TRIPOS>BOND
     1    1    2 1   
     2    1    6 1   
     3    1   10 1   
     4    2   17 1   
     5    2   18 1   
     6    2   19 1   
     7    3    6 2   
     8    4    7 2   
     9    5    6 1   
    10    5    7 1   
    11    5   20 1   
    12    7    8 1   
    13    8    9 1   
    14    8   10 2   
    15    9   21 1   
    16    9   22 1   
    17    9   23 1   
    18   10   11 1   
    19   11   12 2   
    20   11   24 1   
    21   12   13 1   
    22   12   14 1   
    23   13   15 1   
    24   13   25 1   
    25   13   26 1   
    26   14   16 1   
    27   14   27 1   
    28   14   28 1   
    29   16   29 1   
@<TRIPOS>SUBSTRUCTURE
     1 FSK         1 TEMP              0 ****  ****    0 ROOT
