@<TRIPOS>MOLECULE
FSK
   29    29     1     0     0
SMALL
bcc


@<TRIPOS>ATOM
      1 N1         -0.0640   -0.1460    0.0530 n         1 FSK     -0.371000
      2 C6         -0.8820   -0.2710   -1.1250 c3        1 FSK      0.079300
      3 O1          1.8910   -0.2500   -1.2000 o         1 FSK     -0.641500
      4 O2          2.3430    0.3860    3.3120 o         1 FSK     -0.610500
      5 N2          2.1260    0.0560    1.0700 ns        1 FSK     -0.582500
      6 C1          1.3480   -0.1170   -0.0820 c         1 FSK      0.806500
      7 C2          1.5730    0.2220    2.3500 c         1 FSK      0.716700
      8 C3          0.1020    0.1850    2.4400 cc        1 FSK     -0.250400
      9 C4         -0.4950    0.3450    3.7820 c3        1 FSK     -0.035900
     10 C5         -0.6530    0.0070    1.3100 cd        1 FSK      0.120600
     11 C11        -2.1250    0.0150    1.3830 cf        1 FSK     -0.135000
     12 C12        -2.8830   -1.0730    1.5750 c2        1 FSK     -0.121400
     13 C14        -2.2830   -2.4450    1.7170 c3        1 FSK      0.186100
     14 C13        -4.3730   -1.0060    1.6720 c3        1 FSK      0.165600
     15 F          -3.2130   -3.4290    1.9900 f         1 FSK     -0.239300
     16 O3         -4.8050    0.3240    1.4300 oh        1 FSK     -0.603800
     17 H1         -1.6400    0.5580   -1.1500 h1        1 FSK      0.062367
     18 H2         -1.4190   -1.2580   -1.1080 h1        1 FSK      0.062367
     19 H3         -0.2390   -0.2160   -2.0450 h1        1 FSK      0.062367
     20 H4          3.1160    0.0760    0.9510 hn        1 FSK      0.354500
     21 H5         -0.7530   -0.6560    4.2110 hc        1 FSK      0.054033
     22 H6         -1.4290    0.9580    3.7300 hc        1 FSK      0.054033
     23 H7          0.2300    0.8450    4.4740 hc        1 FSK      0.054033
     24 H8         -2.5840    1.0170    1.2870 ha        1 FSK      0.177000
     25 H9         -1.5250   -2.4290    2.5540 h1        1 FSK      0.064200
     26 H10        -1.7530   -2.7140    0.7580 h1        1 FSK      0.064200
     27 H11        -4.8260   -1.7000    0.9100 h1        1 FSK      0.049700
     28 H12        -4.6910   -1.3380    2.6990 h1        1 FSK      0.049700
     29 H13        -5.7610    0.3260    1.5590 ho        1 FSK      0.412000
@<TRIPOS>BOND
     1    1    2 1   
     2    1    6 1   
     3    1   10 1   
     4    2   17 1   
     5    2   18 1   
     6    2   19 1   
     7    3    6 2   
     8    4    7 2   
     9    5    6 1   
    10    5    7 1   
    11    5   20 1   
    12    7    8 1   
    13    8    9 1   
    14    8   10 2   
    15    9   21 1   
    16    9   22 1   
    17    9   23 1   
    18   10   11 1   
    19   11   12 2   
    20   11   24 1   
    21   12   13 1   
    22   12   14 1   
    23   13   15 1   
    24   13   25 1   
    25   13   26 1   
    26   14   16 1   
    27   14   27 1   
    28   14   28 1   
    29   16   29 1   
@<TRIPOS>SUBSTRUCTURE
     1 FSK         1 TEMP              0 ****  ****    0 ROOT
