@<TRIPOS>MOLECULE
FSK
   29    25     1     0     0
SMALL
bcc


@<TRIPOS>ATOM
      1 N1          1.2630    0.5200   -1.2140 n         1 FSK     -0.264000
      2 C6          0.5430    0.8270   -2.4350 c3        1 FSK     -0.077000
      3 O1          3.2980    0.2710   -2.3190 o         1 FSK     -0.363000
      4 O2          3.4290    0.3780    2.3180 o         1 FSK     -0.333000
      5 N2          3.4760    0.3580    0.0170 n         1 FSK     -0.362000
      6 C1          2.7120    0.3680   -1.2420 c2        1 FSK      0.398000
      7 C2          2.7940    0.4270    1.2590 c1        1 FSK      0.355000
      8 C3          1.3190    0.4830    1.2850 c1        1 FSK     -0.225000
      9 C4          0.5890    0.6440    2.6010 c2        1 FSK     -0.158000
     10 C5          0.5680    0.4910    0.0320 c1        1 FSK      0.115000
     11 C11        -0.9660    0.6140    0.0620 c1        1 FSK     -0.141000
     12 C12        -1.7300   -0.4940    0.0310 c1        1 FSK     -0.138000
     13 C14        -1.0640   -1.8900   -0.0370 c2        1 FSK      0.029000
     14 C13        -3.2320   -0.3760    0.0620 c3        1 FSK      0.013000
     15 F          -1.7980   -2.7740    0.6640 f         1 FSK     -0.172000
     16 O3         -3.7790   -1.1860   -0.9220 oh        1 FSK     -0.318000
     17 H1          1.1730    1.1840   -3.1080 h1        1 FSK      0.102667
     18 H2          0.1230    0.0110   -2.7810 h1        1 FSK      0.102667
     19 H3         -0.1460    1.4930   -2.2480 h1        1 FSK      0.102667
     20 H4          4.3950    0.2620   -0.0000 hn        1 FSK      0.269000
     21 H5         -0.1600    1.2670    2.4840 ha        1 FSK      0.092667
     22 H6          0.2480   -0.2260    2.8930 ha        1 FSK      0.092667
     23 H7          1.2020    0.9970    3.2730 ha        1 FSK      0.092667
     24 H8         -1.3890    1.5040    0.1070 ha        1 FSK      0.157000
     25 H9         -0.1570   -1.8410    0.3450 h4        1 FSK      0.106500
     26 H10        -1.0090   -2.1820   -0.9770 h4        1 FSK      0.106500
     27 H11        -3.5630   -0.6560    0.9360 h1        1 FSK      0.101500
     28 H12        -3.4890    0.5530   -0.1010 h1        1 FSK      0.101500
     29 H13        -4.6480   -1.0290   -0.9840 ho        1 FSK      0.213000
@<TRIPOS>BOND
     1    1    2 1   
     2    1    6 1   
     3    1   10 1   
     4    2   17 1   
     5    2   18 1   
     6    2   19 1   
     7    3    6 1   
     8    4    7 1   
     9    5    6 1   
    10    5    7 1   
    11    5   20 1   
    12    8   10 1   
    13    9   21 1   
    14    9   22 1   
    15    9   23 1   
    16   11   12 1   
    17   11   24 1   
    18   12   14 1   
    19   13   15 1   
    20   13   25 1   
    21   13   26 1   
    22   14   16 1   
    23   14   27 1   
    24   14   28 1   
    25   16   29 1   
@<TRIPOS>SUBSTRUCTURE
     1 FSK         1 TEMP              0 ****  ****    0 ROOT
