@<TRIPOS>MOLECULE
FSK
   29    29     1     0     0
SMALL
bcc


@<TRIPOS>ATOM
      1 N1         -1.0460    1.2150    0.1290 n         1 FSK     -0.371000
      2 C6         -0.4900    2.5170    0.3910 c3        1 FSK      0.079300
      3 O1         -3.1640    1.9000    0.7970 o         1 FSK     -0.641500
      4 O2         -2.7600   -2.3880   -0.7560 o         1 FSK     -0.610500
      5 N2         -2.9650   -0.2620    0.0300 n         1 FSK     -0.582500
      6 C1         -2.4320    0.9960    0.3390 c         1 FSK      0.806500
      7 C2         -2.1950   -1.3110   -0.4970 c         1 FSK      0.716700
      8 C3         -0.7610   -1.0370   -0.6990 cc        1 FSK     -0.250400
      9 C4          0.0650   -2.1350   -1.2400 c3        1 FSK     -0.035900
     10 C5         -0.2450    0.1940   -0.3870 cd        1 FSK      0.120600
     11 C11         1.1790    0.4920   -0.6270 cf        1 FSK     -0.135000
     12 C12         2.1580    0.3010    0.2670 c2        1 FSK     -0.121400
     13 C14         1.8830   -0.2330    1.6450 c3        1 FSK      0.186100
     14 C13         3.5920    0.5920   -0.0390 c3        1 FSK      0.165600
     15 F           3.0230   -0.4370    2.3970 f         1 FSK     -0.239300
     16 O3          3.6930    1.1710   -1.3320 oh        1 FSK     -0.603800
     17 H1         -1.3130    3.2410    0.6390 h1        1 FSK      0.062367
     18 H2          0.2200    2.4540    1.2600 h1        1 FSK      0.062367
     19 H3          0.0680    2.8800   -0.5130 h1        1 FSK      0.062367
     20 H4         -3.9420   -0.3910    0.1830 hn        1 FSK      0.354500
     21 H5         -0.5790   -2.8820   -1.7700 hc        1 FSK      0.054033
     22 H6          0.8280   -1.7410   -1.9580 hc        1 FSK      0.054033
     23 H7          0.6000   -2.6610   -0.4100 hc        1 FSK      0.054033
     24 H8          1.4010    0.8810   -1.6390 ha        1 FSK      0.177000
     25 H9          1.2200    0.4960    2.1960 h1        1 FSK      0.064200
     26 H10         1.3350   -1.2170    1.5550 h1        1 FSK      0.064200
     27 H11         3.9990    1.3050    0.7320 h1        1 FSK      0.049700
     28 H12         4.1810   -0.3660    0.0060 h1        1 FSK      0.049700
     29 H13         4.6350    1.2860   -1.5020 ho        1 FSK      0.412000
@<TRIPOS>BOND
     1    1    2 1   
     2    1    6 1   
     3    1   10 1   
     4    2   17 1   
     5    2   18 1   
     6    2   19 1   
     7    3    6 2   
     8    4    7 2   
     9    5    6 1   
    10    5    7 1   
    11    5   20 1   
    12    7    8 1   
    13    8    9 1   
    14    8   10 2   
    15    9   21 1   
    16    9   22 1   
    17    9   23 1   
    18   10   11 1   
    19   11   12 2   
    20   11   24 1   
    21   12   13 1   
    22   12   14 1   
    23   13   15 1   
    24   13   25 1   
    25   13   26 1   
    26   14   16 1   
    27   14   27 1   
    28   14   28 1   
    29   16   29 1   
@<TRIPOS>SUBSTRUCTURE
     1 FSK         1 TEMP              0 ****  ****    0 ROOT
