@<TRIPOS>MOLECULE
FSK
   29    29     1     0     0
SMALL
bcc


@<TRIPOS>ATOM
      1 N1         -0.0640   -0.1260    0.0580 n         1 FSK     -0.371000
      2 C6         -0.8800   -0.2440   -1.1230 c3        1 FSK      0.079300
      3 O1          1.8940   -0.2060   -1.1920 o         1 FSK     -0.641500
      4 O2          2.3350    0.3880    3.3260 o         1 FSK     -0.610500
      5 N2          2.1230    0.0790    1.0810 n         1 FSK     -0.582500
      6 C1          1.3480   -0.0870   -0.0740 c         1 FSK      0.806500
      7 C2          1.5670    0.2290    2.3620 c         1 FSK      0.716700
      8 C3          0.0970    0.1830    2.4490 cc        1 FSK     -0.250400
      9 C4         -0.5030    0.3260    3.7910 c3        1 FSK     -0.035900
     10 C5         -0.6560    0.0120    1.3160 cd        1 FSK      0.120600
     11 C11        -2.1280    0.0090    1.3870 cf        1 FSK     -0.135000
     12 C12        -2.8800   -1.0850    1.5670 c2        1 FSK     -0.121400
     13 C14        -2.2720   -2.4540    1.6960 c3        1 FSK      0.186100
     14 C13        -4.3700   -1.0270    1.6610 c3        1 FSK      0.165600
     15 F          -3.1960   -3.4470    1.9540 f         1 FSK     -0.239300
     16 O3         -4.8090    0.3030    1.4340 oh        1 FSK     -0.603800
     17 H1         -1.6430    0.5800   -1.1400 h1        1 FSK      0.062367
     18 H2         -1.4100   -1.2340   -1.1160 h1        1 FSK      0.062367
     19 H3         -0.2350   -0.1760   -2.0400 h1        1 FSK      0.062367
     20 H4          3.1140    0.1060    0.9630 hn        1 FSK      0.354500
     21 H5         -0.7560   -0.6810    4.2100 hc        1 FSK      0.054033
     22 H6         -1.4410    0.9340    3.7440 hc        1 FSK      0.054033
     23 H7          0.2170    0.8230    4.4890 hc        1 FSK      0.054033
     24 H8         -2.5930    1.0100    1.3000 ha        1 FSK      0.177000
     25 H9         -1.5170   -2.4430    2.5350 h1        1 FSK      0.064200
     26 H10        -1.7360   -2.7100    0.7360 h1        1 FSK      0.064200
     27 H11        -4.8180   -1.7150    0.8910 h1        1 FSK      0.049700
     28 H12        -4.6880   -1.3730    2.6840 h1        1 FSK      0.049700
     29 H13        -5.7660    0.2970    1.5610 ho        1 FSK      0.412000
@<TRIPOS>BOND
     1    1    2 1   
     2    1    6 1   
     3    1   10 1   
     4    2   17 1   
     5    2   18 1   
     6    2   19 1   
     7    3    6 2   
     8    4    7 2   
     9    5    6 1   
    10    5    7 1   
    11    5   20 1   
    12    7    8 1   
    13    8    9 1   
    14    8   10 2   
    15    9   21 1   
    16    9   22 1   
    17    9   23 1   
    18   10   11 1   
    19   11   12 2   
    20   11   24 1   
    21   12   13 1   
    22   12   14 1   
    23   13   15 1   
    24   13   25 1   
    25   13   26 1   
    26   14   16 1   
    27   14   27 1   
    28   14   28 1   
    29   16   29 1   
@<TRIPOS>SUBSTRUCTURE
     1 FSK         1 TEMP              0 ****  ****    0 ROOT
