@<TRIPOS>MOLECULE
FSL
   22    22     1     0     0
SMALL
bcc


@<TRIPOS>ATOM
      1 CAJ        -0.1890   -1.1450    0.7080 c         1 FSL      0.898600
      2 OAN         0.6250   -1.9640    1.2380 o         1 FSL     -0.883300
      3 CAK        -0.2870    0.3050    1.1880 c3        1 FSL     -0.150400
      4 CAL         0.3800    0.6110    2.5210 c3        1 FSL     -0.135400
      5 CAM         0.7490    2.1100    2.6200 c         1 FSL      0.908600
      6 OAP         1.9570    2.4070    2.8700 o         1 FSL     -0.871800
      7 OAO        -0.1360    3.0050    2.4550 o         1 FSL     -0.871800
      8 CAQ        -0.4580    0.1600    3.6750 ca        1 FSL      0.007700
      9 CAR        -0.4720   -1.2040    4.0160 ca        1 FSL     -0.133000
     10 CAS        -1.2110   -1.6550    5.1060 ca        1 FSL     -0.164000
     11 CAT        -1.9540   -0.7570    5.8740 ca        1 FSL     -0.188000
     12 CAU        -1.9600    0.5940    5.5330 ca        1 FSL     -0.164000
     13 CAV        -1.2220    1.0500    4.4410 ca        1 FSL     -0.133000
     14 OAM        -0.9360   -1.4940   -0.2600 o         1 FSL     -0.883300
     15 HAK1       -1.3670    0.5960    1.2290 hc        1 FSL      0.032200
     16 HAK2        0.1960    0.9430    0.4030 hc        1 FSL      0.032200
     17 HA          1.3460    0.0270    2.5530 hc        1 FSL      0.074700
     18 HAR         0.0920   -1.9050    3.3700 ha        1 FSL      0.182000
     19 HB         -1.2290    2.1190    4.1590 ha        1 FSL      0.182000
     20 HC         -1.2150   -2.7240    5.3590 ha        1 FSL      0.090000
     21 HAT        -2.5340   -1.1140    6.7350 ha        1 FSL      0.080000
     22 HAU        -2.5510    1.3050    6.1260 ha        1 FSL      0.090000
@<TRIPOS>BOND
     1    1    2 1   
     2    1    3 1   
     3    1   14 1   
     4    3    4 1   
     5    3   15 1   
     6    3   16 1   
     7    4    5 1   
     8    4    8 1   
     9    4   17 1   
    10    5    6 1   
    11    5    7 1   
    12    8    9 ar  
    13    8   13 ar  
    14    9   10 ar  
    15    9   18 1   
    16   10   11 ar  
    17   10   20 1   
    18   11   12 ar  
    19   11   21 1   
    20   12   13 ar  
    21   12   22 1   
    22   13   19 1   
@<TRIPOS>SUBSTRUCTURE
     1 FSL         1 TEMP              0 ****  ****    0 ROOT
