@<TRIPOS>MOLECULE
FSM
   57    58     1     0     0
SMALL
bcc


@<TRIPOS>ATOM
      1 C2A         3.3090   -0.4160    2.0110 c3        1 FSM      0.064700
      2 C3A         4.0660    0.3730    3.1100 c3        1 FSM      0.105100
      3 C4A         5.0580    1.3570    2.4610 c3        1 FSM      0.086100
      4 C5A         4.2770    2.2870    1.5320 c3        1 FSM      0.061100
      5 C6A         5.1680    3.3020    0.8150 c3        1 FSM      0.136400
      6 C8A         0.3780   -2.8250    2.4460 c3        1 FSM     -0.174100
      7 N2A         2.3300   -1.3120    2.5670 n         1 FSM     -0.544900
      8 O1A        -0.7980    0.4330    2.1740 oh        1 FSM     -0.598800
      9 O3A         4.7300   -0.4990    3.9960 oh        1 FSM     -0.581800
     10 O4A         6.0910    0.6550    1.7970 oh        1 FSM     -0.592800
     11 O5A         3.6580    1.5160    0.4950 os        1 FSM     -0.455600
     12 C1          2.7160    0.5670    0.9590 c3        1 FSM      0.294900
     13 O6A         4.4000    4.0640   -0.0950 oh        1 FSM     -0.605800
     14 O7A         1.6570   -2.1170    0.5290 o         1 FSM     -0.634100
     15 C1B        -1.0150    3.5020    0.1480 c3        1 FSM      0.327900
     16 C2B         0.2260    3.1580    1.0300 c3        1 FSM      0.042700
     17 C3B         0.6450    1.7170    0.6570 c3        1 FSM      0.106100
     18 C4B        -0.5280    0.7320    0.8180 c3        1 FSM      0.083100
     19 C5B        -1.7840    1.2580    0.1030 c3        1 FSM      0.078100
     20 C6B        -3.0380    0.4540    0.4810 c3        1 FSM      0.143400
     21 C8B         2.4450    6.2270    1.4790 c3        1 FSM     -0.174100
     22 N2B         1.2860    4.1190    0.8900 n         1 FSM     -0.566900
     23 O1B        -1.5810    4.7450    0.4110 oh        1 FSM     -0.568800
     24 O3B         1.6880    1.3330    1.5550 os        1 FSM     -0.429600
     25 O5B        -2.0670    2.6000    0.4940 os        1 FSM     -0.446600
     26 O6B        -2.7810   -0.9310    0.4820 oh        1 FSM     -0.595800
     27 O7B         0.3030    5.5590    2.3680 o         1 FSM     -0.627100
     28 HAA         4.0600   -1.0440    1.4390 h1        1 FSM      0.075700
     29 HAB         3.3370    0.9440    3.7530 h1        1 FSM      0.097700
     30 HAD         5.5870    1.9420    3.2650 h1        1 FSM      0.101700
     31 HAF         3.4790    2.8190    2.1220 h1        1 FSM      0.080700
     32 HAA1        6.0100    2.7770    0.2920 h1        1 FSM      0.065200
     33 HAA2        5.5720    4.0420    1.5550 h1        1 FSM      0.065200
     34 HA'1        0.0100   -3.6220    1.7560 hc        1 FSM      0.073033
     35 HA'2        0.7130   -3.2950    3.4010 hc        1 FSM      0.073033
     36 HA'3       -0.4560   -2.1090    2.6580 hc        1 FSM      0.073033
     37 HA'         2.0710   -1.1510    3.5140 hn        1 FSM      0.323500
     38 HAC         5.4770   -0.8850    3.5150 ho        1 FSM      0.419000
     39 HAE         5.7350    0.3470    0.9510 ho        1 FSM      0.414000
     40 H1          2.3860    0.0060    0.0370 h2        1 FSM      0.121700
     41 HAG         4.1330    3.4680   -0.8080 ho        1 FSM      0.416000
     42 HBE        -0.7890    3.4710   -0.9530 h2        1 FSM      0.078700
     43 HBB        -0.1210    3.1620    2.1100 h1        1 FSM      0.084700
     44 HB'         1.0000    1.6870   -0.4100 h1        1 FSM      0.065700
     45 HBA        -0.2260   -0.2670    0.3790 h1        1 FSM      0.106700
     46 HBC        -1.6100    1.2140   -1.0080 h1        1 FSM      0.059700
     47 HB'1       -3.8340    0.6080   -0.2950 h1        1 FSM      0.062700
     48 HB'2       -3.4100    0.7980    1.4820 h1        1 FSM      0.062700
     49 HBA1        2.2200    6.9420    0.6480 hc        1 FSM      0.073367
     50 HBA2        2.5660    6.8040    2.4270 hc        1 FSM      0.073367
     51 HBA3        3.3960    5.6900    1.2440 hc        1 FSM      0.073367
     52 HBG         2.1200    3.8350    0.4270 hn        1 FSM      0.328500
     53 HBF        -1.6230    4.8690    1.3720 ho        1 FSM      0.438000
     54 HBD        -2.2260   -1.1200    1.2520 ho        1 FSM      0.410000
     55 C7A         1.4900   -2.0680    1.7670 c         1 FSM      0.665100
     56 HAH        -1.0590    1.2580    2.6040 ho        1 FSM      0.417000
     57 C7B         1.2760    5.2900    1.6310 c         1 FSM      0.668100
@<TRIPOS>BOND
     1    1    2 1   
     2    1    7 1   
     3    1   12 1   
     4    1   28 1   
     5    2    3 1   
     6    2    9 1   
     7    2   29 1   
     8    3    4 1   
     9    3   10 1   
    10    3   30 1   
    11    4    5 1   
    12    4   11 1   
    13    4   31 1   
    14    5   13 1   
    15    5   32 1   
    16    5   33 1   
    17    6   34 1   
    18    6   35 1   
    19    6   36 1   
    20    6   55 1   
    21    7   37 1   
    22    7   55 1   
    23    8   18 1   
    24    8   56 1   
    25    9   38 1   
    26   10   39 1   
    27   11   12 1   
    28   12   24 1   
    29   12   40 1   
    30   13   41 1   
    31   14   55 2   
    32   15   16 1   
    33   15   23 1   
    34   15   25 1   
    35   15   42 1   
    36   16   17 1   
    37   16   22 1   
    38   16   43 1   
    39   17   18 1   
    40   17   24 1   
    41   17   44 1   
    42   18   19 1   
    43   18   45 1   
    44   19   20 1   
    45   19   25 1   
    46   19   46 1   
    47   20   26 1   
    48   20   47 1   
    49   20   48 1   
    50   21   49 1   
    51   21   50 1   
    52   21   51 1   
    53   21   57 1   
    54   22   52 1   
    55   22   57 1   
    56   23   53 1   
    57   26   54 1   
    58   27   57 2   
@<TRIPOS>SUBSTRUCTURE
     1 FSM         1 TEMP              0 ****  ****    0 ROOT
