@<TRIPOS>MOLECULE
FSM
   57    55     1     0     0
SMALL
bcc


@<TRIPOS>ATOM
      1 C2A         0.3430    0.6350   -2.1900 c3        1 FSM     -0.098000
      2 C3A        -0.4340   -0.2070   -1.1700 c3        1 FSM     -0.068000
      3 C4A         0.7770   -1.3680    4.1760 c3        1 FSM      0.112000
      4 C5A         0.8750   -0.0200    3.4410 c3        1 FSM     -0.068000
      5 C6A         2.1130   -1.9760    4.6080 c3        1 FSM     -0.050000
      6 C8A        -2.7250    0.8760   -3.4640 cx        1 FSM     -0.152000
      7 N2A        -0.1280    0.6270   -3.5540 n3        1 FSM     -0.290000
      8 O1A        -2.0670   -3.2630    0.1060 oh        1 FSM     -0.315000
      9 O3A        -0.4560   -1.5740   -1.5450 oh        1 FSM     -0.368000
     10 O4A        -0.1890   -1.3030    5.1750 oh        1 FSM     -0.304000
     11 O5A         0.2720   -0.3070    2.1480 os        1 FSM     -0.236000
     12 C1         -0.1240   -1.5780    2.0400 c1        1 FSM      0.129000
     13 O6A         1.8970   -3.0740    5.4740 os        1 FSM     -0.279000
     14 O7A        -2.2240    0.8660   -4.8100 os        1 FSM     -0.266000
     15 C1B        -2.5630   -7.5210   -0.0520 c1        1 FSM      0.062000
     16 C2B         0.5840   -4.3930   -0.8000 c3        1 FSM      0.009000
     17 C3B        -0.5420   -5.1300   -0.1490 c2        1 FSM     -0.282000
     18 C4B        -1.7080   -4.5850    0.2360 c2        1 FSM      0.036000
     19 C5B        -2.8250   -5.3790    0.8510 c3        1 FSM      0.045000
     20 C6B        -3.3430   -2.1040   -1.8120 c1        1 FSM     -0.056000
     21 C8B         1.6880   -4.3080    4.7950 c3        1 FSM     -0.087000
     22 N2B         1.3500   -3.5460    0.0730 n         1 FSM     -0.372000
     23 O1B        -3.1730   -8.3080   -0.9480 oh        1 FSM     -0.282000
     24 O3B         0.1450   -2.2330    3.1600 os        1 FSM     -0.256000
     25 O5B        -3.3020   -6.3910   -0.0500 os        1 FSM     -0.249000
     26 O6B        -3.3740   -1.4130   -0.7350 oh        1 FSM     -0.140000
     27 O7B         2.9080   -3.3350    1.7370 o         1 FSM     -0.417000
     28 HAA         1.4050    0.2550   -2.2240 h1        1 FSM      0.100500
     29 HAB        -1.4820    0.1750   -1.0410 h1        1 FSM      0.102500
     30 HAD         0.0980   -0.1880   -0.1790 h1        1 FSM      0.102500
     31 HAF         0.2660    0.7830    3.9200 h1        1 FSM      0.136000
     32 HAA1        2.7110   -2.2650    3.7030 h1        1 FSM      0.133000
     33 HAA2        1.9280    0.2940    3.2490 h1        1 FSM      0.136000
     34 HA'1       -3.5380    1.6020   -3.2870 h1        1 FSM      0.130000
     35 HA'2       -1.1410    2.4520   -3.8490 h2        1 FSM      0.146000
     36 HA'3       -2.8980   -0.1300   -3.0290 h1        1 FSM      0.130000
     37 HA'        -0.1940   -0.3090   -3.9120 hn        1 FSM      0.175000
     38 HAC        -1.1830   -1.6880   -2.1770 ho        1 FSM      0.223000
     39 HAE        -0.1210   -2.1160    5.7020 ho        1 FSM      0.242000
     40 H1          0.3600    1.6980   -1.8190 h1        1 FSM      0.100500
     41 HAG         2.6650   -1.2240    5.2350 h1        1 FSM      0.133000
     42 HBE         1.2750   -5.1480   -1.2750 h1        1 FSM      0.105500
     43 HBB         0.9860   -2.6300    0.2400 hn        1 FSM      0.242000
     44 HB'        -0.3960   -6.2130   -0.0040 ha        1 FSM      0.152000
     45 HBA         0.1690   -3.7390   -1.6250 h1        1 FSM      0.105500
     46 HBC        -2.4770   -5.8460    1.8100 h1        1 FSM      0.118000
     47 HB'1       -3.7930   -3.1200   -1.8170 ha        1 FSM      0.031000
     48 HB'2       -3.7300   -4.7360    1.0250 h1        1 FSM      0.118000
     49 HBA1        2.6720   -5.0800    0.6440 h5        1 FSM      0.122000
     50 HBA2        1.6910   -5.0730    5.6100 h1        1 FSM      0.087333
     51 HBA3        2.5090   -4.4990    4.0600 h1        1 FSM      0.087333
     52 HBG         0.7010   -4.2850    4.2680 h1        1 FSM      0.087333
     53 HBF        -2.6720   -9.1390   -0.9690 ho        1 FSM      0.260000
     54 HBD        -3.7760   -1.8350    0.0580 ho        1 FSM      0.172000
     55 C7A        -1.3390    1.3590   -3.7810 cx        1 FSM      0.027000
     56 HAH        -1.2690   -2.7010    0.0870 ho        1 FSM      0.269000
     57 C7B         2.3570   -4.0330    0.8610 c2        1 FSM      0.264000
@<TRIPOS>BOND
     1    1    2 1   
     2    1    7 1   
     3    1   28 1   
     4    1   40 1   
     5    2    9 1   
     6    2   29 1   
     7    2   30 1   
     8    3    4 1   
     9    3    5 1   
    10    3   10 1   
    11    3   24 1   
    12    4   11 1   
    13    4   31 1   
    14    4   33 1   
    15    5   13 1   
    16    5   32 1   
    17    5   41 1   
    18    6   14 1   
    19    6   34 1   
    20    6   36 1   
    21    6   55 1   
    22    7   37 1   
    23    7   55 1   
    24    8   18 1   
    25    8   56 1   
    26    9   38 1   
    27   10   39 1   
    28   11   12 1   
    29   12   24 1   
    30   13   21 1   
    31   14   55 1   
    32   15   23 1   
    33   15   25 1   
    34   16   17 1   
    35   16   22 1   
    36   16   42 1   
    37   16   45 1   
    38   17   18 1   
    39   17   44 1   
    40   18   19 1   
    41   19   25 1   
    42   19   46 1   
    43   19   48 1   
    44   20   26 1   
    45   20   47 1   
    46   21   50 1   
    47   21   51 1   
    48   21   52 1   
    49   22   43 1   
    50   22   57 1   
    51   23   53 1   
    52   26   54 1   
    53   27   57 1   
    54   35   55 1   
    55   49   57 1   
@<TRIPOS>SUBSTRUCTURE
     1 FSM         1 TEMP              0 ****  ****    0 ROOT
