@<TRIPOS>MOLECULE
FSM
   57    56     1     0     0
SMALL
bcc


@<TRIPOS>ATOM
      1 C2A         0.5550    2.3960   -0.2960 c3        1 FSM     -0.019000
      2 C3A         2.0110    2.3570   -0.0500 c3        1 FSM     -0.015000
      3 C4A         2.3330    2.2800    1.3980 c3        1 FSM     -0.025000
      4 C5A         1.5820    1.1470    2.0990 c3        1 FSM      0.006000
      5 C6A         1.8100    1.2560    3.5870 c3        1 FSM     -0.006000
      6 C7A         0.0970    3.5170   -2.5210 c1        1 FSM      0.311000
      7 C8A        -0.1230    3.4210   -4.0780 c2        1 FSM     -0.239000
      8 N2A         0.3150    2.2980   -1.7330 n3        1 FSM     -0.380000
      9 O1A        -2.3660   -0.1100   -1.1840 oh        1 FSM     -0.321000
     10 O3A         2.6250    3.5780   -0.6150 oh        1 FSM     -0.332000
     11 O4A         1.9880    3.5340    2.0250 oh        1 FSM     -0.334000
     12 O5A         0.1440    1.1840    1.8430 os        1 FSM     -0.282000
     13 C1         -0.1840    1.2600    0.4150 c3        1 FSM      0.146000
     14 O6A         3.1030    0.8560    3.8920 oh        1 FSM     -0.328000
     15 O7A         0.1170    4.6150   -1.9700 o         1 FSM     -0.390000
     16 C1B        -1.4700   -3.3410   -0.1510 c3        1 FSM      0.148000
     17 C2B        -0.4720   -2.2490   -0.4580 c3        1 FSM     -0.031000
     18 C3B        -0.7440   -1.0080    0.3040 c3        1 FSM     -0.009000
     19 C4B        -2.1560   -0.5570    0.1610 c3        1 FSM     -0.020000
     20 C5B        -3.1430   -1.6580    0.4650 c3        1 FSM     -0.041000
     21 C6B        -4.5500   -1.1700    0.1160 c3        1 FSM     -0.005000
     22 C7B         1.6000   -3.5060   -1.0660 c1        1 FSM      0.309000
     23 C8B         2.9340   -4.0690   -0.6940 c2        1 FSM     -0.239000
     24 N2B         0.8670   -2.7290   -0.1220 n3        1 FSM     -0.368000
     25 O1B        -1.2490   -4.4200   -1.0290 oh        1 FSM     -0.294000
     26 O3B         0.1540    0.0600   -0.1850 os        1 FSM     -0.299000
     27 O5B        -2.8660   -2.8860   -0.2870 os        1 FSM     -0.313000
     28 O6B        -5.5130   -2.1290    0.5610 oh        1 FSM     -0.321000
     29 O7B         1.1230   -3.7610   -2.1220 o         1 FSM     -0.376000
     30 HAA         0.2160    3.2190    0.0140 h1        1 FSM      0.146000
     31 HAB         2.3910    1.5640   -0.5070 h1        1 FSM      0.130000
     32 HAD         3.3100    2.1280    1.5010 h1        1 FSM      0.104000
     33 HAF         1.9530    0.2520    1.7720 h1        1 FSM      0.092000
     34 HAA1        1.1870    0.6930    4.0450 h1        1 FSM      0.101000
     35 HAA2        1.6770    2.2020    3.8770 h1        1 FSM      0.101000
     36 HA'1       -0.9440    2.8550   -4.2700 ha        1 FSM      0.110667
     37 HA'2       -0.2560    4.3340   -4.4520 ha        1 FSM      0.110667
     38 HA'3        0.6730    3.0050   -4.5000 ha        1 FSM      0.110667
     39 HA'         0.3720    1.5030   -2.1440 hn        1 FSM      0.253000
     40 HAH        -3.0520    0.4110   -1.2090 ho        1 FSM      0.218000
     41 HAC         3.4400    3.3650   -0.9980 ho        1 FSM      0.230000
     42 HAE         2.7390    3.9500    2.2900 ho        1 FSM      0.218000
     43 H1         -1.1630    1.4020    0.3190 h2        1 FSM      0.130000
     44 HAG         3.2260    0.9030    4.7630 ho        1 FSM      0.216000
     45 HBE        -1.3320   -3.6400    0.7390 h2        1 FSM      0.123000
     46 HBB        -0.5070   -2.0510   -1.4060 h1        1 FSM      0.124000
     47 HB'        -0.5540   -1.1730    1.2650 h1        1 FSM      0.105000
     48 HBA        -2.3110    0.1690    0.7560 h1        1 FSM      0.126000
     49 HBC        -3.1060   -1.8600    1.4300 h1        1 FSM      0.103000
     50 HB'1       -4.6290   -1.0540   -0.8860 h1        1 FSM      0.099000
     51 HB'2       -4.7190   -0.2920    0.5690 h1        1 FSM      0.099000
     52 HBA1        3.5660   -3.3240   -0.5070 ha        1 FSM      0.110667
     53 HBA2        2.8430   -4.6120    0.0850 ha        1 FSM      0.110667
     54 HBA3        3.2820   -4.6170   -1.4390 ha        1 FSM      0.110667
     55 HBG         1.1940   -2.6080    0.7160 hn        1 FSM      0.231000
     56 HBF        -1.7040   -5.1440   -0.7360 ho        1 FSM      0.237000
     57 HBD        -6.3140   -1.7460    0.6080 ho        1 FSM      0.218000
@<TRIPOS>BOND
     1    1    2 1   
     2    1    8 1   
     3    1   13 1   
     4    1   30 1   
     5    2    3 1   
     6    2   10 1   
     7    2   31 1   
     8    3    4 1   
     9    3   11 1   
    10    3   32 1   
    11    4    5 1   
    12    4   12 1   
    13    4   33 1   
    14    5   14 1   
    15    5   34 1   
    16    5   35 1   
    17    6    8 1   
    18    6   15 1   
    19    7   36 1   
    20    7   37 1   
    21    7   38 1   
    22    8   39 1   
    23    9   19 1   
    24    9   40 1   
    25   10   41 1   
    26   11   42 1   
    27   12   13 1   
    28   13   26 1   
    29   13   43 1   
    30   14   44 1   
    31   16   17 1   
    32   16   25 1   
    33   16   27 1   
    34   16   45 1   
    35   17   18 1   
    36   17   24 1   
    37   17   46 1   
    38   18   19 1   
    39   18   26 1   
    40   18   47 1   
    41   19   20 1   
    42   19   48 1   
    43   20   21 1   
    44   20   27 1   
    45   20   49 1   
    46   21   28 1   
    47   21   50 1   
    48   21   51 1   
    49   22   24 1   
    50   22   29 1   
    51   23   52 1   
    52   23   53 1   
    53   23   54 1   
    54   24   55 1   
    55   25   56 1   
    56   28   57 1   
@<TRIPOS>SUBSTRUCTURE
     1 FSM         1 TEMP              0 ****  ****    0 ROOT
