@<TRIPOS>MOLECULE
FSM
   59    53     1     0     0
SMALL
bcc


@<TRIPOS>ATOM
      1 C2A         3.1770   -1.1860   -0.6760 c3        1 FSM     -0.137000
      2 C3A         2.4050   -2.3670   -1.2760 c3        1 FSM     -0.058000
      3 C4A         5.0620    1.9860    2.1050 c2        1 FSM     -0.113000
      4 C5A         5.8300    0.9690    2.5480 c2        1 FSM     -0.084000
      5 C6A         3.8530    1.7930    1.3320 c2        1 FSM      0.232000
      6 N2A         2.6670   -0.6930    0.5890 n8        1 FSM     -0.352000
      7 O1A        -0.9950   -4.2430   -2.0790 oh        1 FSM     -0.402000
      8 O3A         1.0790   -2.0010   -1.6140 oh        1 FSM     -0.363000
      9 O4A         5.3080    3.3300    2.3180 oh        1 FSM     -0.278000
     10 O5A         3.0400    5.7100    0.9250 o         1 FSM     -0.294000
     11 C1          2.8190    6.8620    0.8120 c1        1 FSM      0.300000
     12 O6A         3.1250    2.7810    0.9130 oh        1 FSM     -0.111000
     13 C1B        -2.5520   -5.6740   -3.6430 c2        1 FSM      0.335000
     14 C2B        -0.7400   -4.7040    0.7280 c3        1 FSM     -0.050000
     15 C3B        -1.7390   -3.6540    0.2010 c3        1 FSM     -0.012000
     16 C4B        -2.1220   -3.9300   -1.2670 c3        1 FSM     -0.030000
     17 C5B        -3.0730   -5.1090   -1.3730 c3        1 FSM     -0.137000
     18 C6B        -5.5760   -4.6740   -0.1330 c1        1 FSM     -0.067000
     19 C8B         0.9480   -3.5710    3.9610 c3        1 FSM     -0.244000
     20 N2B        -0.3600   -4.5350    2.0980 ns        1 FSM     -0.368000
     21 O1B        -3.0420   -5.8230   -4.8510 oh        1 FSM     -0.164000
     22 O3B        -1.2320   -2.3390    0.2950 oh        1 FSM     -0.320000
     23 O5B        -3.4550   -5.3250   -2.7620 os        1 FSM     -0.167000
     24 O6B        -6.5370   -4.7940   -0.9690 oh        1 FSM     -0.124000
     25 O7B         1.2800   -3.0100    1.6350 o         1 FSM     -0.450000
     26 HAA         3.4310    0.7370    1.0240 h4        1 FSM      0.309000
     27 HAB         2.2780   -3.1940   -0.5220 h1        1 FSM      0.115500
     28 HAD         2.9490   -2.7480   -2.1800 h1        1 FSM      0.115500
     29 HAF         4.2480   -1.5040   -0.5340 h1        1 FSM      0.103500
     30 HAA1        5.5760   -0.0820    2.3440 ha        1 FSM      0.169000
     31 HAA2        6.7470    1.1410    3.1340 ha        1 FSM      0.169000
     32 HA'1      -10.6370   -5.6750    3.0890 ha        1 FSM      0.199000
     33 HA'2      -10.7270   -3.8100    3.0370 ha        1 FSM      0.199000
     34 HA'3        2.7840   -1.3950    1.3040 hn        1 FSM      0.182500
     35 HA'         3.1590   -0.3310   -1.4110 h1        1 FSM      0.103500
     36 HAC         1.1230   -1.3190   -2.2950 ho        1 FSM      0.216000
     37 HAE         6.1280    3.4320    2.8290 ho        1 FSM      0.271000
     38 H1         -0.2840   -2.3610    0.0850 ho        1 FSM      0.230000
     39 HAG         3.4580    3.6850    1.1620 ho        1 FSM      0.325000
     40 HBE        -1.4610   -5.8350   -3.4900 h5        1 FSM      0.286000
     41 HBB         0.1900   -4.6530    0.0870 h1        1 FSM      0.108000
     42 HB'        -2.6830   -3.6410    0.8170 h1        1 FSM      0.132000
     43 HBA        -2.6140   -2.9990   -1.6760 h1        1 FSM      0.123000
     44 HBC        -2.6280   -6.0580   -0.9880 h1        1 FSM      0.201000
     45 HB'1       -5.7890   -4.4690    0.9350 ha        1 FSM      0.082000
     46 HB'2       -4.1490   -4.8830   -0.8700 h1        1 FSM      0.201000
     47 HBA1        1.8060   -2.8700    4.1070 hc        1 FSM      0.118000
     48 HBA2        0.0620   -3.1800    4.5190 hc        1 FSM      0.118000
     49 HBA3        1.2260   -4.5720    4.3730 hc        1 FSM      0.118000
     50 HBG        -0.9290   -4.9570    2.7930 hn        1 FSM      0.241000
     51 HBF        -4.0130   -5.6500   -4.9070 ho        1 FSM      0.309000
     52 HBD        -7.4510   -4.6970   -0.6110 ho        1 FSM      0.229000
     53 C7A        -9.0990   -4.6940    2.0500 c1        1 FSM      0.265000
     54 C7B         0.6410   -3.6690    2.4900 c2        1 FSM      0.331000
     55 H2A2        1.6780   -0.5190    0.5070 hn        1 FSM      0.182500
     56 H2B2       -1.2010   -5.7250    0.6120 h1        1 FSM      0.108000
     57 HAH        -0.3430   -3.5340   -1.9640 ho        1 FSM      0.257000
     58 C8A       -10.1940   -4.7270    2.7520 c2        1 FSM     -0.381000
     59 O7A        -8.0850   -4.6640    1.4060 o         1 FSM     -0.276000
@<TRIPOS>BOND
     1    1    2 1   
     2    1    6 1   
     3    1   29 1   
     4    1   35 1   
     5    2    8 1   
     6    2   27 1   
     7    2   28 1   
     8    3    4 1   
     9    3    5 1   
    10    3    9 1   
    11    4   30 1   
    12    4   31 1   
    13    5   12 1   
    14    5   26 1   
    15    6   34 1   
    16    6   55 1   
    17    7   16 1   
    18    7   57 1   
    19    8   36 1   
    20    9   37 1   
    21   10   11 1   
    22   12   39 1   
    23   13   21 1   
    24   13   23 1   
    25   13   40 1   
    26   14   15 1   
    27   14   20 1   
    28   14   41 1   
    29   14   56 1   
    30   15   16 1   
    31   15   22 1   
    32   15   42 1   
    33   16   17 1   
    34   16   43 1   
    35   17   23 1   
    36   17   44 1   
    37   17   46 1   
    38   18   24 1   
    39   18   45 1   
    40   19   47 1   
    41   19   48 1   
    42   19   49 1   
    43   19   54 1   
    44   20   50 1   
    45   20   54 1   
    46   21   51 1   
    47   22   38 1   
    48   24   52 1   
    49   25   54 1   
    50   32   58 1   
    51   33   58 1   
    52   53   58 1   
    53   53   59 1   
@<TRIPOS>SUBSTRUCTURE
     1 FSM         1 TEMP              0 ****  ****    0 ROOT
