@<TRIPOS>MOLECULE
FSN
   54    58     1     0     0
SMALL
bcc


@<TRIPOS>ATOM
      1 O21         0.1070    1.1340   -0.8600 o         1 FSN     -0.608500
      2 C20         0.3280   -0.0250   -0.4860 c         1 FSN      0.711500
      3 N19         1.2340   -0.3710    0.5310 n         1 FSN     -0.504400
      4 C23         2.1040    0.5670    1.1990 c3        1 FSN      0.150300
      5 C24         3.3720    0.8830    0.4610 ca        1 FSN     -0.151300
      6 C32         3.3510    1.7840   -0.6080 ca        1 FSN     -0.085000
      7 C31         4.5240    2.1150   -1.2770 ca        1 FSN     -0.170000
      8 C30         5.7390    1.5310   -0.8690 ca        1 FSN      0.145900
      9 F29         6.8870    1.8480   -1.5120 f         1 FSN     -0.130900
     10 C26         5.7640    0.6180    0.2020 ca        1 FSN     -0.170000
     11 C25         4.5790    0.2990    0.8570 ca        1 FSN     -0.085000
     12 C17         1.3150   -1.7750    0.7010 c         1 FSN      0.705500
     13 O18         2.0220   -2.3320    1.5410 o         1 FSN     -0.555500
     14 C16         0.3780   -2.4550   -0.2970 c3        1 FSN     -0.152700
     15 C15        -0.7440   -3.2350    0.4040 c3        1 FSN      0.171500
     16 N11        -2.0370   -2.5610    0.1350 n3        1 FSN     -0.710600
     17 C12        -3.0020   -3.5830   -0.2770 c3        1 FSN      0.149800
     18 C13        -2.2830   -4.9290   -0.4680 c3        1 FSN     -0.100400
     19 C14        -0.8370   -4.7060   -0.0460 c3        1 FSN     -0.092400
     20 C10        -1.8280   -1.4730   -0.8350 c3        1 FSN      0.218800
     21 C7         -2.5030   -0.1920   -0.4090 ca        1 FSN     -0.003300
     22 C8         -2.9440    0.6900   -1.4080 ca        1 FSN     -0.097000
     23 C9         -3.5440    1.8990   -1.0720 ca        1 FSN     -0.081500
     24 C4         -3.7320    2.2250    0.2790 ca        1 FSN     -0.262900
     25 C5         -3.3280    1.3360    1.2840 ca        1 FSN     -0.081500
     26 C6         -2.7120    0.1350    0.9370 ca        1 FSN     -0.097000
     27 C3         -4.3410    3.5280    0.6450 ce        1 FSN      0.524400
     28 N1         -3.8790    4.6470    0.0430 nh        1 FSN     -0.471600
     29 N2         -5.3320    3.5470    1.5670 nh        1 FSN     -0.455700
     30 C22        -0.3040   -1.2960   -1.0620 c3        1 FSN     -0.152700
     31 H231        1.5200    1.5220    1.3450 h1        1 FSN      0.075700
     32 H232        2.3540    0.1290    2.2090 h1        1 FSN      0.075700
     33 H32         2.3930    2.2310   -0.9240 ha        1 FSN      0.148500
     34 H31         4.5160    2.8250   -2.1160 ha        1 FSN      0.156000
     35 H26         6.7180    0.1650    0.5100 ha        1 FSN      0.156000
     36 H25         4.5960   -0.4210    1.6910 ha        1 FSN      0.148500
     37 H16         0.9870   -3.1090   -0.9710 hc        1 FSN      0.113700
     38 H15        -0.5900   -3.2000    1.5210 h1        1 FSN      0.093700
     39 H121       -3.5590   -3.2970   -1.2090 h1        1 FSN      0.056200
     40 H122       -3.7520   -3.6620    0.5590 h1        1 FSN      0.056200
     41 H131       -2.3430   -5.2580   -1.5340 hc        1 FSN      0.061200
     42 H132       -2.7680   -5.7180    0.1580 hc        1 FSN      0.061200
     43 H141       -0.1390   -4.9190   -0.8930 hc        1 FSN      0.064700
     44 H142       -0.5550   -5.3780    0.8010 hc        1 FSN      0.064700
     45 H10        -2.2730   -1.7480   -1.8440 h1        1 FSN      0.064700
     46 H8         -2.7960    0.4380   -2.4710 ha        1 FSN      0.171500
     47 H9         -3.8790    2.5780   -1.8710 ha        1 FSN      0.146500
     48 H5         -3.4640    1.5830    2.3480 ha        1 FSN      0.146500
     49 H6         -2.3890   -0.5540    1.7370 ha        1 FSN      0.171500
     50 HN11       -3.1210    4.5640   -0.6030 hn        1 FSN      0.326200
     51 HN12       -4.2450    5.5560    0.2260 hn        1 FSN      0.326200
     52 HN21       -5.7710    4.3860    1.8780 hn        1 FSN      0.326200
     53 HN22       -5.6420    2.6800    1.9530 hn        1 FSN      0.326200
     54 H22        -0.0800   -1.3240   -2.1580 hc        1 FSN      0.106700
@<TRIPOS>BOND
     1    1    2 2   
     2    2    3 1   
     3    2   30 1   
     4    3    4 1   
     5    3   12 1   
     6    4    5 1   
     7    4   31 1   
     8    4   32 1   
     9    5    6 ar  
    10    5   11 ar  
    11    6    7 ar  
    12    6   33 1   
    13    7    8 ar  
    14    7   34 1   
    15    8    9 1   
    16    8   10 ar  
    17   10   11 ar  
    18   10   35 1   
    19   11   36 1   
    20   12   13 2   
    21   12   14 1   
    22   14   15 1   
    23   14   30 1   
    24   14   37 1   
    25   15   16 1   
    26   15   19 1   
    27   15   38 1   
    28   16   17 1   
    29   16   20 1   
    30   17   18 1   
    31   17   39 1   
    32   17   40 1   
    33   18   19 1   
    34   18   41 1   
    35   18   42 1   
    36   19   43 1   
    37   19   44 1   
    38   20   21 1   
    39   20   30 1   
    40   20   45 1   
    41   21   22 ar  
    42   21   26 ar  
    43   22   23 ar  
    44   22   46 1   
    45   23   24 ar  
    46   23   47 1   
    47   24   25 ar  
    48   24   27 1   
    49   25   26 ar  
    50   25   48 1   
    51   26   49 1   
    52   27   28 2   
    53   27   29 1   
    54   28   50 1   
    55   28   51 1   
    56   29   52 1   
    57   29   53 1   
    58   30   54 1   
@<TRIPOS>SUBSTRUCTURE
     1 FSN         1 TEMP              0 ****  ****    0 ROOT
