@<TRIPOS>MOLECULE
FSN
   54    52     1     0     0
SMALL
bcc


@<TRIPOS>ATOM
      1 O21        -1.7840    1.3190   -0.6690 o         1 FSN     -0.330000
      2 C20        -0.5710    1.3400   -0.6610 c1        1 FSN      0.318000
      3 N19         0.2790    1.1350    0.5000 n2        1 FSN     -0.332000
      4 C23        -0.1680    0.9850    1.8680 c3        1 FSN      0.027000
      5 C24         0.0830    2.2970    2.6400 c2        1 FSN     -0.145000
      6 C32         1.1180    2.3650    3.5590 c2        1 FSN     -0.084000
      7 C31         1.2300    3.4600    4.4000 c1        1 FSN     -0.167000
      8 C30         0.3050    4.4920    4.3230 c1        1 FSN      0.111000
      9 F29         0.3290    5.4640    5.2180 f         1 FSN     -0.096000
     10 C26        -0.7280    4.4260    3.4080 c1        1 FSN     -0.172000
     11 C25        -0.8400    3.3270    2.5640 c1        1 FSN     -0.085000
     12 C17         1.6620    1.4760    0.0600 c2        1 FSN      0.314000
     13 O18         2.6220    1.6800    0.7940 o         1 FSN     -0.285000
     14 C16         1.7210    1.1420   -1.4110 c3        1 FSN     -0.142000
     15 C15         2.1250   -0.1770   -1.6030 c3        1 FSN     -0.026000
     16 N11         1.3530   -0.6900   -2.7200 n3        1 FSN     -0.236000
     17 C12         2.3120   -1.6570   -3.4470 c3        1 FSN     -0.087000
     18 C13         3.8190   -1.3850   -2.7820 c3        1 FSN     -0.179000
     19 C14         3.6850   -0.2490   -2.0460 c3        1 FSN     -0.171000
     20 C10         0.1220   -0.1080   -2.6270 c3        1 FSN      0.013000
     21 C7         -0.8210   -0.9940   -1.8140 c2        1 FSN      0.005000
     22 C8         -0.3030   -1.8470   -0.8340 c2        1 FSN     -0.090000
     23 C9         -1.1660   -2.5730   -0.0150 c1        1 FSN     -0.085000
     24 C4         -2.5450   -2.4480   -0.1720 c1        1 FSN     -0.179000
     25 C5         -3.0630   -1.5970   -1.1500 c1        1 FSN     -0.078000
     26 C6         -2.1980   -0.8700   -1.9710 c1        1 FSN     -0.104000
     27 C3         -3.5010   -3.2060    0.7740 c2        1 FSN      0.347000
     28 N1         -4.0990   -2.5750    1.7310 n2        1 FSN     -0.316000
     29 N2         -3.7210   -4.5760    0.5960 n3        1 FSN     -0.319000
     30 C22         0.3560    1.2020   -1.9080 c3        1 FSN     -0.142000
     31 H231        0.3350    0.2440    2.3020 h1        1 FSN      0.114500
     32 H232       -1.1260    0.7780    1.8780 h1        1 FSN      0.114500
     33 H32         1.7600    1.6500    3.6120 ha        1 FSN      0.157000
     34 H31         1.9620    3.5060    5.0480 ha        1 FSN      0.159000
     35 H26        -1.3840    5.1570    3.3530 ha        1 FSN      0.154000
     36 H25        -1.5660    3.2810    1.9200 ha        1 FSN      0.140000
     37 H16         2.3000    1.7640   -1.8930 hc        1 FSN      0.153000
     38 H15         1.9660   -0.7140   -0.7940 h1        1 FSN      0.133000
     39 H121        2.3250   -1.4610   -4.4160 h1        1 FSN      0.095500
     40 H122        2.0360   -2.5880   -3.2920 h1        1 FSN      0.095500
     41 H131        4.0800   -2.1410   -2.2020 hc        1 FSN      0.100500
     42 H132        4.4910   -1.2520   -3.4960 hc        1 FSN      0.100500
     43 H141        3.9200    0.5330   -2.5870 hc        1 FSN      0.104000
     44 H142        4.2650   -0.2950   -1.2410 hc        1 FSN      0.104000
     45 H10        -0.2490    0.0550   -3.5240 h1        1 FSN      0.104000
     46 H8          0.6650   -1.9350   -0.7240 ha        1 FSN      0.181000
     47 H9         -0.8010   -3.1730    0.6750 ha        1 FSN      0.146000
     48 H5         -4.0340   -1.5090   -1.2610 ha        1 FSN      0.147000
     49 H6         -2.5670   -0.2650   -2.6670 ha        1 FSN      0.162000
     50 HN11       -3.9570   -1.6850    1.8480 DU        1 FSN      0.289000
     51 HN12       -4.6700   -3.0290    2.2950 hn        1 FSN      0.266000
     52 HN21       -3.5870   -4.9520   -0.2130 hn        1 FSN      0.275500
     53 HN22       -4.0180   -5.0860    1.2940 hn        1 FSN      0.275500
     54 H22         0.2390    1.9620   -2.5190 hc        1 FSN      0.146000
@<TRIPOS>BOND
     1    1    2 1   
     2    2   30 1   
     3    3    4 1   
     4    3   12 1   
     5    4    5 1   
     6    4   31 1   
     7    4   32 1   
     8    5    6 1   
     9    5   11 1   
    10    6    7 1   
    11    6   33 1   
    12    7   34 1   
    13    8    9 1   
    14    8   10 1   
    15   10   35 1   
    16   11   36 1   
    17   12   13 1   
    18   12   14 1   
    19   14   15 1   
    20   14   30 1   
    21   14   37 1   
    22   15   16 1   
    23   15   19 1   
    24   15   38 1   
    25   16   17 1   
    26   16   20 1   
    27   17   18 1   
    28   17   39 1   
    29   17   40 1   
    30   18   19 1   
    31   18   41 1   
    32   18   42 1   
    33   19   43 1   
    34   19   44 1   
    35   20   21 1   
    36   20   30 1   
    37   20   45 1   
    38   21   22 1   
    39   21   26 1   
    40   22   23 1   
    41   22   46 1   
    42   23   47 1   
    43   24   25 1   
    44   24   27 1   
    45   25   48 1   
    46   26   49 1   
    47   27   28 1   
    48   27   29 1   
    49   28   51 1   
    50   29   52 1   
    51   29   53 1   
    52   30   54 1   
@<TRIPOS>SUBSTRUCTURE
     1 FSN         1 TEMP              0 ****  ****    0 ROOT
