@<TRIPOS>MOLECULE
FSN
   54    58     1     0     0
SMALL
bcc


@<TRIPOS>ATOM
      1 O21        -0.1680    0.2720   -0.0540 o         1 FSN     -0.608500
      2 C20         1.0540    0.0780   -0.0230 c         1 FSN      0.711500
      3 N19         1.8160    0.0140    1.1560 n         1 FSN     -0.504400
      4 C23         1.2940    0.2730    2.4760 c3        1 FSN      0.150300
      5 C24         1.2190    1.7240    2.8490 ca        1 FSN     -0.151300
      6 C32         0.1720    2.5150    2.3660 ca        1 FSN     -0.085000
      7 C31         0.0680    3.8520    2.7330 ca        1 FSN     -0.170000
      8 C30         1.0320    4.4080    3.5970 ca        1 FSN      0.145900
      9 F29         0.9390    5.7070    3.9610 f         1 FSN     -0.130900
     10 C26         2.0920    3.6180    4.0800 ca        1 FSN     -0.170000
     11 C25         2.1790    2.2830    3.6990 ca        1 FSN     -0.085000
     12 C17         3.1930   -0.1640    0.8760 c         1 FSN      0.705500
     13 O18         4.0670   -0.2700    1.7370 o         1 FSN     -0.555500
     14 C16         3.3930   -0.2240   -0.6380 c3        1 FSN     -0.152700
     15 C15         3.9400   -1.5840   -1.0950 c3        1 FSN      0.171500
     16 N11         2.8940   -2.2830   -1.8800 n3        1 FSN     -0.710600
     17 C12         3.5140   -2.7920   -3.1050 c3        1 FSN      0.149800
     18 C13         4.9500   -2.2560   -3.2220 c3        1 FSN     -0.100400
     19 C14         5.2210   -1.4720   -1.9450 c3        1 FSN     -0.092400
     20 C10         1.7530   -1.3760   -2.0880 c3        1 FSN      0.218800
     21 C7          0.4320   -2.0470   -1.7970 ca        1 FSN     -0.003300
     22 C8         -0.7030   -1.6110   -2.4980 ca        1 FSN     -0.097000
     23 C9         -1.9500   -2.1730   -2.2480 ca        1 FSN     -0.081500
     24 C4         -2.0680   -3.2010   -1.3020 ca        1 FSN     -0.262900
     25 C5         -0.9360   -3.6680   -0.6210 ca        1 FSN     -0.081500
     26 C6          0.3060   -3.0880   -0.8670 ca        1 FSN     -0.097000
     27 C3         -3.4020   -3.7810   -1.0060 ce        1 FSN      0.524400
     28 N1         -4.4360   -2.9390   -0.7840 nh        1 FSN     -0.471600
     29 N2         -3.5320   -5.1270   -0.9660 nh        1 FSN     -0.455700
     30 C22         1.9710   -0.0990   -1.2360 c3        1 FSN     -0.152700
     31 H231        1.9590   -0.2720    3.2100 h1        1 FSN      0.075700
     32 H232        0.2560   -0.1690    2.5200 h1        1 FSN      0.075700
     33 H32        -0.5740    2.0730    1.6850 ha        1 FSN      0.148500
     34 H31        -0.7540    4.4790    2.3600 ha        1 FSN      0.156000
     35 H26         2.8420    4.0620    4.7510 ha        1 FSN      0.156000
     36 H25         3.0120    1.6640    4.0700 ha        1 FSN      0.148500
     37 H16         4.0590    0.6210   -0.9450 hc        1 FSN      0.113700
     38 H15         4.1510   -2.2300   -0.1940 h1        1 FSN      0.093700
     39 H121        2.9210   -2.5380   -4.0240 h1        1 FSN      0.056200
     40 H122        3.5280   -3.9140   -3.0070 h1        1 FSN      0.056200
     41 H131        5.0520   -1.6010   -4.1230 hc        1 FSN      0.061200
     42 H132        5.6710   -3.1030   -3.3350 hc        1 FSN      0.061200
     43 H141        6.0860   -1.9020   -1.3830 hc        1 FSN      0.064700
     44 H142        5.4650   -0.4060   -2.1760 hc        1 FSN      0.064700
     45 H10         1.7060   -1.0370   -3.1710 h1        1 FSN      0.064700
     46 H8         -0.6150   -0.8010   -3.2420 ha        1 FSN      0.171500
     47 H9         -2.8280   -1.8130   -2.8070 ha        1 FSN      0.146500
     48 H5         -1.0170   -4.4710    0.1280 ha        1 FSN      0.146500
     49 H6          1.1900   -3.4570   -0.3180 ha        1 FSN      0.171500
     50 HN11       -4.2610   -1.9540   -0.7940 hn        1 FSN      0.326200
     51 HN12       -5.3620   -3.2510   -0.5910 hn        1 FSN      0.326200
     52 HN21       -4.3890   -5.5860   -0.7510 hn        1 FSN      0.326200
     53 HN22       -2.7320   -5.6910   -1.1650 hn        1 FSN      0.326200
     54 H22         1.8640    0.8090   -1.8830 hc        1 FSN      0.106700
@<TRIPOS>BOND
     1    1    2 2   
     2    2    3 1   
     3    2   30 1   
     4    3    4 1   
     5    3   12 1   
     6    4    5 1   
     7    4   31 1   
     8    4   32 1   
     9    5    6 ar  
    10    5   11 ar  
    11    6    7 ar  
    12    6   33 1   
    13    7    8 ar  
    14    7   34 1   
    15    8    9 1   
    16    8   10 ar  
    17   10   11 ar  
    18   10   35 1   
    19   11   36 1   
    20   12   13 2   
    21   12   14 1   
    22   14   15 1   
    23   14   30 1   
    24   14   37 1   
    25   15   16 1   
    26   15   19 1   
    27   15   38 1   
    28   16   17 1   
    29   16   20 1   
    30   17   18 1   
    31   17   39 1   
    32   17   40 1   
    33   18   19 1   
    34   18   41 1   
    35   18   42 1   
    36   19   43 1   
    37   19   44 1   
    38   20   21 1   
    39   20   30 1   
    40   20   45 1   
    41   21   22 ar  
    42   21   26 ar  
    43   22   23 ar  
    44   22   46 1   
    45   23   24 ar  
    46   23   47 1   
    47   24   25 ar  
    48   24   27 1   
    49   25   26 ar  
    50   25   48 1   
    51   26   49 1   
    52   27   28 2   
    53   27   29 1   
    54   28   50 1   
    55   28   51 1   
    56   29   52 1   
    57   29   53 1   
    58   30   54 1   
@<TRIPOS>SUBSTRUCTURE
     1 FSN         1 TEMP              0 ****  ****    0 ROOT
