@<TRIPOS>MOLECULE
FSP
   63    62     1     0     0
SMALL
bcc


@<TRIPOS>ATOM
      1 C1          2.6610    4.1250    0.1680 c3        1 FSP     -0.188000
      2 C2          4.0550    3.6820    0.5510 c3        1 FSP     -0.217000
      3 C3          4.0460    2.6650    1.5810 c1        1 FSP     -0.082000
      4 C4          5.0920    1.6520    1.6330 c3        1 FSP     -0.242000
      5 C5          4.6920    0.5380    2.6220 c3        1 FSP      0.001000
      6 N6          4.2290    1.0020    3.9150 n         1 FSP     -0.292000
      7 C7          2.8410    1.1680    4.0580 c2        1 FSP      0.411000
      8 O8          1.9400    0.5660    3.4490 o         1 FSP     -0.415000
      9 O9          2.5290    2.0410    5.0680 os        1 FSP     -0.252000
     10 C10         1.1390    2.1970    5.4100 c3        1 FSP      0.033000
     11 C11         0.5720    3.4220    4.7610 c2        1 FSP     -0.215000
     12 C12         0.2760    3.3330    3.3080 c3        1 FSP     -0.127000
     13 C13        -1.0430    2.6770    2.9260 c3        1 FSP     -0.011000
     14 C14        -2.2510    3.5470    3.3770 c2        1 FSP     -0.099000
     15 C15        -3.0440    2.8460    4.1050 c1        1 FSP      0.177000
     16 C16        -3.3830    1.5610    4.6750 c3        1 FSP      0.147000
     17 F17        -3.4390    1.5080    6.0470 f         1 FSP     -0.084000
     18 C18        -2.1750    0.7480    4.1120 c2        1 FSP     -0.196000
     19 C19        -1.1760    1.2630    3.3910 c2        1 FSP     -0.140000
     20 C20        -0.4940    6.7690    6.0850 c3        1 FSP     -0.221000
     21 C21        -0.0510    5.8510    4.9730 c3        1 FSP     -0.145000
     22 C22         0.4470    4.5510    5.4800 c2        1 FSP     -0.070000
     23 O26         4.4770   -2.0830    3.9390 o         1 FSP     -0.109000
     24 N27         6.6960   -2.7140    3.6120 n4        1 FSP     -0.106000
     25 C28         6.8710   -3.5660    2.3840 c2        1 FSP      0.025000
     26 C29         7.7770   -4.7600    2.6360 c3        1 FSP     -0.068000
     27 C30         8.0060   -5.4900    1.4120 c1        1 FSP     -0.208000
     28 N31         8.2130   -6.1030    0.4470 n1        1 FSP      0.095000
     29 N32         6.2600   -3.1850    1.3290 n2        1 FSP     -0.190000
     30 C23         5.8940   -0.3840    2.8290 c2        1 FSP      0.251000
     31 O24         7.0510   -0.1490    2.5160 o         1 FSP     -0.192000
     32 H11         2.4420    1.1930    0.5970 ha        1 FSP      0.007000
     33 H12         2.0560    4.3510    1.0800 hc        1 FSP      0.083000
     34 H13         2.7150    5.0420   -0.4680 hc        1 FSP      0.083000
     35 H21         2.1450    3.3210   -0.4100 hc        1 FSP      0.083000
     36 H22         4.6320    3.4090   -0.3760 hc        1 FSP      0.126500
     37 H31         4.6010    4.5600    1.0240 hc        1 FSP      0.126500
     38 H32A        2.1220    1.3100    1.1850 ha        1 FSP      0.007000
     39 H41        -0.3280    0.6150    3.0660 ha        1 FSP      0.226000
     40 H42         5.3070    1.1750    0.6360 hc        1 FSP      0.142500
     41 H5          6.0520    2.1440    1.9690 hc        1 FSP      0.142500
     42 HN6         3.8650   -0.0810    2.1450 h1        1 FSP      0.173000
     43 H101        1.1760    2.3040    6.5310 h1        1 FSP      0.119000
     44 H102        0.5600    1.2780    5.1310 h1        1 FSP      0.119000
     45 H121        1.0950    2.7250    2.8130 hc        1 FSP      0.134500
     46 H122        0.3050    4.3590    2.8460 hc        1 FSP      0.134500
     47 H14        -1.1250    2.6810    1.7920 hc        1 FSP      0.170000
     48 H15        -2.2930    4.5880    3.0140 ha        1 FSP      0.262000
     49 H18        -4.3500    1.1380    4.2510 h1        1 FSP      0.198000
     50 H19        -2.2500   -0.3130    4.4050 ha        1 FSP      0.214000
     51 H201       -1.3180    6.3080    6.6800 hc        1 FSP      0.092667
     52 H202       -0.8600    7.7350    5.6600 hc        1 FSP      0.092667
     53 H211        0.3560    6.9910    6.7760 hc        1 FSP      0.092667
     54 H212       -0.9030    5.6940    4.2570 hc        1 FSP      0.087500
     55 H221        0.7790    6.3440    4.3900 hc        1 FSP      0.087500
     56 H222        0.7530    4.5570    6.5450 ha        1 FSP      0.152000
     57 H27         6.5320   -3.3430    4.4100 hn        1 FSP      0.272500
     58 H29         8.7710   -4.4180    3.0490 hc        1 FSP      0.161000
     59 H30         7.2990   -5.4500    3.3920 hc        1 FSP      0.161000
     60 H32         6.3570   -3.7230    0.4900 hn        1 FSP      0.255000
     61 C25         5.5480   -1.7190    3.4960 c2        1 FSP      0.215000
     62 H62         4.7560    1.7720    4.2850 hn        1 FSP      0.236000
     63 H272        7.5720   -2.1940    3.7570 hn        1 FSP      0.272500
@<TRIPOS>BOND
     1    1    2 1   
     2    1   33 1   
     3    1   34 1   
     4    1   35 1   
     5    2    3 1   
     6    2   36 1   
     7    2   37 1   
     8    3    4 1   
     9    4    5 1   
    10    4   40 1   
    11    4   41 1   
    12    5    6 1   
    13    5   30 1   
    14    5   42 1   
    15    6    7 1   
    16    6   62 1   
    17    7    8 1   
    18    7    9 1   
    19    9   10 1   
    20   10   11 1   
    21   10   43 1   
    22   10   44 1   
    23   11   12 1   
    24   11   22 1   
    25   12   13 1   
    26   12   45 1   
    27   12   46 1   
    28   13   14 1   
    29   13   19 1   
    30   13   47 1   
    31   14   15 1   
    32   14   48 1   
    33   15   16 1   
    34   16   17 1   
    35   16   18 1   
    36   16   49 1   
    37   18   19 1   
    38   18   50 1   
    39   19   39 1   
    40   20   21 1   
    41   20   51 1   
    42   20   52 1   
    43   20   53 1   
    44   21   22 1   
    45   21   54 1   
    46   21   55 1   
    47   22   56 1   
    48   23   61 1   
    49   24   25 1   
    50   24   57 1   
    51   24   61 1   
    52   24   63 1   
    53   25   26 1   
    54   25   29 1   
    55   26   27 1   
    56   26   58 1   
    57   26   59 1   
    58   27   28 1   
    59   29   60 1   
    60   30   31 1   
    61   30   61 1   
    62   32   38 1   
@<TRIPOS>SUBSTRUCTURE
     1 FSP         1 TEMP              0 ****  ****    0 ROOT
