@<TRIPOS>MOLECULE
FSP
   62    82     1     0     0
SMALL
bcc


@<TRIPOS>ATOM
      1 C1          0.0000    0.0000    0.0000 DU        1 FSP      0.397000
      2 C2          1.5300    0.0000    0.0000 DU        1 FSP     -0.218000
      3 C3          2.0400    0.0000    1.4430 DU        1 FSP     -0.339000
      4 C4          3.5700   -0.0000    1.4430 DU        1 FSP     -0.184000
      5 C5          4.0790   -0.0000    2.8850 DU        1 FSP     -0.234000
      6 N6          3.6920    1.2510    3.5400 ny        1 FSP      0.008000
      7 C7          2.4750    1.3670    4.1070 c2        1 FSP      0.296000
      8 O8          1.6990    0.4320    4.0750 o         1 FSP     -0.341000
      9 O9          2.1190    2.5170    4.7090 os        1 FSP     -0.055000
     10 C10         0.8070    2.6420    5.3200 c3        1 FSP     -0.321000
     11 C11         0.6580    4.0370    5.9290 DU        1 FSP      0.051000
     12 C12         0.9380    5.1570    4.9240 c3        1 FSP     -0.390000
     13 C13        -0.1000    5.1220    3.8320 c3        1 FSP     -0.207000
     14 C14        -1.2590    5.8660    3.9570 c3        1 FSP     -0.413000
     15 C15        -2.2120    5.8350    2.9560 c2        1 FSP     -0.225000
     16 C16        -2.0050    5.0600    1.8280 c2        1 FSP      0.222000
     17 F17        -2.9350    5.0290    0.8490 f         1 FSP     -0.045000
     18 C18        -0.8430    4.3160    1.7040 c3        1 FSP     -0.354000
     19 C19         0.1100    4.3530    2.7040 c2        1 FSP     -0.443000
     20 C20        -0.6490    4.2280    6.7170 DU        1 FSP     -0.186000
     21 C21         0.1790    5.0150    7.7460 DU        1 FSP     -0.331000
     22 C22         1.3970    4.2080    7.2660 cy        1 FSP     -0.386000
     23 O26         5.5320   -2.4040    2.3470 o         1 FSP     -0.321000
     24 N27         7.5640   -1.5450    2.5920 n7        1 FSP      0.003000
     25 C28         8.1620   -2.7710    2.3150 c2        1 FSP     -0.010000
     26 C29         7.5160   -3.9370    2.0320 c3        1 FSP     -0.511000
     27 C30         8.4840   -4.9210    1.8150 c3        1 FSP     -0.139000
     28 N31         9.6650   -4.3800    1.9670 n7        1 FSP     -0.064000
     29 N32         9.4960   -3.0260    2.2820 n7        1 FSP     -0.078000
     30 C23         5.5810   -0.1230    2.8870 c2        1 FSP      0.277000
     31 O24         6.2670    0.8420    3.1290 o         1 FSP     -0.187000
     32 H11         0.9840   -0.2210    0.3950 DU        1 FSP      0.085500
     33 H12        -0.3610    0.0980   -1.0170 ha        1 FSP      0.114000
     34 H13        -0.3610    0.8310    0.5930 ha        1 FSP      0.114000
     35 H21         0.5780   -0.4700    0.2140 DU        1 FSP      0.085500
     36 H22         1.8910    0.8850   -0.5110 ha        1 FSP      0.192000
     37 H31         1.9660   -0.4470    0.4590 DU        1 FSP      0.177000
     38 H32A        1.6780   -0.8850    1.9530 ha        1 FSP      0.181000
     39 H41         2.6170    0.4470    1.7000 DU        1 FSP      0.131000
     40 H42         3.9310   -0.8850    0.9320 ha        1 FSP      0.147000
     41 H5          4.0060    0.4480    1.9010 DU        1 FSP      0.153000
     42 HN6         3.6690    0.2520    3.4850 DU        1 FSP      0.145000
     43 H101        1.7940    2.3070    5.0260 h1        1 FSP      0.195000
     44 H102        0.0420    2.4930    4.5670 h1        1 FSP      0.195000
     45 H121        0.8630    4.1400    5.2910 DU        1 FSP      0.102000
     46 H122        1.9210    5.0170    4.4920 hc        1 FSP      0.135000
     47 H14        -0.3690    5.9700    4.5660 DU        1 FSP      0.456000
     48 H15        -1.7990    6.1810    3.8960 DU        1 FSP      0.291000
     49 H18        -1.5670    5.0000    2.1300 hc        1 FSP      0.266000
     50 H19        -0.2780    4.0460    1.7400 DU        1 FSP      0.232000
     51 H201       -0.2880    4.3010    5.6980 DU        1 FSP      0.321000
     52 H202       -1.3720    4.8440    6.1960 ha        1 FSP      0.132000
     53 H211       -0.4230    4.1700    7.4360 DU        1 FSP      0.235000
     54 H212        0.2530    6.0710    7.5140 ha        1 FSP      0.118000
     55 H221        0.6620    4.4960    8.0080 DU        1 FSP      0.253000
     56 H222        2.2960    4.8070    7.1800 hc        1 FSP      0.111000
     57 H27         6.9160   -1.0280    3.1520 DU        1 FSP      0.219000
     58 H29         7.7170   -2.9080    2.3030 hc        1 FSP      0.229000
     59 H30         7.4850   -4.5080    1.8950 DU        1 FSP      0.221000
     60 H32         9.1240   -3.9290    2.0620 DU        1 FSP      0.304000
     61 C25         6.2210   -1.4350    2.5900 c3        1 FSP      0.116000
     62 H62         3.5030    1.9170    2.8170 hn        1 FSP      0.069000
@<TRIPOS>BOND
     1    1    2 1   
     2    1   32 1   
     3    1   33 1   
     4    1   34 1   
     5    1   35 1   
     6    2    3 1   
     7    2   32 1   
     8    2   35 1   
     9    2   36 1   
    10    2   37 1   
    11    3    4 1   
    12    3   37 1   
    13    3   38 1   
    14    3   39 1   
    15    4    5 1   
    16    4   39 1   
    17    4   40 1   
    18    4   41 1   
    19    5    6 1   
    20    5   30 1   
    21    5   41 1   
    22    5   42 1   
    23    6    7 1   
    24    6   42 1   
    25    6   62 1   
    26    7    8 1   
    27    7    9 1   
    28    9   10 1   
    29   10   11 1   
    30   10   43 1   
    31   10   44 1   
    32   11   12 1   
    33   11   20 1   
    34   11   22 1   
    35   11   45 1   
    36   11   51 1   
    37   12   13 1   
    38   12   45 1   
    39   12   46 1   
    40   13   14 1   
    41   13   19 1   
    42   13   47 1   
    43   14   15 1   
    44   14   47 1   
    45   14   48 1   
    46   15   16 1   
    47   15   48 1   
    48   16   17 1   
    49   16   18 1   
    50   18   19 1   
    51   18   49 1   
    52   18   50 1   
    53   19   50 1   
    54   20   21 1   
    55   20   51 1   
    56   20   52 1   
    57   20   53 1   
    58   21   22 1   
    59   21   53 1   
    60   21   54 1   
    61   21   55 1   
    62   22   55 1   
    63   22   56 1   
    64   23   61 1   
    65   24   25 1   
    66   24   57 1   
    67   24   61 1   
    68   25   26 1   
    69   25   29 1   
    70   26   27 1   
    71   26   58 1   
    72   26   59 1   
    73   27   28 1   
    74   27   59 1   
    75   27   60 1   
    76   28   29 1   
    77   28   60 1   
    78   29   60 1   
    79   30   31 1   
    80   30   61 1   
    81   32   35 1   
    82   57   61 1   
@<TRIPOS>SUBSTRUCTURE
     1 FSP         1 TEMP              0 ****  ****    0 ROOT
