@<TRIPOS>MOLECULE
FSP
   61    63     1     0     0
SMALL
bcc


@<TRIPOS>ATOM
      1 C1          0.8740   -4.5480   -0.1570 c3        1 FSP     -0.093100
      2 C2         -0.2410   -3.8650    0.5920 c3        1 FSP     -0.079400
      3 C3         -0.4230   -2.4360    0.1240 c3        1 FSP     -0.080400
      4 C4         -1.5520   -1.7620    0.8720 c3        1 FSP     -0.106400
      5 C5         -1.7740   -0.3190    0.3820 c3        1 FSP      0.021700
      6 N6         -0.6870    0.5930    0.6610 n         1 FSP     -0.525900
      7 C7          0.2510    0.8480   -0.3270 c         1 FSP      0.732100
      8 O8          0.1270    0.7110   -1.5540 o         1 FSP     -0.575000
      9 O9          1.4240    1.3640    0.1810 os        1 FSP     -0.444900
     10 C10         2.3920    1.7550   -0.8160 c3        1 FSP      0.162400
     11 C11         3.5870    2.3270   -0.0810 cy        1 FSP     -0.072000
     12 C12         4.2070    1.3550    0.9000 c3        1 FSP     -0.020100
     13 C13         4.7660    0.1250    0.2720 ca        1 FSP     -0.091300
     14 C14         6.1280    0.0430   -0.0400 ca        1 FSP     -0.104000
     15 C15         6.6630   -1.1120   -0.6000 ca        1 FSP     -0.164000
     16 C16         5.8230   -2.2120   -0.8530 ca        1 FSP      0.122900
     17 F17         6.3350   -3.3420   -1.3970 f         1 FSP     -0.140900
     18 C18         4.4530   -2.1420   -0.5400 ca        1 FSP     -0.164000
     19 C19         3.9400   -0.9770    0.0180 ca        1 FSP     -0.104000
     20 C20         4.5910    2.9940   -1.0660 cy        1 FSP     -0.082900
     21 C21         4.3140    4.3700   -0.4310 cy        1 FSP     -0.096400
     22 C22         3.3160    3.7250    0.5500 cy        1 FSP     -0.082900
     23 O26        -4.4150   -1.1830   -0.4290 o         1 FSP     -0.551100
     24 N27        -5.2960    0.8550    0.2430 n         1 FSP     -0.434100
     25 C28        -6.5230    0.7300   -0.4120 cc        1 FSP      0.006300
     26 C29        -6.9370   -0.1900   -1.4010 cd        1 FSP     -0.285300
     27 C30        -8.3010    0.1830   -1.6910 cd        1 FSP      0.309200
     28 N31        -8.6770    1.2460   -0.9380 nc        1 FSP     -0.510800
     29 N32        -7.6530    1.5520   -0.1400 na        1 FSP     -0.042600
     30 C23        -3.0640    0.1780    1.0340 c         1 FSP      0.504100
     31 O24        -3.1310    0.7380    2.1260 o         1 FSP     -0.488100
     32 H11         1.8400   -4.0050   -0.0120 hc        1 FSP      0.035367
     33 H12         1.0000   -5.5960    0.2080 hc        1 FSP      0.035367
     34 H13         0.6530   -4.5790   -1.2520 hc        1 FSP      0.035367
     35 H21        -1.1980   -4.4320    0.4420 hc        1 FSP      0.042200
     36 H22        -0.0190   -3.8740    1.6910 hc        1 FSP      0.042200
     37 H31         0.5340   -1.8690    0.2760 hc        1 FSP      0.048200
     38 H32A       -0.6410   -2.4240   -0.9770 hc        1 FSP      0.048200
     39 H41        -2.5080   -2.3280    0.6970 hc        1 FSP      0.066700
     40 H42        -1.3440   -1.7670    1.9730 hc        1 FSP      0.066700
     41 H5         -1.9320   -0.3450   -0.7420 h1        1 FSP      0.124700
     42 HN6        -0.3840    0.6540    1.6070 hn        1 FSP      0.327500
     43 H101        2.6780    0.8470   -1.4100 h1        1 FSP      0.063200
     44 H102        1.9230    2.5160   -1.4920 h1        1 FSP      0.063200
     45 H121        5.0230    1.8860    1.4620 hc        1 FSP      0.058200
     46 H122        3.4170    1.0650    1.6470 hc        1 FSP      0.058200
     47 H14         6.7880    0.9010    0.1630 ha        1 FSP      0.138000
     48 H15         7.7330   -1.1760   -0.8460 ha        1 FSP      0.148500
     49 H18         3.8030   -3.0060   -0.7400 ha        1 FSP      0.148500
     50 H19         2.8660   -0.9160    0.2630 ha        1 FSP      0.138000
     51 H201        5.6340    2.6310   -0.9390 hc        1 FSP      0.056700
     52 H202        4.2950    2.9150   -2.1340 hc        1 FSP      0.056700
     53 H211        5.1990    4.8290    0.0580 hc        1 FSP      0.051700
     54 H212        3.8540    5.1040   -1.1270 hc        1 FSP      0.051700
     55 H221        2.2670    4.0670    0.4290 hc        1 FSP      0.056700
     56 H222        3.6130    3.8000    1.6170 hc        1 FSP      0.056700
     57 H27        -5.1760    1.6140    0.8790 hn        1 FSP      0.335500
     58 H29        -6.3560   -1.0000   -1.8290 ha        1 FSP      0.191000
     59 H30        -8.9770   -0.2900   -2.4050 h4        1 FSP      0.046100
     60 H32        -7.6520    2.4100    0.3600 hn        1 FSP      0.315700
     61 C25        -4.3220   -0.1290    0.2200 c         1 FSP      0.576100
@<TRIPOS>BOND
     1    1    2 1   
     2    1   32 1   
     3    1   33 1   
     4    1   34 1   
     5    2    3 1   
     6    2   35 1   
     7    2   36 1   
     8    3    4 1   
     9    3   37 1   
    10    3   38 1   
    11    4    5 1   
    12    4   39 1   
    13    4   40 1   
    14    5    6 1   
    15    5   30 1   
    16    5   41 1   
    17    6    7 1   
    18    6   42 1   
    19    7    8 2   
    20    7    9 1   
    21    9   10 1   
    22   10   11 1   
    23   10   43 1   
    24   10   44 1   
    25   11   12 1   
    26   11   20 1   
    27   11   22 1   
    28   12   13 1   
    29   12   45 1   
    30   12   46 1   
    31   13   14 ar  
    32   13   19 ar  
    33   14   15 ar  
    34   14   47 1   
    35   15   16 ar  
    36   15   48 1   
    37   16   17 1   
    38   16   18 ar  
    39   18   19 ar  
    40   18   49 1   
    41   19   50 1   
    42   20   21 1   
    43   20   51 1   
    44   20   52 1   
    45   21   22 1   
    46   21   53 1   
    47   21   54 1   
    48   22   55 1   
    49   22   56 1   
    50   23   61 2   
    51   24   25 1   
    52   24   57 1   
    53   24   61 1   
    54   25   26 2   
    55   25   29 1   
    56   26   27 1   
    57   26   58 1   
    58   27   28 2   
    59   27   59 1   
    60   28   29 1   
    61   29   60 1   
    62   30   31 2   
    63   30   61 1   
@<TRIPOS>SUBSTRUCTURE
     1 FSP         1 TEMP              0 ****  ****    0 ROOT
