@<TRIPOS>MOLECULE
FSP
   61    57     1     0     0
SMALL
bcc


@<TRIPOS>ATOM
      1 C1          2.4840   -3.5420   -1.7460 c3        1 FSP     -0.212000
      2 C2          2.2480   -2.3450   -0.8510 c3        1 FSP     -0.157000
      3 C3          1.6780   -1.2070   -1.6700 c3        1 FSP     -0.163000
      4 C4          0.7450   -0.3840   -0.8090 c3        1 FSP     -0.162000
      5 C5         -0.3750    0.1650   -1.6630 c3        1 FSP      0.009000
      6 N6         -0.9610    1.2840   -1.0130 n         1 FSP     -0.332000
      7 C7         -1.6540    1.1100    0.2130 c2        1 FSP      0.390000
      8 O8         -2.7680    1.5730    0.3510 o         1 FSP     -0.393000
      9 O9         -1.0340    0.4410    1.2820 os        1 FSP     -0.266000
     10 C10        -1.5990    0.7290    2.5400 c3        1 FSP      0.003000
     11 C11        -0.8510    1.8070    3.1740 cy        1 FSP     -0.093000
     12 C12        -0.1310    1.3860    4.4360 c3        1 FSP     -0.108000
     13 C13         1.3100    1.0610    4.1100 c2        1 FSP     -0.086000
     14 C14         1.6050    0.1650    3.0940 c2        1 FSP     -0.102000
     15 C15         2.9200   -0.1990    2.8510 c1        1 FSP     -0.164000
     16 C16         3.9410    0.3330    3.6230 c1        1 FSP      0.088000
     17 F17         5.2050   -0.0630    3.4260 f         1 FSP     -0.106000
     18 C18         3.6460    1.2290    4.6380 c1        1 FSP     -0.162000
     19 C19         2.3310    1.5930    4.8820 c1        1 FSP     -0.108000
     20 C20        -1.6690    3.0490    3.3610 cy        1 FSP     -0.164000
     21 C21        -0.7820    3.7770    2.4040 cy        1 FSP     -0.173000
     22 C22         0.0360    2.5340    2.2180 cy        1 FSP     -0.164000
     23 C25        -1.5820   -1.5610   -3.2200 c1        1 FSP      0.262000
     24 O26        -1.0940   -2.6550   -3.4260 o         1 FSP     -0.353000
     25 N27        -2.3260   -0.9140   -4.2400 n2        1 FSP     -0.281000
     26 C28        -2.5010   -1.5430   -5.4990 c2        1 FSP      0.038000
     27 C29        -3.6880   -1.9500   -6.0350 c1        1 FSP     -0.258000
     28 C30        -3.4260   -2.5530   -7.2310 c1        1 FSP     -0.158000
     29 N31        -2.0920   -2.5200   -7.4310 n2        1 FSP     -0.075000
     30 N32        -1.5170   -1.8920   -6.3550 n2        1 FSP     -0.155000
     31 C23        -1.4240   -0.9050   -1.8670 c2        1 FSP      0.186000
     32 O24        -2.1490   -1.2290   -0.9470 o         1 FSP     -0.238000
     33 H11         3.2130   -3.3450   -2.3700 hc        1 FSP      0.075667
     34 H12         2.7240   -4.3180   -1.1980 hc        1 FSP      0.075667
     35 H13         1.6670   -3.7390   -2.2500 hc        1 FSP      0.075667
     36 H21         1.6160   -2.5860   -0.1440 hc        1 FSP      0.081000
     37 H22         3.0960   -2.0660   -0.4490 hc        1 FSP      0.081000
     38 H31         2.4070   -0.6410   -1.9930 hc        1 FSP      0.085000
     39 H32A        1.1840   -1.5690   -2.4320 hc        1 FSP      0.085000
     40 H41         0.3710   -0.9490   -0.1030 hc        1 FSP      0.112000
     41 H42         1.2410    0.3560   -0.4060 hc        1 FSP      0.112000
     42 H5         -0.0190    0.4410   -2.5300 h1        1 FSP      0.148000
     43 HN6        -0.9300    2.1060   -1.4050 hn        1 FSP      0.245000
     44 H101       -2.5330    1.0030    2.4240 h1        1 FSP      0.116500
     45 H102       -1.5620   -0.0710    3.1050 h1        1 FSP      0.116500
     46 H121       -0.1610    2.1150    5.0870 hc        1 FSP      0.095500
     47 H122       -0.5670    0.5940    4.8110 hc        1 FSP      0.095500
     48 H14         0.8860   -0.2100    2.5510 ha        1 FSP      0.138000
     49 H15         3.1270   -0.8300    2.1360 ha        1 FSP      0.149000
     50 H18         4.3650    1.6040    5.1820 ha        1 FSP      0.150000
     51 H19         2.1240    2.2240    5.5970 ha        1 FSP      0.139000
     52 H201       -2.5840    2.9530    3.0300 hc        1 FSP      0.097500
     53 H202       -1.6160    3.4030    4.2710 hc        1 FSP      0.097500
     54 H211       -1.2470    4.0490    1.5880 hc        1 FSP      0.088500
     55 H212       -0.2790    4.5000    2.8300 hc        1 FSP      0.088500
     56 H221        0.9510    2.6310    2.5510 hc        1 FSP      0.097500
     57 H222       -0.0160    2.1800    1.3090 hc        1 FSP      0.097500
     58 H27        -2.7030   -0.0980   -4.0810 hn        1 FSP      0.267000
     59 H29        -4.5700   -1.8300   -5.6340 DU        1 FSP      0.216333
     60 H30        -4.0870   -2.9410   -7.8350 DU        1 FSP      0.216333
     61 H32        -0.6250   -1.7380   -6.2380 DU        1 FSP      0.216333
@<TRIPOS>BOND
     1    1    2 1   
     2    1   33 1   
     3    1   34 1   
     4    1   35 1   
     5    2    3 1   
     6    2   36 1   
     7    2   37 1   
     8    3    4 1   
     9    3   38 1   
    10    3   39 1   
    11    4    5 1   
    12    4   40 1   
    13    4   41 1   
    14    5    6 1   
    15    5   31 1   
    16    5   42 1   
    17    6    7 1   
    18    6   43 1   
    19    7    8 1   
    20    7    9 1   
    21    9   10 1   
    22   10   11 1   
    23   10   44 1   
    24   10   45 1   
    25   11   12 1   
    26   11   20 1   
    27   11   22 1   
    28   12   13 1   
    29   12   46 1   
    30   12   47 1   
    31   13   14 1   
    32   13   19 1   
    33   14   15 1   
    34   14   48 1   
    35   15   49 1   
    36   16   17 1   
    37   16   18 1   
    38   18   50 1   
    39   19   51 1   
    40   20   21 1   
    41   20   52 1   
    42   20   53 1   
    43   21   22 1   
    44   21   54 1   
    45   21   55 1   
    46   22   56 1   
    47   22   57 1   
    48   23   24 1   
    49   23   31 1   
    50   25   26 1   
    51   25   58 1   
    52   26   27 1   
    53   26   30 1   
    54   27   28 1   
    55   28   29 1   
    56   29   30 1   
    57   31   32 1   
@<TRIPOS>SUBSTRUCTURE
     1 FSP         1 TEMP              0 ****  ****    0 ROOT
