@<TRIPOS>MOLECULE
FSR
   39    35     1     0     0
SMALL
bcc


@<TRIPOS>ATOM
      1 O1B         2.4250    4.3100   -1.4560 o         1 FSR     -0.225500
      2 C1          2.4000    3.3020   -2.0870 c1        1 FSR      0.442000
      3 O1A         2.3870    2.3440   -2.7980 o         1 FSR     -0.225500
      4 C2          2.0650    1.7820    0.0280 c1        1 FSR      0.156000
      5 C3          0.9880   -1.7670    2.5530 c3        1 FSR      0.005000
      6 F1         -0.1230   -2.1510    1.8230 f         1 FSR     -0.173000
      7 C4          1.9590   -2.9050    2.7340 c2        1 FSR     -0.026000
      8 O4          1.9600   -3.8980    1.7720 oh        1 FSR     -0.287000
      9 O6          2.2830    0.4640    0.2120 os        1 FSR     -0.245000
     10 C6          2.8880   -0.2120   -0.8750 cx        1 FSR     -0.052000
     11 C7          3.0580   -1.6990   -0.6250 cx        1 FSR     -0.047000
     12 C8          4.2760   -0.7900   -0.6660 cx        1 FSR     -0.047000
     13 C9          7.6130   -3.2170   -0.4650 c2        1 FSR      0.208000
     14 O9          6.6780   -2.4570   -0.7330 o         1 FSR     -0.379000
     15 O8          4.8980   -0.4970    0.5410 oh        1 FSR     -0.289500
     16 O7          2.7990   -2.6190   -1.6310 oh        1 FSR     -0.289500
     17 C5          2.8460   -2.9720    3.7350 c2        1 FSR     -0.248000
     18 N5          4.4090   -4.4590   -0.0330 n         1 FSR     -0.412000
     19 C10         5.2200   -5.1230    0.8460 c2        1 FSR      0.309000
     20 O10         6.4670   -4.9860    0.7740 o         1 FSR     -0.440000
     21 C11         4.5880   -6.0410    1.8600 c3        1 FSR     -0.243000
     22 H3          1.5060   -0.9270    2.0010 h1        1 FSR      0.116000
     23 H4          0.6500   -1.3930    3.5580 h1        1 FSR      0.116000
     24 H5          1.0980   -3.8850    1.3270 ho        1 FSR      0.233000
     25 H6          2.9100   -2.1840    4.4940 ha        1 FSR      0.133000
     26 H7          2.6060    0.2090   -1.8600 h1        1 FSR      0.162000
     27 H8          2.7160   -2.1310    0.3410 h1        1 FSR      0.155000
     28 H9          4.9700   -0.8390   -1.5310 h1        1 FSR      0.155000
     29 H10         7.9090   -4.0430   -1.1440 h4        1 FSR      0.083000
     30 H11         8.1970   -3.1220    0.4720 h4        1 FSR      0.083000
     31 H12         5.6910   -1.0570    0.5800 ho        1 FSR      0.224000
     32 H13         3.1640   -2.2750   -2.4580 ho        1 FSR      0.224000
     33 H14         3.5570   -3.8010    3.8270 ha        1 FSR      0.133000
     34 H15         3.4270   -4.4410    0.1010 hn        1 FSR      0.234500
     35 H16         3.6910   -5.5650    2.3300 hc        1 FSR      0.108333
     36 H17         5.3390   -6.2800    2.6510 hc        1 FSR      0.108333
     37 H18         4.2760   -6.9890    1.3590 hc        1 FSR      0.108333
     38 F2          1.5340    2.1840    1.1560 f         1 FSR     -0.101000
     39 H52         4.7960   -3.7860   -0.6520 hn        1 FSR      0.234500
@<TRIPOS>BOND
     1    1    2 1   
     2    2    3 1   
     3    4    9 1   
     4    4   38 1   
     5    5    6 1   
     6    5    7 1   
     7    5   22 1   
     8    5   23 1   
     9    7    8 1   
    10    7   17 1   
    11    8   24 1   
    12    9   10 1   
    13   10   11 1   
    14   10   12 1   
    15   10   26 1   
    16   11   12 1   
    17   11   16 1   
    18   11   27 1   
    19   12   15 1   
    20   12   28 1   
    21   13   14 1   
    22   13   29 1   
    23   13   30 1   
    24   15   31 1   
    25   16   32 1   
    26   17   25 1   
    27   17   33 1   
    28   18   19 1   
    29   18   34 1   
    30   18   39 1   
    31   19   20 1   
    32   19   21 1   
    33   21   35 1   
    34   21   36 1   
    35   21   37 1   
@<TRIPOS>SUBSTRUCTURE
     1 FSR         1 TEMP              0 ****  ****    0 ROOT
