@<TRIPOS>MOLECULE
FSR
   38    38     1     0     0
SMALL
bcc


@<TRIPOS>ATOM
      1 O1B        -1.0650    1.5040   -2.2080 o         1 FSR     -0.793300
      2 C1         -0.8230    2.4070   -1.3630 c         1 FSR      0.922600
      3 O1A        -0.6890    3.6280   -1.5890 o         1 FSR     -0.793300
      4 C2         -0.6690    1.9390    0.1440 c3        1 FSR      0.230100
      5 C3         -1.9230    1.1870    0.7060 c3        1 FSR      0.100600
      6 F1         -3.0840    1.9250    0.5600 f         1 FSR     -0.236300
      7 C4         -2.0610   -0.1760   -0.0090 c3        1 FSR      0.085100
      8 O4         -3.1640   -0.8940    0.5260 oh        1 FSR     -0.607800
      9 O6          0.4680    1.0820    0.3530 os        1 FSR     -0.468600
     10 C6          0.4100   -0.1640   -0.3250 c3        1 FSR      0.099100
     11 C7          1.7610   -0.8730   -0.1010 c3        1 FSR      0.110100
     12 C8          2.9070    0.1120    0.1940 c3        1 FSR      0.090100
     13 C9          4.2660   -0.5830    0.0380 c3        1 FSR      0.137400
     14 O9          5.3330    0.2990    0.3210 oh        1 FSR     -0.615800
     15 O8          2.8660    0.5520    1.5420 oh        1 FSR     -0.625800
     16 O7          2.0710   -1.6570   -1.2440 oh        1 FSR     -0.604800
     17 C5         -0.7750   -1.0050    0.2390 c3        1 FSR      0.091700
     18 N5         -0.8430   -2.3090   -0.3680 n         1 FSR     -0.544900
     19 C10        -0.5370   -3.4720    0.3000 c         1 FSR      0.670100
     20 O10        -0.1280   -3.4750    1.4810 o         1 FSR     -0.632100
     21 C11        -0.7020   -4.7650   -0.4680 c3        1 FSR     -0.173100
     22 H3         -1.7660    1.0090    1.8100 h1        1 FSR      0.055700
     23 H4         -2.2120    0.0040   -1.1140 h1        1 FSR      0.108700
     24 H5         -3.9300   -0.3150    0.4260 ho        1 FSR      0.406000
     25 H6          0.2480    0.0200   -1.4290 h1        1 FSR      0.105700
     26 H7          1.6790   -1.6190    0.7410 h1        1 FSR      0.102700
     27 H8          2.8390    0.9950   -0.5000 h1        1 FSR      0.063700
     28 H9          4.3160   -1.4730    0.7190 h1        1 FSR      0.048200
     29 H10         4.4150   -0.9060   -1.0250 h1        1 FSR      0.048200
     30 H11         5.1180    0.7430    1.1520 ho        1 FSR      0.415000
     31 H12         2.1020    1.1400    1.6310 ho        1 FSR      0.441000
     32 H13         2.1100   -1.0560   -1.9990 ho        1 FSR      0.402000
     33 H14        -0.6350   -1.1360    1.3530 h1        1 FSR      0.095700
     34 H15        -1.1560   -2.3500   -1.3070 hn        1 FSR      0.313500
     35 H16        -0.0090   -4.7850   -1.3430 hc        1 FSR      0.058367
     36 H17        -0.4580   -5.6170    0.2100 hc        1 FSR      0.058367
     37 H18        -1.7520   -4.8760   -0.8300 hc        1 FSR      0.058367
     38 F2         -0.3060    2.9610    0.9870 f         1 FSR     -0.221300
@<TRIPOS>BOND
     1    1    2 1   
     2    2    3 1   
     3    2    4 1   
     4    4    5 1   
     5    4    9 1   
     6    4   38 1   
     7    5    6 1   
     8    5    7 1   
     9    5   22 1   
    10    7    8 1   
    11    7   17 1   
    12    7   23 1   
    13    8   24 1   
    14    9   10 1   
    15   10   11 1   
    16   10   17 1   
    17   10   25 1   
    18   11   12 1   
    19   11   16 1   
    20   11   26 1   
    21   12   13 1   
    22   12   15 1   
    23   12   27 1   
    24   13   14 1   
    25   13   28 1   
    26   13   29 1   
    27   14   30 1   
    28   15   31 1   
    29   16   32 1   
    30   17   18 1   
    31   17   33 1   
    32   18   19 1   
    33   18   34 1   
    34   19   20 2   
    35   19   21 1   
    36   21   35 1   
    37   21   36 1   
    38   21   37 1   
@<TRIPOS>SUBSTRUCTURE
     1 FSR         1 TEMP              0 ****  ****    0 ROOT
