@<TRIPOS>MOLECULE
FSR
   38    38     1     0     0
SMALL
bcc


@<TRIPOS>ATOM
      1 O1B        -3.5990   -0.2410   -2.8500 o         1 FSR     -0.773300
      2 C1         -2.3440   -0.3030   -2.7640 c         1 FSR      0.958600
      3 O1A        -1.6500   -0.4550   -3.8030 o         1 FSR     -0.773300
      4 C2         -1.6730   -0.2150   -1.4120 c3        1 FSR      0.162100
      5 C3         -1.6250   -1.6080   -0.7040 c3        1 FSR      0.118600
      6 F1         -1.0330   -2.5000   -1.5360 f         1 FSR     -0.219300
      7 C4         -0.8800   -1.5810    0.5690 c3        1 FSR      0.082100
      8 O4         -1.6420   -0.7740    1.5480 oh        1 FSR     -0.605800
      9 O6         -0.2850    0.3260   -1.5220 os        1 FSR     -0.407600
     10 C6          0.4440    0.3310   -0.2530 c3        1 FSR      0.087100
     11 C7         -0.1940    1.3390    0.6680 c3        1 FSR      0.092100
     12 C8          0.3460    2.7180    0.3580 c3        1 FSR      0.121100
     13 C9         -0.1210    3.6920    1.4160 c3        1 FSR      0.112400
     14 O9          0.2350    5.0030    1.0380 oh        1 FSR     -0.626800
     15 O8         -0.1250    3.1330   -0.9020 oh        1 FSR     -0.601800
     16 O7          0.1040    1.0080    2.0060 oh        1 FSR     -0.596800
     17 C5          0.4480   -1.0110    0.4270 c3        1 FSR      0.053700
     18 N5          1.2810   -1.9420   -0.3670 n         1 FSR     -0.553900
     19 C10         2.1840   -2.8190    0.2860 c         1 FSR      0.658100
     20 O10         2.2750   -2.8060    1.4980 o         1 FSR     -0.630100
     21 C11         3.0380   -3.7680   -0.5260 c3        1 FSR     -0.174100
     22 H3         -2.5400   -1.9030   -0.5260 h1        1 FSR      0.084700
     23 H4         -0.7980   -2.4950    0.9070 h1        1 FSR      0.082700
     24 H5         -2.1530   -1.3100    2.0400 ho        1 FSR      0.417000
     25 H6          1.3670    0.6000   -0.4220 h1        1 FSR      0.100700
     26 H7         -1.1620    1.3320    0.5390 h1        1 FSR      0.043700
     27 H8          1.3230    2.6910    0.3480 h1        1 FSR      0.069700
     28 H9         -1.0940    3.6310    1.5090 h1        1 FSR      0.043200
     29 H10         0.3030    3.4720    2.2710 h1        1 FSR      0.043200
     30 H11         0.2450    5.5260    1.7560 ho        1 FSR      0.471000
     31 H12         0.4940    3.6320   -1.3000 ho        1 FSR      0.424000
     32 H13        -0.4200    1.4760    2.5510 ho        1 FSR      0.402000
     33 H14         0.8450   -0.9130    1.3150 h1        1 FSR      0.098700
     34 H15         1.2030   -1.9620   -1.2760 hn        1 FSR      0.330500
     35 H16         2.4750   -4.2410   -1.1740 hc        1 FSR      0.061367
     36 H17         3.4640   -4.4170    0.0720 hc        1 FSR      0.061367
     37 H18         3.7280   -3.2600   -1.0020 hc        1 FSR      0.061367
     38 F2         -2.4650    0.6150   -0.7850 f         1 FSR     -0.276300
@<TRIPOS>BOND
     1    1    2 1   
     2    2    3 1   
     3    2    4 1   
     4    4    5 1   
     5    4    9 1   
     6    4   38 1   
     7    5    6 1   
     8    5    7 1   
     9    5   22 1   
    10    7    8 1   
    11    7   17 1   
    12    7   23 1   
    13    8   24 1   
    14    9   10 1   
    15   10   11 1   
    16   10   17 1   
    17   10   25 1   
    18   11   12 1   
    19   11   16 1   
    20   11   26 1   
    21   12   13 1   
    22   12   15 1   
    23   12   27 1   
    24   13   14 1   
    25   13   28 1   
    26   13   29 1   
    27   14   30 1   
    28   15   31 1   
    29   16   32 1   
    30   17   18 1   
    31   17   33 1   
    32   18   19 1   
    33   18   34 1   
    34   19   20 2   
    35   19   21 1   
    36   21   35 1   
    37   21   36 1   
    38   21   37 1   
@<TRIPOS>SUBSTRUCTURE
     1 FSR         1 TEMP              0 ****  ****    0 ROOT
