@<TRIPOS>MOLECULE
FSR
   39    37     1     0     0
SMALL
bcc


@<TRIPOS>ATOM
      1 O1B         1.7390    0.1380    0.6330 o         1 FSR     -0.518500
      2 C1          2.6720   -0.3050    1.2760 c         1 FSR      0.695600
      3 O1A         3.2320   -1.4960    0.8730 os        1 FSR     -0.438900
      4 C2          3.4090    0.1500    2.5500 c3        1 FSR      0.264100
      5 C3          2.4740    0.4040    3.7660 c3        1 FSR      0.164900
      6 F1          1.6000   -0.6360    3.9660 f         1 FSR     -0.216300
      7 C4          0.5660   -3.8450   -0.7590 c         1 FSR      0.548900
      8 O4          0.3810   -4.7530   -1.5700 o         1 FSR     -0.533100
      9 O6          4.2790   -0.9430    2.8360 os        1 FSR     -0.432600
     10 C6          4.3390   -1.8480    1.7260 c3        1 FSR      0.290900
     11 C7          5.6540   -1.6710    0.9600 c3        1 FSR      0.096400
     12 C8          6.3880    0.2740   -3.3340 c2        1 FSR     -0.065400
     13 C9          6.6280   -0.0860   -2.0580 c2        1 FSR     -0.065400
     14 O9          6.5290    0.8750   -1.0620 oh        1 FSR     -0.519600
     15 O8          6.1120    1.5490   -3.7430 oh        1 FSR     -0.519600
     16 O7          5.7050   -2.5280   -0.1570 oh        1 FSR     -0.587800
     17 C5          0.9890   -4.0620    0.6760 c3        1 FSR     -0.041000
     18 N5          1.2930   -5.4190    1.0310 ns        1 FSR     -0.556900
     19 C10         2.4550   -5.7560    1.7020 c         1 FSR      0.664100
     20 O10         3.2060   -4.8770    2.1740 o         1 FSR     -0.634100
     21 C11         2.7450   -7.2240    1.8900 c3        1 FSR     -0.173100
     22 H3          1.8990    1.3480    3.5600 h1        1 FSR      0.081200
     23 H4          3.1210    0.5320    4.6770 h1        1 FSR      0.081200
     24 H5          0.4200   -2.7750   -1.0250 h4        1 FSR      0.019200
     25 H6          1.8860   -3.4010    0.8830 h1        1 FSR      0.090200
     26 H7          4.1630   -2.8940    2.1060 h2        1 FSR      0.158700
     27 H8          5.7760   -0.5980    0.6430 h1        1 FSR      0.074200
     28 H9          6.3640   -0.4220   -4.1860 h4        1 FSR      0.165000
     29 H10         6.8340   -1.1110   -1.7220 h4        1 FSR      0.165000
     30 H11         7.3820    0.8780   -0.6040 ho        1 FSR      0.420500
     31 H12         6.1310    2.1330   -2.9680 ho        1 FSR      0.420500
     32 H13         4.9570   -2.3000   -0.7250 ho        1 FSR      0.414000
     33 H14         6.5080   -1.9820    1.6180 h1        1 FSR      0.074200
     34 H15         0.1410   -3.6970    1.3290 h1        1 FSR      0.090200
     35 H16         2.8620   -7.7280    0.9000 hc        1 FSR      0.069033
     36 H17         3.6950   -7.3320    2.4680 hc        1 FSR      0.069033
     37 H18         1.9170   -7.7170    2.4550 hc        1 FSR      0.069033
     38 F2          4.2510    1.2130    2.3370 f         1 FSR     -0.200300
     39 H52         0.8150   -6.1260    0.5210 hn        1 FSR      0.319500
@<TRIPOS>BOND
     1    1    2 2   
     2    2    3 1   
     3    2    4 1   
     4    3   10 1   
     5    4    5 1   
     6    4    9 1   
     7    4   38 1   
     8    5    6 1   
     9    5   22 1   
    10    5   23 1   
    11    7    8 2   
    12    7   17 1   
    13    7   24 1   
    14    9   10 1   
    15   10   11 1   
    16   10   26 1   
    17   11   16 1   
    18   11   27 1   
    19   11   33 1   
    20   12   13 2   
    21   12   15 1   
    22   12   28 1   
    23   13   14 1   
    24   13   29 1   
    25   14   30 1   
    26   15   31 1   
    27   16   32 1   
    28   17   18 1   
    29   17   25 1   
    30   17   34 1   
    31   18   19 1   
    32   18   39 1   
    33   19   20 2   
    34   19   21 1   
    35   21   35 1   
    36   21   36 1   
    37   21   37 1   
@<TRIPOS>SUBSTRUCTURE
     1 FSR         1 TEMP              0 ****  ****    0 ROOT
