@<TRIPOS>MOLECULE
FSR
   39    38     1     0     0
SMALL
bcc


@<TRIPOS>ATOM
      1 O1B         1.5380   -3.0390   -0.9120 o         1 FSR     -0.523500
      2 C1          2.5190   -2.3690   -0.6380 c         1 FSR      0.690600
      3 O1A         3.7480   -2.8570   -1.0270 os        1 FSR     -0.425900
      4 C2          2.7550   -1.0440    0.1170 c3        1 FSR      0.271100
      5 C3          2.2060   -0.9710    1.5870 c3        1 FSR      0.187600
      6 F1          1.2770    0.0440    1.6680 f         1 FSR     -0.195300
      7 C4          1.5910   -2.3160    2.0370 c3        1 FSR      0.084100
      8 O4          1.0830   -2.0750    3.3370 oh        1 FSR     -0.593800
      9 O6          4.1820   -0.9680    0.1780 os        1 FSR     -0.460600
     10 C6          4.7840   -1.9090   -0.7250 c3        1 FSR      0.288900
     11 C7          5.9540   -2.6100   -0.0240 c3        1 FSR      0.125400
     12 C8          6.2290    1.6040   -1.9600 c2        1 FSR     -0.060400
     13 C9          7.1370    1.6420   -0.9660 c2        1 FSR     -0.060400
     14 O9          6.8250    1.0440    0.2450 oh        1 FSR     -0.527100
     15 O8          4.9820    1.0520   -1.8590 oh        1 FSR     -0.527100
     16 O7          7.1690   -2.0010   -0.3800 oh        1 FSR     -0.587800
     17 C5          2.6610   -3.4340    2.0930 c3        1 FSR      0.042000
     18 N5          2.2350   -4.6980    1.5660 n         1 FSR     -0.563900
     19 C10         1.3080   -5.4730    2.2520 c         1 FSR      0.656100
     20 O10         0.9060   -5.1240    3.3820 o         1 FSR     -0.620100
     21 C11         0.8540   -6.7550    1.6040 c3        1 FSR     -0.173100
     22 H3          3.0780   -0.7170    2.2590 h1        1 FSR      0.100700
     23 H4          0.7420   -2.5810    1.3440 h1        1 FSR      0.072700
     24 H5          0.7170   -2.9170    3.6540 ho        1 FSR      0.443000
     25 H6          3.5800   -3.1120    1.5240 h1        1 FSR      0.073200
     26 H7          5.0860   -1.3780   -1.6710 h2        1 FSR      0.116700
     27 H8          5.7990   -2.5940    1.0870 h1        1 FSR      0.071700
     28 H9          6.4120    1.9680   -2.9830 h4        1 FSR      0.160000
     29 H10         8.1390    2.0760   -1.0580 h4        1 FSR      0.160000
     30 H11         7.0570    1.6800    0.9360 ho        1 FSR      0.428000
     31 H12         4.7870    0.8770   -0.9210 ho        1 FSR      0.428000
     32 H13         7.1620   -1.0980   -0.0280 ho        1 FSR      0.429000
     33 H14         6.0280   -3.6680   -0.3940 h1        1 FSR      0.071700
     34 H15         2.9490   -3.5770    3.1760 h1        1 FSR      0.073200
     35 H16         1.7270   -7.4250    1.4130 hc        1 FSR      0.072033
     36 H17         0.3390   -6.5410    0.6360 hc        1 FSR      0.072033
     37 H18         0.1410   -7.2720    2.2910 hc        1 FSR      0.072033
     38 F2          2.4020    0.0550   -0.6210 f         1 FSR     -0.185300
     39 H52         2.3170   -4.8260    0.5820 hn        1 FSR      0.318500
@<TRIPOS>BOND
     1    1    2 2   
     2    2    3 1   
     3    2    4 1   
     4    3   10 1   
     5    4    5 1   
     6    4    9 1   
     7    4   38 1   
     8    5    6 1   
     9    5    7 1   
    10    5   22 1   
    11    7    8 1   
    12    7   17 1   
    13    7   23 1   
    14    8   24 1   
    15    9   10 1   
    16   10   11 1   
    17   10   26 1   
    18   11   16 1   
    19   11   27 1   
    20   11   33 1   
    21   12   13 2   
    22   12   15 1   
    23   12   28 1   
    24   13   14 1   
    25   13   29 1   
    26   14   30 1   
    27   15   31 1   
    28   16   32 1   
    29   17   18 1   
    30   17   25 1   
    31   17   34 1   
    32   18   19 1   
    33   18   39 1   
    34   19   20 2   
    35   19   21 1   
    36   21   35 1   
    37   21   36 1   
    38   21   37 1   
@<TRIPOS>SUBSTRUCTURE
     1 FSR         1 TEMP              0 ****  ****    0 ROOT
