@<TRIPOS>MOLECULE
FSS
   60    54     1     0     0
SMALL
bcc


@<TRIPOS>ATOM
      1 N3         -3.0980   -0.0320   -0.9720 n1        1 FSS     -0.271000
      2 C4         -1.7520   -0.0510   -0.9570 c1        1 FSS      0.180000
      3 C6         -1.7470   -0.0870    1.4060 c1        1 FSS      0.028000
      4 C7         -3.1500   -0.0670    1.3970 c1        1 FSS     -0.295000
      5 C8         -3.8080   -0.0400    0.2220 c2        1 FSS      0.215000
      6 C10        -6.0420   -0.0590    1.4140 c1        1 FSS      0.426000
      7 C15        -6.4610   -1.2010    4.4890 c1        1 FSS     -0.039000
      8 C17        -7.5230    0.0210    6.2720 c1        1 FSS     -0.115500
      9 C22         0.3060   -0.1640   -2.3670 c1        1 FSS     -0.001000
     10 C24         2.4000    1.0170   -2.4500 c1        1 FSS     -0.179000
     11 C26         2.3500   -1.3540   -2.8130 c1        1 FSS     -0.150000
     12 N38        -1.1580   -0.1510   -2.2360 n2        1 FSS     -0.216000
     13 C23         1.0220    1.0210   -2.2730 c1        1 FSS     -0.069000
     14 C25         3.0630   -0.1710   -2.7190 c1        1 FSS      0.086000
     15 O28         4.4790   -0.1660   -2.9430 os        1 FSS     -0.218000
     16 C29         5.2560    0.0030   -1.7510 c3        1 FSS      0.076000
     17 N30         6.6570   -0.1190   -2.0690 n3        1 FSS     -0.316000
     18 C32         7.1660    1.1640   -2.5350 c3        1 FSS     -0.049500
     19 C33         7.8460    0.9790   -3.8640 c3        1 FSS     -0.213000
     20 C31         7.3820   -0.5300   -0.8980 c3        1 FSS     -0.049500
     21 C34         8.7180   -1.2710   -1.3350 c3        1 FSS     -0.213000
     22 C27         0.9660   -1.3500   -2.6360 c2        1 FSS     -0.131000
     23 N5         -1.0680   -0.0790    0.2480 n1        1 FSS     -0.220000
     24 N9         -5.2970    0.0370    0.1970 n3        1 FSS     -0.264000
     25 C37        -6.0050    0.2590   -1.0950 c3        1 FSS     -0.067000
     26 O34        -7.2670   -0.1220    1.3780 o         1 FSS     -0.359000
     27 N11        -5.3600   -0.0260    2.6830 n2        1 FSS     -0.299000
     28 C14        -6.1040   -0.0130    3.8870 c2        1 FSS      0.072000
     29 CL36       -5.9380   -2.7170    3.7980 cl        1 FSS      0.011000
     30 C16        -7.1730   -1.1890    5.6860 c1        1 FSS     -0.115500
     31 C18        -7.1640    1.2100    5.6660 c1        1 FSS     -0.125000
     32 C19        -6.4530    1.1930    4.4710 c2        1 FSS     -0.047000
     33 CL35       -5.9630    2.6720    3.7380 cl        1 FSS      0.007000
     34 C12        -3.9390   -0.0020    2.7240 c2        1 FSS      0.061000
     35 H6         -1.2450   -0.1080    2.2840 ha        1 FSS      0.166000
     36 H17        -8.0210    0.0320    7.1080 ha        1 FSS      0.150000
     37 H24         2.9160    1.8730   -2.3810 ha        1 FSS      0.149000
     38 H26         2.8380   -2.2300   -3.0110 ha        1 FSS      0.148000
     39 HN38       -1.6910   -0.1380   -2.9960 hn        1 FSS      0.231000
     40 H23         0.5570    1.8550   -2.0850 ha        1 FSS      0.154000
     41 H29         5.0840    0.8940   -1.3700 h2        1 FSS      0.091000
     42 H29A        5.0160   -0.6630   -1.1200 h2        1 FSS      0.091000
     43 H32         7.8170    1.5190   -1.8760 h1        1 FSS      0.069500
     44 H32A        6.4300    1.7870   -2.6320 h1        1 FSS      0.069500
     45 H33         7.1760    1.1220   -4.6090 hc        1 FSS      0.079833
     46 H33A        8.2020    0.0850   -3.9200 hc        1 FSS      0.079833
     47 H33B        8.5690    1.6210   -3.9500 hc        1 FSS      0.079833
     48 H31         7.6100    0.2690   -0.3520 h1        1 FSS      0.069500
     49 H31A        6.8300   -1.1390   -0.3700 h1        1 FSS      0.069500
     50 H34         8.6590   -1.5180   -2.2680 hc        1 FSS      0.079833
     51 H34A        9.4970   -0.6600   -1.2010 hc        1 FSS      0.079833
     52 H34B        8.8310   -2.0300   -0.8230 hc        1 FSS      0.079833
     53 H27         0.4480   -2.2110   -2.7030 ha        1 FSS      0.133000
     54 H37        -5.6610    1.0610   -1.5170 h1        1 FSS      0.100333
     55 H37A       -5.8540   -0.5100   -1.6860 h1        1 FSS      0.100333
     56 H37B       -6.9970    0.3650   -0.9250 h1        1 FSS      0.100333
     57 H16        -7.4260   -2.0300    6.1130 ha        1 FSS      0.150000
     58 H18        -7.4070    2.0550    6.0730 ha        1 FSS      0.154000
     59 H12        -3.6700    0.8310    3.1880 h4        1 FSS      0.092000
     60 H12A       -3.6510   -0.7480    3.2720 h4        1 FSS      0.092000
@<TRIPOS>BOND
     1    1    5 1   
     2    2   12 1   
     3    2   23 1   
     4    3    4 1   
     5    3   35 1   
     6    4    5 1   
     7    5   24 1   
     8    6   24 1   
     9    6   26 1   
    10    7   28 1   
    11    7   29 1   
    12    8   30 1   
    13    8   36 1   
    14    9   13 1   
    15    9   22 1   
    16   10   14 1   
    17   10   37 1   
    18   11   22 1   
    19   11   38 1   
    20   12   39 1   
    21   13   40 1   
    22   14   15 1   
    23   15   16 1   
    24   16   17 1   
    25   16   41 1   
    26   16   42 1   
    27   17   18 1   
    28   17   20 1   
    29   18   19 1   
    30   18   43 1   
    31   18   44 1   
    32   19   45 1   
    33   19   46 1   
    34   19   47 1   
    35   20   21 1   
    36   20   48 1   
    37   20   49 1   
    38   21   50 1   
    39   21   51 1   
    40   21   52 1   
    41   22   53 1   
    42   24   25 1   
    43   25   54 1   
    44   25   55 1   
    45   25   56 1   
    46   27   28 1   
    47   27   34 1   
    48   28   32 1   
    49   30   57 1   
    50   31   32 1   
    51   31   58 1   
    52   32   33 1   
    53   34   59 1   
    54   34   60 1   
@<TRIPOS>SUBSTRUCTURE
     1 FSS         1 TEMP              0 ****  ****    0 ROOT
