@<TRIPOS>MOLECULE
FSS
   60    63     1     0     0
SMALL
bcc


@<TRIPOS>ATOM
      1 N3          0.2600    1.9000   -0.8340 nb        1 FSS     -0.797000
      2 C4         -0.8260    1.5750   -0.0350 ca        1 FSS      0.898900
      3 C6          0.3740    0.0620    1.2420 ca        1 FSS      0.493200
      4 C7          1.5470    0.3370    0.5220 ca        1 FSS     -0.432900
      5 C8          1.4460    1.2880   -0.5400 ca        1 FSS      0.623200
      6 C10         3.7900    0.8540   -1.1300 c         1 FSS      0.835500
      7 C15         6.1150   -0.2750    0.8980 ca        1 FSS      0.035400
      8 C17         7.5110   -2.2030    0.4840 ca        1 FSS     -0.105000
      9 C22        -3.2740    1.8130    0.1100 ca        1 FSS      0.080600
     10 C24        -4.8750    1.2290    1.8390 ca        1 FSS     -0.167000
     11 C26        -5.5370    1.1490   -0.5000 ca        1 FSS     -0.167000
     12 N38        -2.0040    2.3120   -0.2780 nh        1 FSS     -0.695300
     13 C23        -3.6040    1.6460    1.4720 ca        1 FSS     -0.099000
     14 C25        -5.8500    0.9830    0.8530 ca        1 FSS      0.139100
     15 O28        -7.0890    0.6340    1.3480 os        1 FSS     -0.336900
     16 C29        -8.0900    0.1760    0.4250 c3        1 FSS      0.383600
     17 N30        -7.7600   -1.1020   -0.1720 n3        1 FSS     -0.786600
     18 C32        -8.0330   -2.2570    0.6670 c3        1 FSS      0.187800
     19 C33        -7.4800   -2.1630    2.0790 c3        1 FSS     -0.098100
     20 C31        -8.2460   -1.2410   -1.5350 c3        1 FSS      0.187800
     21 C34        -7.6750   -2.4310   -2.2910 c3        1 FSS     -0.098100
     22 C27        -4.2570    1.5530   -0.8670 ca        1 FSS     -0.099000
     23 N5         -0.8050    0.6470    1.0010 nb        1 FSS     -0.746000
     24 N9          2.5880    1.5990   -1.2920 n         1 FSS     -0.448300
     25 C37         2.5170    2.5690   -2.3590 c3        1 FSS      0.088300
     26 O34         4.7540    1.0740   -1.8940 o         1 FSS     -0.634500
     27 N11         3.8690   -0.1220   -0.1250 n         1 FSS     -0.396000
     28 C14         5.0930   -0.8100    0.0800 ca        1 FSS      0.064600
     29 C16         7.3120   -0.9680    1.0940 ca        1 FSS     -0.125500
     30 C18         6.5190   -2.7550   -0.3230 ca        1 FSS     -0.125500
     31 C19         5.3190   -2.0690   -0.5260 ca        1 FSS      0.035400
     32 CL35        4.1350   -2.7800   -1.5130 cl        1 FSS     -0.069400
     33 C12         2.8310   -0.3280    0.8620 c3        1 FSS      0.184300
     34 H6          0.3810   -0.6760    2.0660 h4        1 FSS      0.030100
     35 H17         8.4570   -2.7440    0.6360 ha        1 FSS      0.146000
     36 H24        -5.1350    1.0930    2.8990 ha        1 FSS      0.144500
     37 H26        -6.2800    0.9460   -1.2830 ha        1 FSS      0.144500
     38 HN38       -2.0120    2.8010   -1.1520 hn        1 FSS      0.434800
     39 H23        -2.8550    1.8400    2.2550 ha        1 FSS      0.143000
     40 H29        -8.9980    0.1250    1.1020 h2        1 FSS      0.053200
     41 H29A       -8.2440    0.9620   -0.3680 h2        1 FSS      0.053200
     42 H32        -9.1460   -2.4530    0.7300 h1        1 FSS      0.027200
     43 H32A       -7.5620   -3.1480    0.1610 h1        1 FSS      0.027200
     44 H33        -7.6780   -3.1280    2.6050 hc        1 FSS      0.043200
     45 H33A       -6.3800   -1.9750    2.0650 hc        1 FSS      0.043200
     46 H33B       -7.9650   -1.3340    2.6490 hc        1 FSS      0.043200
     47 H31        -9.3750   -1.3150   -1.5580 h1        1 FSS      0.027200
     48 H31A       -7.9590   -0.3040   -2.0960 h1        1 FSS      0.027200
     49 H34        -6.5640   -2.4770   -2.1970 hc        1 FSS      0.043200
     50 H34A       -8.1050   -3.3910   -1.9180 hc        1 FSS      0.043200
     51 H34B       -7.9390   -2.3240   -3.3720 hc        1 FSS      0.043200
     52 H27        -4.0260    1.6720   -1.9370 ha        1 FSS      0.143000
     53 H37         2.1370    3.5420   -1.9500 h1        1 FSS      0.061033
     54 H37A        3.5380    2.7260   -2.8000 h1        1 FSS      0.061033
     55 H37B        1.8190    2.2100   -3.1620 h1        1 FSS      0.061033
     56 H16         8.1000   -0.5320    1.7290 ha        1 FSS      0.154000
     57 H18         6.6810   -3.7310   -0.8060 ha        1 FSS      0.154000
     58 H12         3.1930    0.0580    1.8630 h1        1 FSS      0.052700
     59 H12A        2.6650   -1.4420    0.9640 h1        1 FSS      0.052700
     60 CL36        5.9100    1.2280    1.6630 cl        1 FSS     -0.069400
@<TRIPOS>BOND
     1    1    2 ar  
     2    1    5 ar  
     3    2   12 1   
     4    2   23 ar  
     5    3    4 ar  
     6    3   23 ar  
     7    3   34 1   
     8    4    5 ar  
     9    4   33 1   
    10    5   24 1   
    11    6   24 1   
    12    6   26 2   
    13    6   27 1   
    14    7   28 ar  
    15    7   29 ar  
    16    7   60 1   
    17    8   29 ar  
    18    8   30 ar  
    19    8   35 1   
    20    9   12 1   
    21    9   13 ar  
    22    9   22 ar  
    23   10   13 ar  
    24   10   14 ar  
    25   10   36 1   
    26   11   14 ar  
    27   11   22 ar  
    28   11   37 1   
    29   12   38 1   
    30   13   39 1   
    31   14   15 1   
    32   15   16 1   
    33   16   17 1   
    34   16   40 1   
    35   16   41 1   
    36   17   18 1   
    37   17   20 1   
    38   18   19 1   
    39   18   42 1   
    40   18   43 1   
    41   19   44 1   
    42   19   45 1   
    43   19   46 1   
    44   20   21 1   
    45   20   47 1   
    46   20   48 1   
    47   21   49 1   
    48   21   50 1   
    49   21   51 1   
    50   22   52 1   
    51   24   25 1   
    52   25   53 1   
    53   25   54 1   
    54   25   55 1   
    55   27   28 1   
    56   27   33 1   
    57   28   31 ar  
    58   29   56 1   
    59   30   31 ar  
    60   30   57 1   
    61   31   32 1   
    62   33   58 1   
    63   33   59 1   
@<TRIPOS>SUBSTRUCTURE
     1 FSS         1 TEMP              0 ****  ****    0 ROOT
