@<TRIPOS>MOLECULE
FSS
   61    61     1     0     0
SMALL
bcc


@<TRIPOS>ATOM
      1 N3         -0.5410    0.4210   -0.3420 n2        1 FSS     -0.263000
      2 C4          0.8150    0.4410   -0.6280 c2        1 FSS      0.195000
      3 C6          1.4460    0.0200    1.5550 c2        1 FSS      0.023000
      4 C7          0.1100   -0.0370    1.9630 c2        1 FSS     -0.271000
      5 C8         -0.8900    0.1770    0.9570 c2        1 FSS      0.220000
      6 C10        -2.6270    0.0510    2.6850 c2        1 FSS      0.418000
      7 C15        -2.8590   -1.3360    5.4440 c3        1 FSS      0.087000
      8 C17        -3.3710   -1.2020    8.0300 c1        1 FSS     -0.097000
      9 C22         2.3750    0.8220   -2.5310 c2        1 FSS      0.092000
     10 C24         4.6590    1.0760   -3.0500 c3        1 FSS     -0.135000
     11 C26         3.8320    1.1100   -4.3170 c2        1 FSS     -0.172000
     12 N38         1.1200    0.6650   -1.9820 nh        1 FSS     -0.237000
     13 C23         3.6240    0.8700   -1.9640 c2        1 FSS     -0.258000
     14 C25         5.6290   -0.0640   -3.0430 c2        1 FSS      0.270000
     15 O28         6.7570    0.0200   -2.5350 o         1 FSS     -0.424000
     16 C29         9.4000   -0.6380   -1.7030 c2        1 FSS      0.069000
     17 N30         9.2340    0.5520   -1.2250 n3        1 FSS     -0.087000
     18 C32         6.7230    1.7940    1.2550 c2        1 FSS     -0.236000
     19 C33         6.7010    2.2350    0.0030 c2        1 FSS     -0.236000
     20 C31        10.3110    1.3940   -0.7020 c3        1 FSS     -0.095000
     21 C34        10.2620    2.8170   -1.2270 c3        1 FSS     -0.243000
     22 C27         2.5200    0.9800   -4.0130 c2        1 FSS     -0.125000
     23 N5          1.8350    0.2500    0.2890 n2        1 FSS     -0.242000
     24 N9         -2.2410    0.1200    1.3140 n         1 FSS     -0.259000
     25 C37        -3.2690    0.2930    0.3140 c3        1 FSS     -0.071000
     26 O34        -3.8430    0.0780    2.9740 o         1 FSS     -0.360000
     27 N11        -1.6400   -0.0160    3.6820 n         1 FSS     -0.268000
     28 C14        -2.0410   -0.1320    5.0320 c2        1 FSS     -0.057000
     29 C16        -3.1520   -1.2760    6.8490 c1        1 FSS     -0.176000
     30 C18        -2.0030    0.6930    7.3690 c1        1 FSS     -0.019000
     31 C19        -1.7690    0.8220    5.9720 c2        1 FSS     -0.085000
     32 CL35       -0.9120    2.2540    5.6080 cl        1 FSS      0.026000
     33 C12        -0.2600   -0.3300    3.3730 c3        1 FSS      0.046000
     34 H6          2.2650   -0.1300    2.2840 h4        1 FSS      0.166000
     35 H17        -3.5700   -1.1630    9.0740 ha        1 FSS      0.244000
     36 H24         5.1840    2.0590   -2.9030 hc        1 FSS      0.144000
     37 H26         5.2790   -1.0140   -3.5060 h4        1 FSS      0.123000
     38 HN38        0.3440    0.7830   -2.6010 hn        1 FSS      0.264000
     39 H23         3.9140    0.8110   -0.9180 ha        1 FSS      0.178000
     40 H29         8.3010    0.9720   -1.2040 hn        1 FSS      0.308000
     41 H29A        8.5230   -1.2160   -2.0800 h4        1 FSS      0.204500
     42 H32        10.4060   -1.1070   -1.7500 h4        1 FSS      0.204500
     43 H32A        7.1820    2.3610    2.0780 ha        1 FSS      0.119750
     44 H33         6.2620    0.8420    1.5570 ha        1 FSS      0.119750
     45 H33A        7.1220    3.2070   -0.2890 ha        1 FSS      0.119750
     46 H33B        6.1990    1.6870   -0.8110 ha        1 FSS      0.119750
     47 H31        10.1990    1.4010    0.4240 h1        1 FSS      0.138000
     48 H31A       11.3050    0.9240   -0.9570 h1        1 FSS      0.138000
     49 H34        10.4140    2.8520   -2.3330 hc        1 FSS      0.116333
     50 H34A        9.2920    3.3120   -0.9780 hc        1 FSS      0.116333
     51 H34B       11.0890    3.3920   -0.7380 hc        1 FSS      0.116333
     52 H27         1.6700    0.9870   -4.6980 ha        1 FSS      0.163000
     53 H37        -3.1990    1.3190   -0.1380 h1        1 FSS      0.104667
     54 H37A       -4.2820    0.1650    0.7830 h1        1 FSS      0.104667
     55 H37B       -3.1350   -0.4760   -0.4920 h1        1 FSS      0.104667
     56 H16        -3.8060   -1.3840    4.8300 h1        1 FSS      0.172000
     57 H18        -2.7580    1.3060    7.8730 ha        1 FSS      0.111000
     58 H12        -0.0690   -1.4270    3.5830 h1        1 FSS      0.104000
     59 H12A        0.3940    0.2700    4.0730 h1        1 FSS      0.104000
     60 H301        4.2850    1.2480   -5.2980 ha        1 FSS      0.159000
     61 CL36       -1.9890   -2.8390    5.0780 cl        1 FSS     -0.096000
@<TRIPOS>BOND
     1    1    2 1   
     2    1    5 1   
     3    2   12 1   
     4    2   23 1   
     5    3    4 1   
     6    3   23 1   
     7    3   34 1   
     8    4    5 1   
     9    4   33 1   
    10    5   24 1   
    11    6   24 1   
    12    6   26 1   
    13    6   27 1   
    14    7   28 1   
    15    7   29 1   
    16    7   56 1   
    17    7   61 1   
    18    8   29 1   
    19    8   35 1   
    20    9   12 1   
    21    9   13 1   
    22    9   22 1   
    23   10   11 1   
    24   10   13 1   
    25   10   14 1   
    26   10   36 1   
    27   11   22 1   
    28   11   60 1   
    29   12   38 1   
    30   13   39 1   
    31   14   15 1   
    32   14   37 1   
    33   16   17 1   
    34   16   41 1   
    35   16   42 1   
    36   17   20 1   
    37   17   40 1   
    38   18   19 1   
    39   18   43 1   
    40   18   44 1   
    41   19   45 1   
    42   19   46 1   
    43   20   21 1   
    44   20   47 1   
    45   20   48 1   
    46   21   49 1   
    47   21   50 1   
    48   21   51 1   
    49   22   52 1   
    50   24   25 1   
    51   25   53 1   
    52   25   54 1   
    53   25   55 1   
    54   27   28 1   
    55   27   33 1   
    56   28   31 1   
    57   30   31 1   
    58   30   57 1   
    59   31   32 1   
    60   33   58 1   
    61   33   59 1   
@<TRIPOS>SUBSTRUCTURE
     1 FSS         1 TEMP              0 ****  ****    0 ROOT
