@<TRIPOS>MOLECULE
FSS
   61    59     1     0     0
SMALL
bcc


@<TRIPOS>ATOM
      1 N3          0.8800   -0.8710   -0.1920 n2        1 FSS     -0.208000
      2 C4          1.8500   -1.8050    0.0380 c2        1 FSS      0.021000
      3 C6          1.3120   -2.1520    2.2420 c2        1 FSS      0.013000
      4 C7          0.2820   -1.2100    2.1510 c2        1 FSS     -0.208000
      5 C8          0.0780   -0.5630    0.8840 c2        1 FSS      0.205000
      6 C10        -1.6820    0.8210    1.8870 c2        1 FSS      0.414000
      7 C15        -3.6510    0.4200    4.2390 c3        1 FSS      0.091000
      8 C17        -4.7070    1.1900    6.5340 c1        1 FSS     -0.085000
      9 C22         4.0100   -1.3950   -1.0850 c2        1 FSS     -0.406000
     10 C24         6.2610   -1.3650   -0.1660 c1        1 FSS     -0.416000
     11 C26         4.1430    0.8390   -2.3900 c1        1 FSS     -0.369000
     12 N38         2.7540   -2.1140   -1.1280 ny        1 FSS      0.153000
     13 C23         5.0530   -1.8780   -0.2430 c2        1 FSS      0.114000
     14 C25         7.4610   -0.8990    0.0310 c2        1 FSS      0.004000
     15 O28         8.5480   -1.2280   -0.7700 oh        1 FSS     -0.341000
     16 C29         8.3000    0.9880   -2.6430 c2        1 FSS      0.080000
     17 N30         7.0490    0.9870   -2.3310 n8        1 FSS     -0.135000
     18 C32         8.3670    3.4340    0.8140 c2        1 FSS     -0.235250
     19 C33         8.1780    2.3230    1.5130 c2        1 FSS     -0.235250
     20 C31         5.9310    3.8740   -3.5320 c2        1 FSS     -0.235250
     21 C34         5.7200    4.0020   -2.2280 c2        1 FSS     -0.235250
     22 C27         4.0700   -0.1910   -1.7730 c1        1 FSS     -0.024000
     23 N5          2.1120   -2.4750    1.2040 n2        1 FSS     -0.180000
     24 N9         -0.9490    0.3650    0.7420 n         1 FSS     -0.254000
     25 C37        -1.2030    0.9910   -0.5360 c3        1 FSS     -0.076000
     26 O34        -2.5470    1.7050    1.7250 o         1 FSS     -0.340000
     27 N11        -1.3810    0.2970    3.1520 n         1 FSS     -0.259000
     28 C14        -2.1660    0.7010    4.2580 c2        1 FSS     -0.088000
     29 C16        -4.2430    0.8430    5.4780 c1        1 FSS     -0.182000
     30 C18        -2.3330    1.6610    6.5330 c1        1 FSS     -0.020000
     31 C19        -1.6450    1.3790    5.3250 c2        1 FSS     -0.066000
     32 Cl35        0.0050    1.8060    5.4260 cl        1 FSS      0.032000
     33 C12        -0.5970   -0.9100    3.3140 c3        1 FSS      0.029000
     34 H6          1.5180   -2.6900    3.1890 h4        1 FSS      0.194000
     35 H17        -5.1390    1.4800    7.4620 ha        1 FSS      0.248000
     36 H24         4.8370   -2.7720    0.3830 ha        1 FSS      0.146000
     37 H26         7.7610   -0.1600    0.7950 h4        1 FSS      0.165000
     38 HN38        2.2610   -1.8690   -1.9950 hn        1 FSS      0.255000
     39 H23         2.9510   -3.1210   -1.1100 hn        1 FSS      0.255000
     40 H29         8.4970   -2.1700   -0.9860 ho        1 FSS      0.231000
     41 H29A        8.7470    1.8300   -3.2150 h4        1 FSS      0.205000
     42 H32         8.9650    0.1440   -2.3350 h4        1 FSS      0.205000
     43 H32A        9.3660    3.7890    0.5240 ha        1 FSS      0.119625
     44 H33         7.5420    4.0910    0.5070 ha        1 FSS      0.119625
     45 H33A        9.0070    1.6810    1.8430 ha        1 FSS      0.119625
     46 H33B        7.1820    1.9830    1.8310 ha        1 FSS      0.119625
     47 H31         6.4210    1.7470   -2.5820 hn        1 FSS      0.298000
     48 H31A        6.8380    4.2500   -4.0270 ha        1 FSS      0.119625
     49 H34         5.1890    3.4350   -4.2150 ha        1 FSS      0.119625
     50 H34A        4.7910    3.6690   -1.7400 ha        1 FSS      0.119625
     51 H34B        6.4420    4.4840   -1.5510 ha        1 FSS      0.119625
     52 H27         4.1310    1.7580   -2.9170 ha        1 FSS      0.222000
     53 H37        -0.3070    1.5870   -0.8580 h1        1 FSS      0.108667
     54 H37A       -1.4170    0.1990   -1.3020 h1        1 FSS      0.108667
     55 H37B       -2.0910    1.6750   -0.4550 h1        1 FSS      0.108667
     56 H16        -4.1290    0.9410    3.3580 h1        1 FSS      0.169000
     57 H18        -2.6170    2.6750    6.8260 ha        1 FSS      0.124000
     58 H12        -1.2860   -1.7940    3.4850 h1        1 FSS      0.119500
     59 H12A        0.0340   -0.7840    4.2450 h1        1 FSS      0.119500
     60 H301        6.6110    0.2290   -1.7990 hn        1 FSS      0.298000
     61 Cl36       -3.9660   -1.3080    3.9830 cl        1 FSS     -0.093000
@<TRIPOS>BOND
     1    1    2 1   
     2    1    5 1   
     3    2   12 1   
     4    2   23 1   
     5    3    4 1   
     6    3   23 1   
     7    3   34 1   
     8    4    5 1   
     9    4   33 1   
    10    5   24 1   
    11    6   24 1   
    12    6   26 1   
    13    6   27 1   
    14    7   28 1   
    15    7   29 1   
    16    7   56 1   
    17    7   61 1   
    18    8   29 1   
    19    8   35 1   
    20    9   12 1   
    21    9   13 1   
    22    9   22 1   
    23   10   13 1   
    24   10   14 1   
    25   11   22 1   
    26   11   52 1   
    27   12   38 1   
    28   12   39 1   
    29   13   36 1   
    30   14   15 1   
    31   14   37 1   
    32   15   40 1   
    33   16   17 1   
    34   16   41 1   
    35   16   42 1   
    36   17   47 1   
    37   17   60 1   
    38   18   19 1   
    39   18   43 1   
    40   18   44 1   
    41   19   45 1   
    42   19   46 1   
    43   20   21 1   
    44   20   48 1   
    45   20   49 1   
    46   21   50 1   
    47   21   51 1   
    48   24   25 1   
    49   25   53 1   
    50   25   54 1   
    51   25   55 1   
    52   27   28 1   
    53   27   33 1   
    54   28   31 1   
    55   30   31 1   
    56   30   57 1   
    57   31   32 1   
    58   33   58 1   
    59   33   59 1   
@<TRIPOS>SUBSTRUCTURE
     1 FSS         1 TEMP              0 ****  ****    0 ROOT
