@<TRIPOS>MOLECULE
FSS
   60    60     1     0     0
SMALL
bcc


@<TRIPOS>ATOM
      1 N3         -0.0270   -0.2060    0.1600 n2        1 FSS     -0.267000
      2 C4          1.3460   -0.2720    0.3530 c2        1 FSS      0.189000
      3 C6          1.2090    0.2220    2.6110 c2        1 FSS      0.033000
      4 C7         -0.1890    0.3120    2.5360 c2        1 FSS     -0.295000
      5 C8         -0.7850    0.0740    1.2590 c2        1 FSS      0.212000
      6 C10        -3.0000    0.1440    2.3030 c2        1 FSS      0.424000
      7 C15        -4.1060   -1.0450    4.8900 c3        1 FSS      0.006000
      8 C17        -5.5990    0.3230    6.4920 c1        1 FSS      0.259000
      9 C22         3.4840   -0.4240   -0.8780 c2        1 FSS      0.085000
     10 C24         5.8100   -0.5740   -0.2300 c2        1 FSS     -0.189000
     11 C26         5.2780    0.2940   -2.4040 c1        1 FSS      0.114000
     12 N38         2.0960   -0.6410   -0.7770 nh        1 FSS     -0.231000
     13 C23         4.4090   -0.8740    0.0130 c2        1 FSS     -0.151000
     14 C25         6.5640   -1.2400   -1.1390 c2        1 FSS      0.030000
     15 O28         7.9010   -0.9310   -1.2220 oh        1 FSS     -0.259000
     16 C29         8.2380    0.2340   -4.2320 c2        1 FSS     -0.146000
     17 N30         9.2090    1.0280   -4.4340 n2        1 FSS     -0.234000
     18 C32         8.7530    2.7720    0.9940 c2        1 FSS     -0.223250
     19 C33         8.4470    1.4920    1.1600 c2        1 FSS     -0.223250
     20 C31         9.5650    4.4090   -3.8390 c2        1 FSS     -0.223250
     21 C34         9.4580    4.0450   -2.5680 c2        1 FSS     -0.223250
     22 C27         3.9890    0.2440   -2.0900 c2        1 FSS     -0.433000
     23 N5          1.9950   -0.0590    1.5640 n2        1 FSS     -0.222000
     24 N9         -2.1830    0.1530    1.1400 n         1 FSS     -0.259000
     25 C37        -2.8170   -0.0180   -0.1460 c3        1 FSS     -0.068000
     26 O34        -4.2350   -0.0140    2.1830 o         1 FSS     -0.367000
     27 N11        -2.4150    0.3410    3.5690 n         1 FSS     -0.271000
     28 C14        -3.1830    0.1630    4.7220 c2        1 FSS      0.022000
     29 C16        -4.7180   -0.8640    6.2660 c3        1 FSS     -0.334000
     30 C18        -4.1470    0.4290    6.8610 c3        1 FSS     -0.288000
     31 C19        -3.2480    0.9810    5.8180 c2        1 FSS     -0.090000
     32 CL35       -2.4510    2.4290    6.0740 cl        1 FSS      0.041000
     33 C12        -1.0130    0.6800    3.7160 c3        1 FSS      0.053000
     34 H6          1.7350    0.3900    3.5710 h4        1 FSS      0.170000
     35 H17        -4.8770   -1.7850    6.8520 hc        1 FSS      0.181000
     36 H24         6.2580    0.2190    0.3970 ha        1 FSS      0.168000
     37 H26         6.1990   -2.0620   -1.7750 h4        1 FSS      0.141000
     38 HN38        1.6020   -0.6140   -1.6470 hn        1 FSS      0.243000
     39 H23         4.1600   -1.4050    0.9430 ha        1 FSS      0.172000
     40 H29         8.2110   -1.2100   -2.0970 ho        1 FSS      0.228000
     41 H29A        7.3460    0.4040   -3.5900 h4        1 FSS      0.114500
     42 H32         8.2560   -0.7450   -4.7490 h4        1 FSS      0.114500
     43 H32A        8.6940    3.5080    1.8060 ha        1 FSS      0.112375
     44 H33         9.0860    3.1810    0.0290 ha        1 FSS      0.112375
     45 H33A        8.5080    0.7540    0.3460 ha        1 FSS      0.112375
     46 H33B        8.1140    1.0840    2.1240 ha        1 FSS      0.112375
     47 H31         9.1720    1.9120   -3.9640 hn        1 FSS      0.144000
     48 H31A        8.8900    5.1400   -4.3050 ha        1 FSS      0.112375
     49 H34        10.3350    4.0040   -4.5100 ha        1 FSS      0.112375
     50 H34A       10.1360    3.3160   -2.1010 ha        1 FSS      0.112375
     51 H34B        8.6890    4.4500   -1.8960 ha        1 FSS      0.112375
     52 H27         3.2610    0.7400   -2.7580 ha        1 FSS      0.182000
     53 H37        -2.6450   -1.0590   -0.5310 h1        1 FSS      0.102333
     54 H37A       -3.9210    0.1640   -0.0520 h1        1 FSS      0.102333
     55 H37B       -2.3790    0.7200   -0.8700 h1        1 FSS      0.102333
     56 H16        -4.8850   -1.0830    4.0830 h1        1 FSS      0.177000
     57 H18        -3.8330    0.5510    7.9100 hc        1 FSS      0.176000
     58 H12        -0.9300    1.7980    3.8830 h1        1 FSS      0.102000
     59 H12A       -0.6130    0.1650    4.6390 h1        1 FSS      0.102000
     60 CL36       -3.1990   -2.5450    4.7750 cl        1 FSS     -0.087000
@<TRIPOS>BOND
     1    1    2 1   
     2    1    5 1   
     3    2   12 1   
     4    2   23 1   
     5    3    4 1   
     6    3   23 1   
     7    3   34 1   
     8    4    5 1   
     9    4   33 1   
    10    5   24 1   
    11    6   24 1   
    12    6   26 1   
    13    6   27 1   
    14    7   28 1   
    15    7   29 1   
    16    7   56 1   
    17    7   60 1   
    18    8   29 1   
    19    8   30 1   
    20    9   12 1   
    21    9   13 1   
    22    9   22 1   
    23   10   13 1   
    24   10   14 1   
    25   10   36 1   
    26   11   22 1   
    27   12   38 1   
    28   13   39 1   
    29   14   15 1   
    30   14   37 1   
    31   15   40 1   
    32   16   17 1   
    33   16   41 1   
    34   16   42 1   
    35   17   47 1   
    36   18   19 1   
    37   18   43 1   
    38   18   44 1   
    39   19   45 1   
    40   19   46 1   
    41   20   21 1   
    42   20   48 1   
    43   20   49 1   
    44   21   50 1   
    45   21   51 1   
    46   22   52 1   
    47   24   25 1   
    48   25   53 1   
    49   25   54 1   
    50   25   55 1   
    51   27   28 1   
    52   27   33 1   
    53   28   31 1   
    54   29   30 1   
    55   29   35 1   
    56   30   31 1   
    57   30   57 1   
    58   31   32 1   
    59   33   58 1   
    60   33   59 1   
@<TRIPOS>SUBSTRUCTURE
     1 FSS         1 TEMP              0 ****  ****    0 ROOT
