@<TRIPOS>MOLECULE
FST
   35    35     1     0     0
SMALL
bcc


@<TRIPOS>ATOM
      1 C1          0.1700   -0.4820   -0.6030 c3        1 FST     -0.129800
      2 S2          1.5650   -0.7040    0.4110 sx        1 FST      0.331400
      3 O3          1.0300   -1.1230    1.7360 o         1 FST     -0.509200
      4 C4          2.2590   -2.1090   -0.2900 ca        1 FST     -0.130500
      5 C5          2.8370   -2.0340   -1.5610 ca        1 FST     -0.047000
      6 C6          3.4880   -3.1280   -2.1210 ca        1 FST     -0.148000
      7 C7          3.5750   -4.3190   -1.3780 ca        1 FST      0.150100
      8 C8          2.9780   -4.4210   -0.1110 ca        1 FST     -0.148000
      9 C9          2.3290   -3.3100    0.4200 ca        1 FST     -0.047000
     10 O10         4.1150   -5.4440   -1.9600 os        1 FST     -0.454500
     11 P11         5.6760   -5.8270   -1.8540 p5        1 FST      1.240200
     12 S12         6.9070   -4.7070   -2.7250 s         1 FST     -0.620000
     13 O13         5.8390   -6.0470   -0.2870 os        1 FST     -0.532200
     14 C14         7.0940   -5.7750    0.3280 c3        1 FST      0.149400
     15 C15         6.8990   -4.7650    1.4350 c3        1 FST     -0.118100
     16 O16         5.5800   -7.3340   -2.3550 os        1 FST     -0.532200
     17 C17         5.8180   -7.6250   -3.7270 c3        1 FST      0.149400
     18 C18         4.5390   -8.0610   -4.4020 c3        1 FST     -0.118100
     19 H1         -0.6530   -1.2060   -0.4000 h1        1 FST      0.086367
     20 H1A         0.4350   -0.5600   -1.6810 h1        1 FST      0.086367
     21 H5          2.7770   -1.0960   -2.1380 ha        1 FST      0.155500
     22 H6          3.9350   -3.0600   -3.1250 ha        1 FST      0.162500
     23 H8          3.0240   -5.3680    0.4480 ha        1 FST      0.162500
     24 H9          1.8550   -3.3720    1.4180 ha        1 FST      0.155500
     25 H14         7.8150   -5.3930   -0.4520 h1        1 FST      0.073200
     26 H14A        7.4570   -6.7530    0.7540 h1        1 FST      0.073200
     27 H15         6.6260   -3.7650    1.0220 hc        1 FST      0.054700
     28 H15A        6.0890   -5.0980    2.1260 hc        1 FST      0.054700
     29 H15B        7.8530   -4.6700    2.0080 hc        1 FST      0.054700
     30 H17         6.5630   -8.4710   -3.7310 h1        1 FST      0.073200
     31 H17A        6.2740   -6.7200   -4.2220 h1        1 FST      0.073200
     32 H18         4.0640   -8.8930   -3.8290 hc        1 FST      0.054700
     33 H18A        3.8060   -7.2220   -4.4720 hc        1 FST      0.054700
     34 H18B        4.7790   -8.4170   -5.4340 hc        1 FST      0.054700
     35 H1B        -0.2390    0.5400   -0.4160 h1        1 FST      0.086367
@<TRIPOS>BOND
     1    1    2 1   
     2    1   19 1   
     3    1   20 1   
     4    1   35 1   
     5    2    3 2   
     6    2    4 1   
     7    4    5 ar  
     8    4    9 ar  
     9    5    6 ar  
    10    5   21 1   
    11    6    7 ar  
    12    6   22 1   
    13    7    8 ar  
    14    7   10 1   
    15    8    9 ar  
    16    8   23 1   
    17    9   24 1   
    18   10   11 1   
    19   11   12 2   
    20   11   13 1   
    21   11   16 1   
    22   13   14 1   
    23   14   15 1   
    24   14   25 1   
    25   14   26 1   
    26   15   27 1   
    27   15   28 1   
    28   15   29 1   
    29   16   17 1   
    30   17   18 1   
    31   17   30 1   
    32   17   31 1   
    33   18   32 1   
    34   18   33 1   
    35   18   34 1   
@<TRIPOS>SUBSTRUCTURE
     1 FST         1 TEMP              0 ****  ****    0 ROOT
