@<TRIPOS>MOLECULE
FST
   35    35     1     0     0
SMALL
bcc


@<TRIPOS>ATOM
      1 C1          5.3450   -0.7300   -0.6900 c3        1 FST     -0.130800
      2 S2          4.5300    0.5750    0.1210 sx        1 FST      0.332400
      3 O3          4.8060    1.7860   -0.7000 o         1 FST     -0.509200
      4 C4          2.8880    0.1660   -0.1720 ca        1 FST     -0.127500
      5 C5          2.3320   -0.9530    0.4540 ca        1 FST     -0.046000
      6 C6          0.9810   -1.2580    0.3150 ca        1 FST     -0.148000
      7 C7          0.1690   -0.4070   -0.4550 ca        1 FST      0.145100
      8 C8          0.7170    0.7060   -1.1160 ca        1 FST     -0.148000
      9 C9          2.0730    0.9810   -0.9630 ca        1 FST     -0.046000
     10 O10        -1.1440   -0.7470   -0.7010 os        1 FST     -0.437500
     11 P11        -2.3540   -0.2860    0.2570 p5        1 FST      1.228200
     12 S12        -2.1780   -0.5230    2.1120 s         1 FST     -0.617000
     13 O13        -2.6400    1.2020   -0.2420 os        1 FST     -0.528700
     14 C14        -2.4940    2.2980    0.6500 c3        1 FST      0.141400
     15 C15        -1.4100    3.2250    0.1510 c3        1 FST     -0.107100
     16 O16        -3.5080   -1.0740   -0.5030 os        1 FST     -0.528700
     17 C17        -4.7990   -0.9350    0.0850 c3        1 FST      0.141400
     18 C18        -5.7440   -1.8590   -0.6410 c3        1 FST     -0.107100
     19 H1          6.4140   -0.7260   -0.3690 h1        1 FST      0.086700
     20 H1A         4.9040   -1.7150   -0.4200 h1        1 FST      0.086700
     21 H5          2.9660   -1.6130    1.0690 ha        1 FST      0.156000
     22 H6          0.5550   -2.1450    0.8080 ha        1 FST      0.161000
     23 H8          0.0830    1.3400   -1.7540 ha        1 FST      0.161000
     24 H9          2.5210    1.8530   -1.4750 ha        1 FST      0.156000
     25 H14        -3.4850    2.8340    0.6520 h1        1 FST      0.067200
     26 H14A       -2.2680    1.9070    1.6860 h1        1 FST      0.067200
     27 H15        -1.3740    4.1270    0.8070 hc        1 FST      0.054700
     28 H15A       -0.4100    2.7260    0.1690 hc        1 FST      0.054700
     29 H15B       -1.6230    3.5430   -0.8980 hc        1 FST      0.054700
     30 H17        -4.7130   -1.2010    1.1760 h1        1 FST      0.067200
     31 H17A       -5.1030    0.1410   -0.0290 h1        1 FST      0.067200
     32 H18        -5.7790   -1.6050   -1.7280 hc        1 FST      0.054700
     33 H18A       -5.4080   -2.9180   -0.5390 hc        1 FST      0.054700
     34 H18B       -6.7660   -1.7520   -0.2040 hc        1 FST      0.054700
     35 H1B         5.3370   -0.6440   -1.8010 h1        1 FST      0.086700
@<TRIPOS>BOND
     1    1    2 1   
     2    1   19 1   
     3    1   20 1   
     4    1   35 1   
     5    2    3 2   
     6    2    4 1   
     7    4    5 ar  
     8    4    9 ar  
     9    5    6 ar  
    10    5   21 1   
    11    6    7 ar  
    12    6   22 1   
    13    7    8 ar  
    14    7   10 1   
    15    8    9 ar  
    16    8   23 1   
    17    9   24 1   
    18   10   11 1   
    19   11   12 2   
    20   11   13 1   
    21   11   16 1   
    22   13   14 1   
    23   14   15 1   
    24   14   25 1   
    25   14   26 1   
    26   15   27 1   
    27   15   28 1   
    28   15   29 1   
    29   16   17 1   
    30   17   18 1   
    31   17   30 1   
    32   17   31 1   
    33   18   32 1   
    34   18   33 1   
    35   18   34 1   
@<TRIPOS>SUBSTRUCTURE
     1 FST         1 TEMP              0 ****  ****    0 ROOT
