@<TRIPOS>MOLECULE
FST
   35    33     1     0     0
SMALL
bcc


@<TRIPOS>ATOM
      1 C1         -4.9740    1.6420    3.7200 c3        1 FST     -0.675000
      2 S2         -3.2890    1.3630    3.7870 s4        1 FST      1.459000
      3 O3         -2.6220    1.4330    5.0050 o         1 FST     -0.781000
      4 C4         -2.4480    0.8710    2.3790 c2        1 FST     -0.557000
      5 C5         -1.9050    1.8350    1.5180 c2        1 FST     -0.052000
      6 C6         -1.1740    1.4460    0.4120 c1        1 FST     -0.146000
      7 C7         -0.9710    0.0820    0.1470 c1        1 FST      0.106000
      8 C8         -1.5120   -0.8860    1.0050 c1        1 FST     -0.147000
      9 C9         -2.2500   -0.4900    2.1210 c1        1 FST     -0.041000
     10 O10        -0.3340   -0.3240   -1.0890 os        1 FST     -0.651000
     11 P11         1.2930   -0.3460   -1.1620 p5        1 FST      2.496000
     12 S12         2.0040    1.1820   -0.2440 s         1 FST     -1.169000
     13 O13         1.8300   -1.6740   -0.4790 os        1 FST     -0.691500
     14 C14         3.1990   -1.8730   -0.3850 c3        1 FST     -0.004500
     15 C15         3.4860   -3.3600    0.0950 c3        1 FST     -0.214000
     16 O16         1.7470   -0.3130   -2.6560 os        1 FST     -0.691500
     17 C17         1.6630    0.9390   -3.3870 c3        1 FST     -0.004500
     18 C18         1.9610    0.6820   -4.8570 c3        1 FST     -0.214000
     19 H1         -5.1470    2.6230    3.5990 h1        1 FST      0.125667
     20 H1A        -5.4050    1.3260    4.5890 h1        1 FST      0.125667
     21 H5         -2.0460    2.8010    1.7020 ha        1 FST      0.138000
     22 H6         -0.7840    2.1480   -0.2070 ha        1 FST      0.165000
     23 H8         -1.3690   -1.8600    0.8170 ha        1 FST      0.159000
     24 H9         -2.6560   -1.2080    2.7620 ha        1 FST      0.173000
     25 H14         3.5910   -1.2210    0.2810 h1        1 FST      0.100000
     26 H14A        3.5990   -1.7330   -1.2390 h1        1 FST      0.100000
     27 H15         3.2200   -3.4570    1.0860 hc        1 FST      0.093833
     28 H15A        2.9580   -3.9860   -0.4460 hc        1 FST      0.093833
     29 H15B        4.4980   -3.5720   -0.0140 hc        1 FST      0.093833
     30 H17         2.3580    1.6120   -3.0070 h1        1 FST      0.100000
     31 H17A        0.7700    1.3100   -3.2980 h1        1 FST      0.100000
     32 H18         2.9080    0.4950   -4.9660 hc        1 FST      0.093833
     33 H18A        1.4390   -0.0860   -5.1670 hc        1 FST      0.093833
     34 H18B        1.7250    1.4610   -5.3740 hc        1 FST      0.093833
     35 H1B        -5.3620    1.1370    2.9530 h1        1 FST      0.125667
@<TRIPOS>BOND
     1    1    2 1   
     2    1   19 1   
     3    1   20 1   
     4    1   35 1   
     5    2    3 1   
     6    2    4 1   
     7    4    5 1   
     8    4    9 1   
     9    5    6 1   
    10    5   21 1   
    11    6   22 1   
    12    7    8 1   
    13    7   10 1   
    14    8   23 1   
    15    9   24 1   
    16   10   11 1   
    17   11   12 1   
    18   11   13 1   
    19   11   16 1   
    20   13   14 1   
    21   14   15 1   
    22   14   25 1   
    23   14   26 1   
    24   15   27 1   
    25   15   28 1   
    26   15   29 1   
    27   16   17 1   
    28   17   18 1   
    29   17   30 1   
    30   17   31 1   
    31   18   32 1   
    32   18   33 1   
    33   18   34 1   
@<TRIPOS>SUBSTRUCTURE
     1 FST         1 TEMP              0 ****  ****    0 ROOT
