@<TRIPOS>MOLECULE
FST
   35    35     1     0     0
SMALL
bcc


@<TRIPOS>ATOM
      1 C1          0.2230   -0.2050   -0.0190 c3        1 FST     -0.130800
      2 S2          1.8360   -0.3870    0.6060 sx        1 FST      0.332400
      3 O3          1.6670   -0.7090    2.0510 o         1 FST     -0.509200
      4 C4          2.3190   -1.8490   -0.1540 ca        1 FST     -0.127500
      5 C5          2.5430   -1.8700   -1.5330 ca        1 FST     -0.046000
      6 C6          3.0260   -3.0110   -2.1670 ca        1 FST     -0.148000
      7 C7          3.3090   -4.1490   -1.3910 ca        1 FST      0.145100
      8 C8          3.0620   -4.1560   -0.0080 ca        1 FST     -0.148000
      9 C9          2.5720   -3.0010    0.5950 ca        1 FST     -0.046000
     10 O10         3.6800   -5.3250   -2.0070 os        1 FST     -0.437500
     11 P11         5.2190   -5.7030   -2.3010 p5        1 FST      1.228200
     12 S12         6.3270   -4.4150   -3.1030 s         1 FST     -0.617000
     13 O13         5.7060   -6.2780   -0.8950 os        1 FST     -0.528700
     14 C14         6.7650   -5.6450   -0.1900 c3        1 FST      0.141400
     15 C15         6.2600   -5.1250    1.1360 c3        1 FST     -0.107100
     16 O16         4.9350   -7.0560   -3.0860 os        1 FST     -0.528700
     17 C17         6.1050   -7.7160   -3.5610 c3        1 FST      0.141400
     18 C18         5.6710   -8.8810   -4.4150 c3        1 FST     -0.107100
     19 H1         -0.5180   -0.8980    0.4410 h1        1 FST      0.086700
     20 H1A         0.1960   -0.3580   -1.1210 h1        1 FST      0.086700
     21 H5          2.3330   -0.9730   -2.1390 ha        1 FST      0.156000
     22 H6          3.1930   -3.0180   -3.2550 ha        1 FST      0.161000
     23 H8          3.2430   -5.0660    0.5830 ha        1 FST      0.161000
     24 H9          2.3730   -2.9880    1.6830 ha        1 FST      0.156000
     25 H14         7.1960   -4.8200   -0.8290 h1        1 FST      0.067200
     26 H14A        7.5440   -6.4410   -0.0170 h1        1 FST      0.067200
     27 H15         5.5070   -4.3120    0.9920 hc        1 FST      0.054700
     28 H15A        5.7790   -5.9470    1.7190 hc        1 FST      0.054700
     29 H15B        7.1220   -4.7200    1.7180 hc        1 FST      0.054700
     30 H17         6.6840   -8.0560   -2.6600 h1        1 FST      0.067200
     31 H17A        6.7090   -6.9690   -4.1510 h1        1 FST      0.067200
     32 H18         5.0390   -9.5830   -3.8210 hc        1 FST      0.054700
     33 H18A        5.0750   -8.5220   -5.2870 hc        1 FST      0.054700
     34 H18B        6.5770   -9.4190   -4.7830 hc        1 FST      0.054700
     35 H1B        -0.1200    0.8340    0.1980 h1        1 FST      0.086700
@<TRIPOS>BOND
     1    1    2 1   
     2    1   19 1   
     3    1   20 1   
     4    1   35 1   
     5    2    3 2   
     6    2    4 1   
     7    4    5 ar  
     8    4    9 ar  
     9    5    6 ar  
    10    5   21 1   
    11    6    7 ar  
    12    6   22 1   
    13    7    8 ar  
    14    7   10 1   
    15    8    9 ar  
    16    8   23 1   
    17    9   24 1   
    18   10   11 1   
    19   11   12 2   
    20   11   13 1   
    21   11   16 1   
    22   13   14 1   
    23   14   15 1   
    24   14   25 1   
    25   14   26 1   
    26   15   27 1   
    27   15   28 1   
    28   15   29 1   
    29   16   17 1   
    30   17   18 1   
    31   17   30 1   
    32   17   31 1   
    33   18   32 1   
    34   18   33 1   
    35   18   34 1   
@<TRIPOS>SUBSTRUCTURE
     1 FST         1 TEMP              0 ****  ****    0 ROOT
