@<TRIPOS>MOLECULE
FSU
   35    36     1     0     0
SMALL
bcc


@<TRIPOS>ATOM
      1 C1         -0.2850   -0.0410    0.1430 c         1 FSU      0.710100
      2 N2          1.0960   -0.1130    0.1010 n         1 FSU     -0.427800
      3 C3         -0.7000    0.1710    1.5780 ca        1 FSU     -0.120600
      4 C4          0.4950    0.2720    2.3370 ca        1 FSU     -0.080300
      5 C5         -1.9340    0.3030    2.2170 ca        1 FSU     -0.137600
      6 C6          1.6850    0.1200    1.4200 c3        1 FSU      0.113300
      7 C7         -3.2640    0.2620    1.5990 c         1 FSU      0.568700
      8 O8         -1.0420   -0.1790   -0.8420 o         1 FSU     -0.701500
      9 O9         -4.3180    0.6470    2.0910 o         1 FSU     -0.423100
     10 N10        -3.4100   -0.3300    0.2280 nz        1 FSU     -0.749400
     11 C11         1.8880   -0.0970   -1.1010 c3        1 FSU      0.093000
     12 C12         0.4810    0.4840    3.7070 ca        1 FSU     -0.045000
     13 C13        -1.9430    0.5300    3.6120 ca        1 FSU     -0.059000
     14 C14         2.4160    1.2790   -1.5040 c3        1 FSU     -0.112400
     15 C15        -0.7590    0.6120    4.3410 ca        1 FSU     -0.099000
     16 O16         3.7200    2.4560   -3.0650 os        1 FSU     -0.421600
     17 C17         3.2460    1.1470   -2.7700 c3        1 FSU      0.132400
     18 C18         4.5210    2.4960   -4.2370 c3        1 FSU      0.113700
     19 H61         2.3210   -0.7620    1.7120 h1        1 FSU      0.098700
     20 HN10       -3.0240    0.3270   -0.4750 hn        1 FSU      0.480467
     21 HN1A       -4.3970   -0.5150    0.0200 hn        1 FSU      0.480467
     22 H11         1.2480   -0.5080   -1.9340 h1        1 FSU      0.078700
     23 H11A        2.7590   -0.7960   -0.9370 h1        1 FSU      0.078700
     24 H12         1.4190    0.5550    4.2830 ha        1 FSU      0.176000
     25 H13        -2.9120    0.6490    4.1320 ha        1 FSU      0.178000
     26 H14         3.0520    1.7190   -0.6920 hc        1 FSU      0.065200
     27 H14A        1.5700    1.9910   -1.6910 hc        1 FSU      0.065200
     28 H15        -0.8030    0.7880    5.4300 ha        1 FSU      0.177000
     29 H17         2.6230    0.7660   -3.6230 h1        1 FSU      0.033200
     30 H17A        4.1150    0.4540   -2.6130 h1        1 FSU      0.033200
     31 H18         5.4260    1.8520   -4.1160 h1        1 FSU      0.041700
     32 H18A        4.8130    3.5720   -4.3330 h1        1 FSU      0.041700
     33 H18B        3.9310    2.1670   -5.1270 h1        1 FSU      0.041700
     34 H62         2.3220    1.0480    1.4180 h1        1 FSU      0.098700
     35 H103       -2.8590   -1.1940    0.1480 hn        1 FSU      0.480467
@<TRIPOS>BOND
     1    1    2 1   
     2    1    3 1   
     3    1    8 2   
     4    2    6 1   
     5    2   11 1   
     6    3    4 ar  
     7    3    5 ar  
     8    4    6 1   
     9    4   12 ar  
    10    5    7 1   
    11    5   13 ar  
    12    6   19 1   
    13    6   34 1   
    14    7    9 2   
    15    7   10 1   
    16   10   20 1   
    17   10   21 1   
    18   10   35 1   
    19   11   14 1   
    20   11   22 1   
    21   11   23 1   
    22   12   15 ar  
    23   12   24 1   
    24   13   15 ar  
    25   13   25 1   
    26   14   17 1   
    27   14   26 1   
    28   14   27 1   
    29   15   28 1   
    30   16   17 1   
    31   16   18 1   
    32   17   29 1   
    33   17   30 1   
    34   18   31 1   
    35   18   32 1   
    36   18   33 1   
@<TRIPOS>SUBSTRUCTURE
     1 FSU         1 TEMP              0 ****  ****    0 ROOT
