@<TRIPOS>MOLECULE
FSU
   35    36     1     0     0
SMALL
bcc


@<TRIPOS>ATOM
      1 C1         -0.2710   -0.0590    0.1600 c         1 FSU      0.710100
      2 N2          1.1120   -0.1020    0.1240 n         1 FSU     -0.427800
      3 C3         -0.6960    0.1860    1.5870 ca        1 FSU     -0.120600
      4 C4          0.4940    0.3350    2.3460 ca        1 FSU     -0.080300
      5 C5         -1.9330    0.3110    2.2180 ca        1 FSU     -0.137600
      6 C6          1.6900    0.1810    1.4370 c3        1 FSU      0.113300
      7 C7         -3.2600    0.2240    1.5980 c         1 FSU      0.568700
      8 O8         -1.0210   -0.2420   -0.8230 o         1 FSU     -0.701500
      9 O9         -4.3240    0.6010    2.0760 o         1 FSU     -0.423100
     10 N10        -3.3900   -0.4120    0.2450 n4        1 FSU     -0.749400
     11 C11         1.9070   -0.1040   -1.0750 c3        1 FSU      0.093000
     12 C12         0.4710    0.5870    3.7090 ca        1 FSU     -0.045000
     13 C13        -1.9530    0.5780    3.6070 ca        1 FSU     -0.059000
     14 C14         2.4070    1.2700   -1.5170 c3        1 FSU     -0.112400
     15 C15        -0.7730    0.7070    4.3360 ca        1 FSU     -0.099000
     16 O16         3.6910    2.4280   -3.1100 os        1 FSU     -0.421600
     17 C17         3.2440    1.1180   -2.7770 c3        1 FSU      0.132400
     18 C18         4.4950    2.4500   -4.2790 c3        1 FSU      0.113700
     19 H61         2.3440   -0.6780    1.7570 h1        1 FSU      0.098700
     20 HN10       -2.8200   -1.2660    0.1920 hn        1 FSU      0.480467
     21 HN1A       -3.0150    0.2320   -0.4760 hn        1 FSU      0.480467
     22 H11         1.2790   -0.5540   -1.8990 h1        1 FSU      0.078700
     23 H11A        2.7920   -0.7800   -0.8880 h1        1 FSU      0.078700
     24 H12         1.4050    0.6940    4.2850 ha        1 FSU      0.176000
     25 H13        -2.9260    0.6920    4.1190 ha        1 FSU      0.178000
     26 H14         3.0300    1.7470   -0.7170 hc        1 FSU      0.065200
     27 H14A        1.5470    1.9570   -1.7280 hc        1 FSU      0.065200
     28 H15        -0.8250    0.9130    5.4190 ha        1 FSU      0.177000
     29 H17         4.1280    0.4490   -2.5960 h1        1 FSU      0.033200
     30 H17A        2.6330    0.6980   -3.6200 h1        1 FSU      0.033200
     31 H18         4.7630    3.5290   -4.4070 h1        1 FSU      0.041700
     32 H18A        3.9170    2.0810   -5.1610 h1        1 FSU      0.041700
     33 H18B        5.4140    1.8310   -4.1360 h1        1 FSU      0.041700
     34 H62         2.3080    1.1230    1.4100 h1        1 FSU      0.098700
     35 H103       -4.3720   -0.6230    0.0390 hn        1 FSU      0.480467
@<TRIPOS>BOND
     1    1    2 1   
     2    1    3 1   
     3    1    8 2   
     4    2    6 1   
     5    2   11 1   
     6    3    4 ar  
     7    3    5 ar  
     8    4    6 1   
     9    4   12 ar  
    10    5    7 1   
    11    5   13 ar  
    12    6   19 1   
    13    6   34 1   
    14    7    9 2   
    15    7   10 1   
    16   10   20 1   
    17   10   21 1   
    18   10   35 1   
    19   11   14 1   
    20   11   22 1   
    21   11   23 1   
    22   12   15 ar  
    23   12   24 1   
    24   13   15 ar  
    25   13   25 1   
    26   14   17 1   
    27   14   26 1   
    28   14   27 1   
    29   15   28 1   
    30   16   17 1   
    31   16   18 1   
    32   17   29 1   
    33   17   30 1   
    34   18   31 1   
    35   18   32 1   
    36   18   33 1   
@<TRIPOS>SUBSTRUCTURE
     1 FSU         1 TEMP              0 ****  ****    0 ROOT
