@<TRIPOS>MOLECULE
FSV
   29    30     1     0     0
SMALL
bcc


@<TRIPOS>ATOM
      1 O01        -0.0490   -0.1410    0.1170 oh        1 FSV     -0.495600
      2 C02         1.3210   -0.1240   -0.0000 ca        1 FSV      0.160600
      3 C03         2.0440    0.0180    1.1950 ca        1 FSV     -0.210500
      4 C04         3.4440    0.0360    1.1550 ca        1 FSV      0.014200
      5 C05         4.1730    0.1850    2.4050 ce        1 FSV     -0.108200
      6 C06         5.4380   -0.2250    2.5990 cf        1 FSV     -0.095200
      7 C07         6.1710   -0.0850    3.8450 ca        1 FSV     -0.069800
      8 C08         5.5220    0.1080    5.0750 ca        1 FSV     -0.095000
      9 C09         6.2420    0.2380    6.2560 ca        1 FSV     -0.139000
     10 C10         7.6410    0.1750    6.2260 ca        1 FSV      0.103100
     11 O11         8.3070    0.3110    7.4190 oh        1 FSV     -0.487100
     12 C12         8.3100   -0.0250    4.9950 ca        1 FSV      0.035900
     13 F13         9.6660   -0.0870    4.9750 f         1 FSV     -0.145900
     14 C14         7.5710   -0.1570    3.8120 ca        1 FSV     -0.113000
     15 C15         4.1090   -0.0740   -0.0740 ca        1 FSV     -0.210500
     16 C16         3.3660   -0.2110   -1.2540 ca        1 FSV      0.160600
     17 O17         3.9590   -0.3220   -2.4900 oh        1 FSV     -0.495600
     18 C18         1.9640   -0.2400   -1.2380 ca        1 FSV     -0.242000
     19 H1         -0.4240   -0.2430   -0.7700 ho        1 FSV      0.422500
     20 H2          1.5020    0.1080    2.1460 ha        1 FSV      0.145000
     21 H3          3.6000    0.6640    3.2190 ha        1 FSV      0.133000
     22 H4          6.0040   -0.7060    1.7800 ha        1 FSV      0.129000
     23 H5          4.4220    0.1500    5.1120 ha        1 FSV      0.142000
     24 H6          5.7330    0.3890    7.2200 ha        1 FSV      0.158000
     25 H7          9.2580    0.2440    7.2400 ho        1 FSV      0.432000
     26 H8          8.1020   -0.3140    2.8610 ha        1 FSV      0.150000
     27 H9          5.2060   -0.0430   -0.1180 ha        1 FSV      0.145000
     28 H10         4.9190   -0.2800   -2.3660 ho        1 FSV      0.422500
     29 H11         1.4030   -0.3500   -2.1750 ha        1 FSV      0.154000
@<TRIPOS>BOND
     1    1    2 1   
     2    1   19 1   
     3    2    3 ar  
     4    2   18 ar  
     5    3    4 ar  
     6    3   20 1   
     7    4    5 1   
     8    4   15 ar  
     9    5    6 2   
    10    5   21 1   
    11    6    7 1   
    12    6   22 1   
    13    7    8 ar  
    14    7   14 ar  
    15    8    9 ar  
    16    8   23 1   
    17    9   10 ar  
    18    9   24 1   
    19   10   11 1   
    20   10   12 ar  
    21   11   25 1   
    22   12   13 1   
    23   12   14 ar  
    24   14   26 1   
    25   15   16 ar  
    26   15   27 1   
    27   16   17 1   
    28   16   18 ar  
    29   17   28 1   
    30   18   29 1   
@<TRIPOS>SUBSTRUCTURE
     1 FSV         1 TEMP              0 ****  ****    0 ROOT
