@<TRIPOS>MOLECULE
FSV
   29    30     1     0     0
SMALL
bcc


@<TRIPOS>ATOM
      1 O01        -0.0520   -0.0910    0.1880 oh        1 FSV     -0.495600
      2 C02         1.3150   -0.1000    0.0440 ca        1 FSV      0.160600
      3 C03         2.0640    0.0440    1.2220 ca        1 FSV     -0.210500
      4 C04         3.4630    0.0380    1.1550 ca        1 FSV      0.014200
      5 C05         4.2200    0.1890    2.3890 ce        1 FSV     -0.109200
      6 C06         5.4810   -0.2390    2.5620 cf        1 FSV     -0.094200
      7 C07         6.2410   -0.0960    3.7930 ca        1 FSV     -0.066800
      8 C08         5.6220    0.1250    5.0300 ca        1 FSV     -0.092000
      9 C09         6.3760    0.2550    6.1920 ca        1 FSV     -0.192000
     10 C10         7.7700    0.1660    6.1350 ca        1 FSV      0.097100
     11 O11         8.5810    0.2860    7.2370 oh        1 FSV     -0.480100
     12 C12         8.4150   -0.0630    4.8930 ca        1 FSV      0.102900
     13 F13         9.7620   -0.1540    4.8270 f         1 FSV     -0.124900
     14 C14         7.6400   -0.1950    3.7320 ca        1 FSV     -0.126000
     15 C15         4.1020   -0.1000   -0.0850 ca        1 FSV     -0.210500
     16 C16         3.3330   -0.2380   -1.2480 ca        1 FSV      0.160600
     17 O17         3.9000   -0.3760   -2.4940 oh        1 FSV     -0.495600
     18 C18         1.9320   -0.2430   -1.2040 ca        1 FSV     -0.242000
     19 H1         -0.4470   -0.1970   -0.6900 ho        1 FSV      0.422500
     20 H2          1.5430    0.1560    2.1830 ha        1 FSV      0.145000
     21 H3          3.6710    0.6880    3.2070 ha        1 FSV      0.132000
     22 H4          6.0230   -0.7400    1.7390 ha        1 FSV      0.129000
     23 H5          4.5250    0.1890    5.0930 ha        1 FSV      0.141000
     24 H6          5.8780    0.4270    7.1580 ha        1 FSV      0.141000
     25 H7          8.0130    0.4360    8.0080 ho        1 FSV      0.423000
     26 H8          8.1450   -0.3750    2.7710 ha        1 FSV      0.151000
     27 H9          5.1980   -0.0890   -0.1510 ha        1 FSV      0.145000
     28 H10         4.8620   -0.3490   -2.3900 ho        1 FSV      0.422500
     29 H11         1.3500   -0.3540   -2.1290 ha        1 FSV      0.154000
@<TRIPOS>BOND
     1    1    2 1   
     2    1   19 1   
     3    2    3 ar  
     4    2   18 ar  
     5    3    4 ar  
     6    3   20 1   
     7    4    5 1   
     8    4   15 ar  
     9    5    6 2   
    10    5   21 1   
    11    6    7 1   
    12    6   22 1   
    13    7    8 ar  
    14    7   14 ar  
    15    8    9 ar  
    16    8   23 1   
    17    9   10 ar  
    18    9   24 1   
    19   10   11 1   
    20   10   12 ar  
    21   11   25 1   
    22   12   13 1   
    23   12   14 ar  
    24   14   26 1   
    25   15   16 ar  
    26   15   27 1   
    27   16   17 1   
    28   16   18 ar  
    29   17   28 1   
    30   18   29 1   
@<TRIPOS>SUBSTRUCTURE
     1 FSV         1 TEMP              0 ****  ****    0 ROOT
