@<TRIPOS>MOLECULE
FT0
   26    27     1     0     0
SMALL
bcc


@<TRIPOS>ATOM
      1 C1         -0.1120   -0.4900    0.3460 ca        1 FT0      0.050100
      2 C2          1.2580   -0.2280    0.1230 ca        1 FT0      0.108100
      3 C3          2.0730    0.1590    1.1950 ca        1 FT0     -0.105000
      4 C4          1.5170    0.2870    2.4710 ca        1 FT0     -0.179600
      5 C5          0.1560    0.0290    2.6820 ca        1 FT0     -0.087000
      6 C6         -0.6610   -0.3600    1.6250 ca        1 FT0     -0.144000
      7 O7         -0.8190   -0.9700   -0.7510 os        1 FT0     -0.263200
      8 C8         -2.1230   -0.4980   -0.9070 ca        1 FT0      0.099100
      9 C9         -2.5160    0.7960   -0.5500 ca        1 FT0     -0.155000
     10 C10        -3.8180    1.2050   -0.8330 ca        1 FT0     -0.106000
     11 C11        -4.7090    0.3360   -1.4630 ca        1 FT0     -0.145000
     12 C12        -4.3030   -0.9530   -1.8130 ca        1 FT0     -0.106000
     13 C13        -3.0090   -1.3860   -1.5360 ca        1 FT0     -0.155000
     14 C14         2.3790    0.6970    3.5940 c         1 FT0      0.576500
     15 O15         1.9680    0.8570    4.7450 o         1 FT0     -0.525100
     16 O16         1.8530   -0.3530   -1.1080 oh        1 FT0     -0.491100
     17 H3          3.1400    0.3570    1.0120 ha        1 FT0      0.157000
     18 H5         -0.2590    0.1350    3.6980 ha        1 FT0      0.160000
     19 H6         -1.7310   -0.5630    1.7810 ha        1 FT0      0.156000
     20 H9         -1.8070    1.4730   -0.0520 ha        1 FT0      0.150500
     21 H10        -4.1400    2.2200   -0.5580 ha        1 FT0      0.138000
     22 H11        -5.7350    0.6670   -1.6840 ha        1 FT0      0.137000
     23 H12        -5.0090   -1.6360   -2.3090 ha        1 FT0      0.138000
     24 H13        -2.6730   -2.3970   -1.8060 ha        1 FT0      0.150500
     25 H14         3.4500    0.8570    3.3320 h4        1 FT0      0.002200
     26 HO16        1.1640   -0.5860   -1.7510 ho        1 FT0      0.439000
@<TRIPOS>BOND
     1    1    2 ar  
     2    1    6 ar  
     3    1    7 1   
     4    2    3 ar  
     5    2   16 1   
     6    3    4 ar  
     7    3   17 1   
     8    4    5 ar  
     9    4   14 1   
    10    5    6 ar  
    11    5   18 1   
    12    6   19 1   
    13    7    8 1   
    14    8    9 ar  
    15    8   13 ar  
    16    9   10 ar  
    17    9   20 1   
    18   10   11 ar  
    19   10   21 1   
    20   11   12 ar  
    21   11   22 1   
    22   12   13 ar  
    23   12   23 1   
    24   13   24 1   
    25   14   15 2   
    26   14   25 1   
    27   16   26 1   
@<TRIPOS>SUBSTRUCTURE
     1 FT0         1 TEMP              0 ****  ****    0 ROOT
