@<TRIPOS>MOLECULE
FT0
   26    27     1     0     0
SMALL
bcc


@<TRIPOS>ATOM
      1 C1         -0.1070   -0.4820    0.3410 ca        1 FT0      0.050100
      2 C2          1.2600   -0.2030    0.1280 ca        1 FT0      0.108100
      3 C3          2.0680    0.1710    1.2100 ca        1 FT0     -0.106000
      4 C4          1.5060    0.2690    2.4860 ca        1 FT0     -0.179600
      5 C5          0.1470   -0.0060    2.6870 ca        1 FT0     -0.087000
      6 C6         -0.6620   -0.3830    1.6190 ca        1 FT0     -0.144000
      7 O7         -0.8060   -0.9480   -0.7680 os        1 FT0     -0.263200
      8 C8         -2.1130   -0.4850   -0.9210 ca        1 FT0      0.099100
      9 C9         -2.5200    0.7980   -0.5400 ca        1 FT0     -0.155000
     10 C10        -3.8250    1.2010   -0.8200 ca        1 FT0     -0.106000
     11 C11        -4.7050    0.3370   -1.4710 ca        1 FT0     -0.145000
     12 C12        -4.2860   -0.9410   -1.8450 ca        1 FT0     -0.106000
     13 C13        -2.9890   -1.3680   -1.5700 ca        1 FT0     -0.155000
     14 C14         2.3600    0.6660    3.6190 c         1 FT0      0.576500
     15 O15         1.9440    0.7990    4.7720 o         1 FT0     -0.525100
     16 O16         1.8610   -0.2980   -1.1030 oh        1 FT0     -0.491100
     17 H3          3.1340    0.3830    1.0340 ha        1 FT0      0.157000
     18 H5         -0.2720    0.0760    3.7030 ha        1 FT0      0.160000
     19 H6         -1.7310   -0.5990    1.7680 ha        1 FT0      0.156000
     20 H9         -1.8190    1.4720   -0.0260 ha        1 FT0      0.150500
     21 H10        -4.1570    2.2080   -0.5270 ha        1 FT0      0.138000
     22 H11        -5.7330    0.6630   -1.6890 ha        1 FT0      0.137000
     23 H12        -4.9840   -1.6200   -2.3570 ha        1 FT0      0.138000
     24 H13        -2.6430   -2.3700   -1.8590 ha        1 FT0      0.150500
     25 H14         3.4310    0.8410    3.3650 h4        1 FT0      0.002200
     26 HO16        1.1770   -0.5250   -1.7540 ho        1 FT0      0.439000
@<TRIPOS>BOND
     1    1    2 ar  
     2    1    6 ar  
     3    1    7 1   
     4    2    3 ar  
     5    2   16 1   
     6    3    4 ar  
     7    3   17 1   
     8    4    5 ar  
     9    4   14 1   
    10    5    6 ar  
    11    5   18 1   
    12    6   19 1   
    13    7    8 1   
    14    8    9 ar  
    15    8   13 ar  
    16    9   10 ar  
    17    9   20 1   
    18   10   11 ar  
    19   10   21 1   
    20   11   12 ar  
    21   11   22 1   
    22   12   13 ar  
    23   12   23 1   
    24   13   24 1   
    25   14   15 2   
    26   14   25 1   
    27   16   26 1   
@<TRIPOS>SUBSTRUCTURE
     1 FT0         1 TEMP              0 ****  ****    0 ROOT
