@<TRIPOS>MOLECULE
FT0
   26    27     1     0     0
SMALL
bcc


@<TRIPOS>ATOM
      1 C1         -0.3720   -0.4050    0.4880 ca        1 FT0      0.050100
      2 C2         -1.3470   -1.3800    0.1860 ca        1 FT0      0.108100
      3 C3         -2.6360   -0.9780   -0.1910 ca        1 FT0     -0.106000
      4 C4         -2.9350    0.3860   -0.2690 ca        1 FT0     -0.179600
      5 C5         -1.9600    1.3460    0.0290 ca        1 FT0     -0.087000
      6 C6         -0.6780    0.9560    0.4090 ca        1 FT0     -0.144000
      7 O7          0.8440   -0.8940    0.9540 os        1 FT0     -0.263200
      8 C8          1.9920   -0.2380    0.5100 ca        1 FT0      0.099100
      9 C9          3.0760   -0.2600    1.4010 ca        1 FT0     -0.155000
     10 C10         4.2880    0.2910    0.9920 ca        1 FT0     -0.106000
     11 C11         4.4140    0.8620   -0.2760 ca        1 FT0     -0.145000
     12 C12         3.3260    0.8810   -1.1480 ca        1 FT0     -0.106000
     13 C13         2.1040    0.3300   -0.7630 ca        1 FT0     -0.155000
     14 C14        -4.2910    0.8030   -0.6680 c         1 FT0      0.576500
     15 O15        -4.6350    1.9810   -0.7840 o         1 FT0     -0.525100
     16 O16        -1.1050   -2.7290    0.2600 oh        1 FT0     -0.491100
     17 H3         -3.3900   -1.7440   -0.4210 ha        1 FT0      0.157000
     18 H5         -2.2200    2.4150   -0.0370 ha        1 FT0      0.160000
     19 H6          0.0950    1.7040    0.6430 ha        1 FT0      0.156000
     20 H9          2.9600   -0.7140    2.3950 ha        1 FT0      0.150500
     21 H10         5.1490    0.2780    1.6770 ha        1 FT0      0.138000
     22 H11         5.3750    1.2970   -0.5880 ha        1 FT0      0.137000
     23 H12         3.4280    1.3310   -2.1470 ha        1 FT0      0.138000
     24 H13         1.2400    0.3430   -1.4430 ha        1 FT0      0.150500
     25 H14        -5.0030   -0.0320   -0.8630 h4        1 FT0      0.002200
     26 HO16       -0.1710   -2.8540    0.4920 ho        1 FT0      0.439000
@<TRIPOS>BOND
     1    1    2 ar  
     2    1    6 ar  
     3    1    7 1   
     4    2    3 ar  
     5    2   16 1   
     6    3    4 ar  
     7    3   17 1   
     8    4    5 ar  
     9    4   14 1   
    10    5    6 ar  
    11    5   18 1   
    12    6   19 1   
    13    7    8 1   
    14    8    9 ar  
    15    8   13 ar  
    16    9   10 ar  
    17    9   20 1   
    18   10   11 ar  
    19   10   21 1   
    20   11   12 ar  
    21   11   22 1   
    22   12   13 ar  
    23   12   23 1   
    24   13   24 1   
    25   14   15 2   
    26   14   25 1   
    27   16   26 1   
@<TRIPOS>SUBSTRUCTURE
     1 FT0         1 TEMP              0 ****  ****    0 ROOT
