@<TRIPOS>MOLECULE
FT0
   26    22     1     0     0
SMALL
bcc


@<TRIPOS>ATOM
      1 C1          0.2740    1.0480   -0.0990 c1        1 FT0      0.069000
      2 C2          1.6580    1.1240   -0.1270 c1        1 FT0      0.055000
      3 C3          2.3750    1.1430    1.0590 c1        1 FT0     -0.139000
      4 C4          1.7090    1.0860    2.2730 c1        1 FT0     -0.160000
      5 C5          0.3250    1.0100    2.3010 c1        1 FT0     -0.096000
      6 C6         -0.3920    0.9900    1.1160 c1        1 FT0     -0.163000
      7 O7         -0.4560    1.0890   -1.2990 os        1 FT0     -0.134000
      8 C8         -1.1310   -0.1310   -1.4780 c2        1 FT0      0.052000
      9 C9         -0.4340   -1.2530   -1.8970 c2        1 FT0     -0.170000
     10 C10        -1.1120   -2.4350   -2.1520 c1        1 FT0     -0.108000
     11 C11        -2.4870   -2.4950   -1.9890 c1        1 FT0     -0.128000
     12 C12        -3.1840   -1.3730   -1.5700 c1        1 FT0     -0.128000
     13 C13        -2.5070   -0.1910   -1.3150 c1        1 FT0     -0.136000
     14 C14         2.4950    1.0490    3.5660 c2        1 FT0      0.225000
     15 O15         3.7110    1.0700    3.5390 o         1 FT0     -0.288000
     16 O16         2.3320    1.2180   -1.3580 oh        1 FT0     -0.226000
     17 H3          3.3490    1.1970    1.0390 ha        1 FT0      0.160000
     18 H5         -0.1440    0.9690    3.1560 ha        1 FT0      0.140000
     19 H6         -1.3670    0.9370    1.1360 ha        1 FT0      0.156000
     20 H9          0.5340   -1.2110   -2.0120 ha        1 FT0      0.147000
     21 H10        -0.6200   -3.2260   -2.4470 ha        1 FT0      0.136000
     22 H11        -2.9640   -3.3280   -2.1690 ha        1 FT0      0.136000
     23 H12        -4.1530   -1.4160   -1.4560 ha        1 FT0      0.136000
     24 H13        -2.9980    0.5990   -1.0200 ha        1 FT0      0.153000
     25 H14         2.0250    1.0270    4.4230 h4        1 FT0      0.094000
     26 HO16        3.1630    1.5040   -1.2210 ho        1 FT0      0.220000
@<TRIPOS>BOND
     1    1    6 1   
     2    1    7 1   
     3    2    3 1   
     4    2   16 1   
     5    3   17 1   
     6    4    5 1   
     7    4   14 1   
     8    5   18 1   
     9    6   19 1   
    10    7    8 1   
    11    8    9 1   
    12    8   13 1   
    13    9   10 1   
    14    9   20 1   
    15   10   21 1   
    16   11   12 1   
    17   11   22 1   
    18   12   23 1   
    19   13   24 1   
    20   14   15 1   
    21   14   25 1   
    22   16   26 1   
@<TRIPOS>SUBSTRUCTURE
     1 FT0         1 TEMP              0 ****  ****    0 ROOT
