@<TRIPOS>MOLECULE
FT1
   26    27     1     0     0
SMALL
bcc


@<TRIPOS>ATOM
      1 C1          1.4220   -0.4890    0.4150 ca        1 FT1      0.041100
      2 C2          2.3680   -0.5860    1.4580 ca        1 FT1      0.114100
      3 C3          3.6930   -0.1870    1.2290 ca        1 FT1     -0.106000
      4 C4          4.0550    0.3070   -0.0270 ca        1 FT1     -0.175600
      5 C5          3.1080    0.4000   -1.0550 ca        1 FT1     -0.087000
      6 C6          1.7910    0.0020   -0.8400 ca        1 FT1     -0.140000
      7 O7          0.1600   -1.0050    0.6990 os        1 FT1     -0.249200
      8 C8         -0.9240   -0.2920    0.1930 ca        1 FT1      0.106100
      9 C9         -2.0560   -1.0290   -0.2030 ca        1 FT1      0.011400
     10 C10        -3.2030   -0.3440   -0.6180 ca        1 FT1     -0.104000
     11 C11        -3.2090    1.0520   -0.6460 ca        1 FT1      0.007400
     12 C12        -2.0790    1.7820   -0.2600 ca        1 FT1     -0.100000
     13 C13        -0.9370    1.1080    0.1610 ca        1 FT1     -0.154000
     14 C14         5.4480    0.7280   -0.2600 c         1 FT1      0.576500
     15 O15         5.8460    1.2030   -1.3250 o         1 FT1     -0.522100
     16 CL1        -4.6050    1.8720   -1.1580 cl        1 FT1     -0.076400
     17 CL9        -2.0790   -2.7240   -0.1840 cl        1 FT1     -0.054400
     18 O18         2.0650   -1.0730    2.7050 oh        1 FT1     -0.489100
     19 H3          4.4250   -0.2700    2.0470 ha        1 FT1      0.158000
     20 H5          3.4190    0.7890   -2.0380 ha        1 FT1      0.162000
     21 H6          1.0420    0.0700   -1.6420 ha        1 FT1      0.155000
     22 H10        -4.0980   -0.9110   -0.9240 ha        1 FT1      0.167000
     23 H12        -2.0900    2.8820   -0.2840 ha        1 FT1      0.157000
     24 H13        -0.0400    1.6680    0.4660 ha        1 FT1      0.159000
     25 H14         6.1350    0.5880    0.6060 h4        1 FT1      0.004200
     26 HO18        1.1230   -1.3080    2.7160 ho        1 FT1      0.441000
@<TRIPOS>BOND
     1    1    2 ar  
     2    1    6 ar  
     3    1    7 1   
     4    2    3 ar  
     5    2   18 1   
     6    3    4 ar  
     7    3   19 1   
     8    4    5 ar  
     9    4   14 1   
    10    5    6 ar  
    11    5   20 1   
    12    6   21 1   
    13    7    8 1   
    14    8    9 ar  
    15    8   13 ar  
    16    9   10 ar  
    17    9   17 1   
    18   10   11 ar  
    19   10   22 1   
    20   11   12 ar  
    21   11   16 1   
    22   12   13 ar  
    23   12   23 1   
    24   13   24 1   
    25   14   15 2   
    26   14   25 1   
    27   18   26 1   
@<TRIPOS>SUBSTRUCTURE
     1 FT1         1 TEMP              0 ****  ****    0 ROOT
