@<TRIPOS>MOLECULE
FT1
   26    27     1     0     0
SMALL
bcc


@<TRIPOS>ATOM
      1 C1         -0.0750   -0.1210    0.1060 ca        1 FT1      0.082100
      2 C2          1.3280    0.0250    0.0310 ca        1 FT1      0.110100
      3 C3          2.0760    0.1550    1.2080 ca        1 FT1     -0.170000
      4 C4          1.4270    0.1390    2.4470 ca        1 FT1     -0.157600
      5 C5          0.0380   -0.0050    2.5150 ca        1 FT1     -0.098000
      6 C6         -0.7150   -0.1380    1.3500 ca        1 FT1     -0.112000
      7 O7         -0.8620   -0.0930   -1.0420 os        1 FT1     -0.225200
      8 C8         -0.9140   -1.2720   -1.7800 ca        1 FT1      0.132100
      9 C9         -1.3380   -1.1650   -3.1190 ca        1 FT1      0.007400
     10 C10        -1.4730   -2.3260   -3.8860 ca        1 FT1     -0.099000
     11 C11        -1.1810   -3.5710   -3.3250 ca        1 FT1     -0.003600
     12 C12        -0.7570   -3.6750   -1.9960 ca        1 FT1     -0.095000
     13 C13        -0.6250   -2.5250   -1.2250 ca        1 FT1     -0.169000
     14 C14         2.2240    0.2800    3.6810 c         1 FT1      0.573500
     15 O15         1.7360    0.2470    4.8120 o         1 FT1     -0.516100
     16 Cl1        -1.3440   -4.9740   -4.2690 cl        1 FT1     -0.085400
     17 Cl9        -1.6980    0.3290   -3.8360 cl        1 FT1     -0.059400
     18 O18         1.8960    0.0270   -1.2180 oh        1 FT1     -0.475100
     19 H3          3.1680    0.2740    1.1520 ha        1 FT1      0.142000
     20 H5         -0.4560   -0.0120    3.5010 ha        1 FT1      0.163000
     21 H6         -1.8100   -0.2410    1.3930 ha        1 FT1      0.161000
     22 H10        -1.8060   -2.2540   -4.9350 ha        1 FT1      0.164000
     23 H12        -0.5290   -4.6590   -1.5590 ha        1 FT1      0.153000
     24 H13        -0.2920   -2.5960   -0.1780 ha        1 FT1      0.152000
     25 H14         3.3170    0.4210    3.5230 h4        1 FT1      0.001200
     26 HO18        2.8510    0.1580   -1.1130 ho        1 FT1      0.424000
@<TRIPOS>BOND
     1    1    2 ar  
     2    1    6 ar  
     3    1    7 1   
     4    2    3 ar  
     5    2   18 1   
     6    3    4 ar  
     7    3   19 1   
     8    4    5 ar  
     9    4   14 1   
    10    5    6 ar  
    11    5   20 1   
    12    6   21 1   
    13    7    8 1   
    14    8    9 ar  
    15    8   13 ar  
    16    9   10 ar  
    17    9   17 1   
    18   10   11 ar  
    19   10   22 1   
    20   11   12 ar  
    21   11   16 1   
    22   12   13 ar  
    23   12   23 1   
    24   13   24 1   
    25   14   15 2   
    26   14   25 1   
    27   18   26 1   
@<TRIPOS>SUBSTRUCTURE
     1 FT1         1 TEMP              0 ****  ****    0 ROOT
