@<TRIPOS>MOLECULE
FT1
   26    27     1     0     0
SMALL
bcc


@<TRIPOS>ATOM
      1 C1         -0.0850   -0.1250    0.1100 ca        1 FT1      0.082100
      2 C2          1.3170    0.0350    0.0340 ca        1 FT1      0.110100
      3 C3          2.0650    0.1680    1.2100 ca        1 FT1     -0.170000
      4 C4          1.4180    0.1430    2.4500 ca        1 FT1     -0.157600
      5 C5          0.0300   -0.0150    2.5190 ca        1 FT1     -0.098000
      6 C6         -0.7230   -0.1510    1.3540 ca        1 FT1     -0.112000
      7 O7         -0.8730   -0.1010   -1.0380 os        1 FT1     -0.225200
      8 C8         -0.9130   -1.2780   -1.7790 ca        1 FT1      0.132100
      9 C9         -1.3380   -1.1700   -3.1190 ca        1 FT1      0.007400
     10 C10        -1.4610   -2.3300   -3.8900 ca        1 FT1     -0.099000
     11 C11        -1.1580   -3.5740   -3.3320 ca        1 FT1     -0.003600
     12 C12        -0.7330   -3.6790   -2.0040 ca        1 FT1     -0.095000
     13 C13        -0.6130   -2.5300   -1.2280 ca        1 FT1     -0.169000
     14 C14         2.2150    0.2880    3.6830 c         1 FT1      0.573500
     15 O15         1.7290    0.2470    4.8150 o         1 FT1     -0.516100
     16 CL1        -1.3080   -4.9750   -4.2820 cl        1 FT1     -0.085400
     17 CL9        -1.7120    0.3230   -3.8300 cl        1 FT1     -0.059400
     18 O18         1.8840    0.0450   -1.2160 oh        1 FT1     -0.475100
     19 H3          3.1560    0.2970    1.1530 ha        1 FT1      0.142000
     20 H5         -0.4620   -0.0290    3.5060 ha        1 FT1      0.163000
     21 H6         -1.8170   -0.2650    1.3980 ha        1 FT1      0.161000
     22 H10        -1.7950   -2.2570   -4.9380 ha        1 FT1      0.164000
     23 H12        -0.4960   -4.6620   -1.5690 ha        1 FT1      0.153000
     24 H13        -0.2800   -2.6010   -0.1820 ha        1 FT1      0.152000
     25 H14         3.3070    0.4390    3.5250 h4        1 FT1      0.001200
     26 HO18        2.8370    0.1850   -1.1110 ho        1 FT1      0.424000
@<TRIPOS>BOND
     1    1    2 ar  
     2    1    6 ar  
     3    1    7 1   
     4    2    3 ar  
     5    2   18 1   
     6    3    4 ar  
     7    3   19 1   
     8    4    5 ar  
     9    4   14 1   
    10    5    6 ar  
    11    5   20 1   
    12    6   21 1   
    13    7    8 1   
    14    8    9 ar  
    15    8   13 ar  
    16    9   10 ar  
    17    9   17 1   
    18   10   11 ar  
    19   10   22 1   
    20   11   12 ar  
    21   11   16 1   
    22   12   13 ar  
    23   12   23 1   
    24   13   24 1   
    25   14   15 2   
    26   14   25 1   
    27   18   26 1   
@<TRIPOS>SUBSTRUCTURE
     1 FT1         1 TEMP              0 ****  ****    0 ROOT
