@<TRIPOS>MOLECULE
FT2
   27    28     1     0     0
SMALL
bcc


@<TRIPOS>ATOM
      1 C1          0.9930   -0.3960    0.2390 ca        1 FT2      0.006100
      2 C2          1.8800   -0.2710    1.3270 ca        1 FT2      0.133100
      3 C3          3.1710    0.2380    1.1150 ca        1 FT2     -0.133000
      4 C4          3.5570    0.6200   -0.1710 ca        1 FT2     -0.071300
      5 C5          2.6670    0.4870   -1.2470 ca        1 FT2     -0.134000
      6 C6          1.3890   -0.0220   -1.0480 ca        1 FT2     -0.110000
      7 O7         -0.2240   -1.0270    0.5000 os        1 FT2     -0.246200
      8 C8         -1.3660   -0.3360    0.1070 ca        1 FT2      0.113100
      9 C9         -2.5260   -1.1020   -0.1250 ca        1 FT2      0.004400
     10 C10        -3.7200   -0.4490   -0.4490 ca        1 FT2     -0.101000
     11 C11        -3.7490    0.9440   -0.5480 ca        1 FT2      0.000400
     12 C12        -2.5950    1.7010   -0.3230 ca        1 FT2     -0.097000
     13 C13        -1.4050    1.0600    0.0050 ca        1 FT2     -0.164000
     14 C14         4.9130    1.1790   -0.3970 c3        1 FT2      0.078300
     15 CL15        6.0430   -0.0590   -0.9310 cl        1 FT2     -0.181400
     16 CL16       -5.2040    1.7240   -0.9470 cl        1 FT2     -0.080400
     17 CL17       -2.5260   -2.7930   -0.0160 cl        1 FT2     -0.057400
     18 O18         1.5500   -0.6350    2.6080 oh        1 FT2     -0.488100
     19 H3          3.8590    0.3250    1.9690 ha        1 FT2      0.160000
     20 H5          2.9870    0.7790   -2.2590 ha        1 FT2      0.145000
     21 H6          0.6860   -0.1340   -1.8870 ha        1 FT2      0.153000
     22 H10        -4.6350   -1.0390   -0.6280 ha        1 FT2      0.166000
     23 H12        -2.6240    2.7990   -0.4010 ha        1 FT2      0.155000
     24 H13        -0.4890    1.6450    0.1830 ha        1 FT2      0.158000
     25 H14         4.9000    1.9580   -1.1980 h1        1 FT2      0.073700
     26 H14A        5.3400    1.6090    0.5420 h1        1 FT2      0.073700
     27 HO18        0.6520   -1.0040    2.5930 ho        1 FT2      0.440000
@<TRIPOS>BOND
     1    1    2 ar  
     2    1    6 ar  
     3    1    7 1   
     4    2    3 ar  
     5    2   18 1   
     6    3    4 ar  
     7    3   19 1   
     8    4    5 ar  
     9    4   14 1   
    10    5    6 ar  
    11    5   20 1   
    12    6   21 1   
    13    7    8 1   
    14    8    9 ar  
    15    8   13 ar  
    16    9   10 ar  
    17    9   17 1   
    18   10   11 ar  
    19   10   22 1   
    20   11   12 ar  
    21   11   16 1   
    22   12   13 ar  
    23   12   23 1   
    24   13   24 1   
    25   14   15 1   
    26   14   25 1   
    27   14   26 1   
    28   18   27 1   
@<TRIPOS>SUBSTRUCTURE
     1 FT2         1 TEMP              0 ****  ****    0 ROOT
