@<TRIPOS>MOLECULE
FT2
   27    23     1     0     0
SMALL
bcc


@<TRIPOS>ATOM
      1 C1         -0.1400    1.0690   -0.0110 c1        1 FT2     -0.047000
      2 C2          1.2450    1.1070    0.0040 c1        1 FT2      0.092000
      3 C3          1.9260    1.0980    1.2110 c1        1 FT2     -0.137000
      4 C4          1.2220    1.0510    2.4040 c1        1 FT2     -0.056000
      5 C5         -0.1640    1.0140    2.3900 c1        1 FT2     -0.142000
      6 C6         -0.8450    1.0230    1.1820 c1        1 FT2     -0.097000
      7 O7         -0.8320    1.1350   -1.2330 os        1 FT2     -0.156000
      8 C8         -1.1110   -0.1670   -1.6840 c2        1 FT2      0.059000
      9 C9         -0.2980   -0.7580   -2.6380 c2        1 FT2     -0.076000
     10 C10        -0.5950   -2.0260   -3.1120 c1        1 FT2     -0.101000
     11 C11        -1.7050   -2.7030   -2.6320 c1        1 FT2     -0.072000
     12 C12        -2.5190   -2.1110   -1.6780 c1        1 FT2     -0.099000
     13 C13        -2.2210   -0.8430   -1.2040 c1        1 FT2     -0.149000
     14 C14         1.9660    0.9840    3.7200 c3        1 FT2     -0.082000
     15 CL15        2.1170    2.5890    4.3850 cl        1 FT2     -0.107000
     16 CL16       -2.0560   -4.3150   -3.1970 cl        1 FT2     -0.000000
     17 CL17        1.0750    0.1100   -3.2730 cl        1 FT2      0.014000
     18 O18         1.9610    1.1390   -1.2070 oh        1 FT2     -0.241000
     19 H3          2.9020    1.1240    1.2220 ha        1 FT2      0.160000
     20 H5         -0.6600    0.9810    3.2300 ha        1 FT2      0.144000
     21 H6         -1.8200    0.9970    1.1720 ha        1 FT2      0.151000
     22 H10        -0.0220   -2.4430   -3.7840 ha        1 FT2      0.166000
     23 H12        -3.3010   -2.5880   -1.3400 ha        1 FT2      0.155000
     24 H13        -2.7940   -0.4270   -0.5330 ha        1 FT2      0.156000
     25 H14         1.4720    0.4170    4.3450 h1        1 FT2      0.114000
     26 H14A        2.8570    0.6070    3.5720 h1        1 FT2      0.114000
     27 HO18        2.3400    1.9370   -1.3070 ho        1 FT2      0.239000
@<TRIPOS>BOND
     1    1    6 1   
     2    1    7 1   
     3    2    3 1   
     4    2   18 1   
     5    3   19 1   
     6    4    5 1   
     7    4   14 1   
     8    5   20 1   
     9    6   21 1   
    10    7    8 1   
    11    8    9 1   
    12    8   13 1   
    13    9   10 1   
    14    9   17 1   
    15   10   22 1   
    16   11   12 1   
    17   11   16 1   
    18   12   23 1   
    19   13   24 1   
    20   14   15 1   
    21   14   25 1   
    22   14   26 1   
    23   18   27 1   
@<TRIPOS>SUBSTRUCTURE
     1 FT2         1 TEMP              0 ****  ****    0 ROOT
