@<TRIPOS>MOLECULE
FT2
   27    28     1     0     0
SMALL
bcc


@<TRIPOS>ATOM
      1 C1          0.0210   -0.1100    0.0430 ca        1 FT2      0.056100
      2 C2          1.4220    0.0660    0.0350 ca        1 FT2      0.128100
      3 C3          2.1150    0.1770    1.2480 ca        1 FT2     -0.193000
      4 C4          1.4170    0.1140    2.4580 ca        1 FT2     -0.058300
      5 C5          0.0280   -0.0600    2.4580 ca        1 FT2     -0.141000
      6 C6         -0.6690   -0.1740    1.2570 ca        1 FT2     -0.096000
      7 O7         -0.7040   -0.0600   -1.1450 os        1 FT2     -0.220200
      8 C8         -0.8530   -1.2600   -1.8280 ca        1 FT2      0.136100
      9 C9         -1.4400   -1.1860   -3.1090 ca        1 FT2      0.001400
     10 C10        -1.6470   -2.3620   -3.8350 ca        1 FT2     -0.096000
     11 C11        -1.2700   -3.5930   -3.2920 ca        1 FT2     -0.007600
     12 C12        -0.6860   -3.6660   -2.0250 ca        1 FT2     -0.092000
     13 C13        -0.4800   -2.5000   -1.2940 ca        1 FT2     -0.175000
     14 C14         2.1540    0.2170    3.7410 c3        1 FT2      0.076300
     15 CL15        2.4180    1.8940    4.2020 cl        1 FT2     -0.179400
     16 CL16       -1.5260   -5.0150   -4.1870 cl        1 FT2     -0.088400
     17 CL17       -1.9100    0.2900   -3.8010 cl        1 FT2     -0.060400
     18 O18         2.0480    0.1100   -1.1850 oh        1 FT2     -0.474100
     19 H3          3.2050    0.3240    1.2450 ha        1 FT2      0.144000
     20 H5         -0.5200   -0.1000    3.4110 ha        1 FT2      0.145000
     21 H6         -1.7630   -0.2990    1.2500 ha        1 FT2      0.157000
     22 H10        -2.1050   -2.3130   -4.8360 ha        1 FT2      0.163000
     23 H12        -0.3910   -4.6380   -1.6020 ha        1 FT2      0.151000
     24 H13        -0.0180   -2.5490   -0.2960 ha        1 FT2      0.152000
     25 H14         1.5820   -0.2530    4.5790 h1        1 FT2      0.073700
     26 H14A        3.1660   -0.2510    3.6670 h1        1 FT2      0.073700
     27 HO18        2.9850    0.3060   -1.0330 ho        1 FT2      0.424000
@<TRIPOS>BOND
     1    1    2 ar  
     2    1    6 ar  
     3    1    7 1   
     4    2    3 ar  
     5    2   18 1   
     6    3    4 ar  
     7    3   19 1   
     8    4    5 ar  
     9    4   14 1   
    10    5    6 ar  
    11    5   20 1   
    12    6   21 1   
    13    7    8 1   
    14    8    9 ar  
    15    8   13 ar  
    16    9   10 ar  
    17    9   17 1   
    18   10   11 ar  
    19   10   22 1   
    20   11   12 ar  
    21   11   16 1   
    22   12   13 ar  
    23   12   23 1   
    24   13   24 1   
    25   14   15 1   
    26   14   25 1   
    27   14   26 1   
    28   18   27 1   
@<TRIPOS>SUBSTRUCTURE
     1 FT2         1 TEMP              0 ****  ****    0 ROOT
