@<TRIPOS>MOLECULE
FT3
   28    29     1     0     0
SMALL
bcc


@<TRIPOS>ATOM
      1 C1         -0.0390   -0.0890    0.0460 ca        1 FT3      0.043100
      2 C2          1.3380    0.2130    0.0740 ca        1 FT3      0.127100
      3 C3          1.9950    0.3540    1.3060 ca        1 FT3     -0.184000
      4 C4          1.2840    0.1900    2.4940 ca        1 FT3     -0.044300
      5 C5         -0.0850   -0.1150    2.4600 ca        1 FT3     -0.163000
      6 C6         -0.7440   -0.2550    1.2440 ca        1 FT3     -0.094000
      7 O7         -0.7410   -0.0680   -1.1570 os        1 FT3     -0.219200
      8 C8         -0.8390   -1.2750   -1.8360 ca        1 FT3      0.138100
      9 C9         -1.5800   -1.2610   -3.0370 ca        1 FT3     -0.002600
     10 C10        -1.7200   -2.4440   -3.7680 ca        1 FT3     -0.096000
     11 C11        -1.1310   -3.6240   -3.3060 ca        1 FT3     -0.010600
     12 C12        -0.3970   -3.6370   -2.1160 ca        1 FT3     -0.092000
     13 C13        -0.2520   -2.4640   -1.3830 ca        1 FT3     -0.175000
     14 C14         1.9440    0.3420    3.8250 c3        1 FT3      0.172700
     15 O15         3.3410    0.5240    3.6450 oh        1 FT3     -0.600800
     16 Cl16       -1.3110   -5.0560   -4.2040 cl        1 FT3     -0.090400
     17 Cl17       -2.3110    0.1500   -3.6300 cl        1 FT3     -0.064400
     18 O18         1.9830    0.3520   -1.1290 oh        1 FT3     -0.477100
     19 H3          3.0690    0.5940    1.3370 ha        1 FT3      0.162000
     20 H5         -0.6400   -0.2410    3.4010 ha        1 FT3      0.139000
     21 H6         -1.8200   -0.4840    1.2080 ha        1 FT3      0.154000
     22 H10        -2.2950   -2.4420   -4.7080 ha        1 FT3      0.162000
     23 H12         0.0680   -4.5690   -1.7580 ha        1 FT3      0.151000
     24 H13         0.3300   -2.4650   -0.4500 ha        1 FT3      0.154000
     25 H14         1.7600   -0.5790    4.4470 h1        1 FT3      0.038200
     26 H14A        1.5100    1.2330    4.3590 h1        1 FT3      0.038200
     27 HO15        3.7140    0.6350    4.5270 ho        1 FT3      0.407000
     28 HO18        2.9030    0.5990   -0.9460 ho        1 FT3      0.424000
@<TRIPOS>BOND
     1    1    2 ar  
     2    1    6 ar  
     3    1    7 1   
     4    2    3 ar  
     5    2   18 1   
     6    3    4 ar  
     7    3   19 1   
     8    4    5 ar  
     9    4   14 1   
    10    5    6 ar  
    11    5   20 1   
    12    6   21 1   
    13    7    8 1   
    14    8    9 ar  
    15    8   13 ar  
    16    9   10 ar  
    17    9   17 1   
    18   10   11 ar  
    19   10   22 1   
    20   11   12 ar  
    21   11   16 1   
    22   12   13 ar  
    23   12   23 1   
    24   13   24 1   
    25   14   15 1   
    26   14   25 1   
    27   14   26 1   
    28   15   27 1   
    29   18   28 1   
@<TRIPOS>SUBSTRUCTURE
     1 FT3         1 TEMP              0 ****  ****    0 ROOT
