@<TRIPOS>MOLECULE
FT3
   28    29     1     0     0
SMALL
bcc


@<TRIPOS>ATOM
      1 C1         -0.0280   -0.0860    0.0430 ca        1 FT3      0.043100
      2 C2          1.3500    0.2100    0.0770 ca        1 FT3      0.127100
      3 C3          2.0030    0.3450    1.3130 ca        1 FT3     -0.184000
      4 C4          1.2860    0.1800    2.4970 ca        1 FT3     -0.044300
      5 C5         -0.0830   -0.1190    2.4570 ca        1 FT3     -0.163000
      6 C6         -0.7390   -0.2520    1.2380 ca        1 FT3     -0.094000
      7 O7         -0.7240   -0.0570   -1.1640 os        1 FT3     -0.219200
      8 C8         -0.8350   -1.2640   -1.8410 ca        1 FT3      0.137100
      9 C9         -1.5950   -1.2500   -3.0290 ca        1 FT3     -0.002600
     10 C10        -1.7450   -2.4310   -3.7600 ca        1 FT3     -0.096000
     11 C11        -1.1460   -3.6110   -3.3100 ca        1 FT3     -0.009600
     12 C12        -0.3930   -3.6250   -2.1330 ca        1 FT3     -0.092000
     13 C13        -0.2380   -2.4530   -1.4000 ca        1 FT3     -0.174000
     14 C14         1.9410    0.3240    3.8320 c3        1 FT3      0.172700
     15 O15         3.3400    0.5010    3.6570 oh        1 FT3     -0.600800
     16 CL16       -1.3390   -5.0420   -4.2070 cl        1 FT3     -0.090400
     17 CL17       -2.3390    0.1620   -3.6070 cl        1 FT3     -0.064400
     18 O18         2.0010    0.3500   -1.1220 oh        1 FT3     -0.477100
     19 H3          3.0780    0.5800    1.3490 ha        1 FT3      0.162000
     20 H5         -0.6430   -0.2470    3.3950 ha        1 FT3      0.139000
     21 H6         -1.8150   -0.4770    1.1960 ha        1 FT3      0.154000
     22 H10        -2.3350   -2.4280   -4.6910 ha        1 FT3      0.162000
     23 H12         0.0790   -4.5560   -1.7840 ha        1 FT3      0.151000
     24 H13         0.3600   -2.4540   -0.4760 ha        1 FT3      0.154000
     25 H14         1.7520   -0.5980    4.4490 h1        1 FT3      0.038200
     26 H14A        1.5090    1.2160    4.3660 h1        1 FT3      0.038200
     27 HO15        3.7100    0.6090    4.5410 ho        1 FT3      0.407000
     28 HO18        2.9200    0.5950   -0.9350 ho        1 FT3      0.424000
@<TRIPOS>BOND
     1    1    2 ar  
     2    1    6 ar  
     3    1    7 1   
     4    2    3 ar  
     5    2   18 1   
     6    3    4 ar  
     7    3   19 1   
     8    4    5 ar  
     9    4   14 1   
    10    5    6 ar  
    11    5   20 1   
    12    6   21 1   
    13    7    8 1   
    14    8    9 ar  
    15    8   13 ar  
    16    9   10 ar  
    17    9   17 1   
    18   10   11 ar  
    19   10   22 1   
    20   11   12 ar  
    21   11   16 1   
    22   12   13 ar  
    23   12   23 1   
    24   13   24 1   
    25   14   15 1   
    26   14   25 1   
    27   14   26 1   
    28   15   27 1   
    29   18   28 1   
@<TRIPOS>SUBSTRUCTURE
     1 FT3         1 TEMP              0 ****  ****    0 ROOT
