@<TRIPOS>MOLECULE
FT3
   28    24     1     0     0
SMALL
bcc


@<TRIPOS>ATOM
      1 C1         -0.2170    0.9520   -0.1920 c1        1 FT3     -0.002000
      2 C2          1.1680    1.0110   -0.2120 c1        1 FT3      0.082000
      3 C3          1.8790    1.0370    0.9790 c1        1 FT3     -0.184000
      4 C4          1.2040    1.0040    2.1890 c1        1 FT3     -0.037000
      5 C5         -0.1810    0.9450    2.2090 c1        1 FT3     -0.163000
      6 C6         -0.8910    0.9190    1.0190 c1        1 FT3     -0.094000
      7 O7         -0.9390    1.0000   -1.3970 os        1 FT3     -0.129000
      8 C8         -1.2470   -0.3070   -1.8110 c2        1 FT3      0.092000
      9 C9         -0.4600   -0.9340   -2.7650 c2        1 FT3     -0.081000
     10 C10        -0.8070   -2.1930   -3.2320 c1        1 FT3     -0.096000
     11 C11        -1.9400   -2.8250   -2.7440 c1        1 FT3     -0.088000
     12 C12        -2.7270   -2.1980   -1.7900 c1        1 FT3     -0.092000
     13 C13        -2.3800   -0.9400   -1.3240 c1        1 FT3     -0.174000
     14 C14         1.9770    1.0840    3.4890 c3        1 FT3      0.015000
     15 O15         2.2010    2.4380    3.8200 oh        1 FT3     -0.328000
     16 CL16       -2.3770   -4.4070   -3.3310 cl        1 FT3     -0.012000
     17 CL17        0.9540   -0.1310   -3.3930 cl        1 FT3      0.014000
     18 O18         1.8530    1.0510   -1.4410 oh        1 FT3     -0.231000
     19 H3          2.8540    1.0790    0.9640 ha        1 FT3      0.162000
     20 H5         -0.6560    0.9210    3.0620 ha        1 FT3      0.139000
     21 H6         -1.8660    0.8770    1.0330 ha        1 FT3      0.154000
     22 H10        -0.2530   -2.6340   -3.9030 ha        1 FT3      0.162000
     23 H12        -3.5250   -2.6430   -1.4470 ha        1 FT3      0.151000
     24 H13        -2.9340   -0.4980   -0.6520 ha        1 FT3      0.154000
     25 H14         2.8380    0.6270    3.3860 h1        1 FT3      0.077500
     26 H14A        1.4620    0.6540    4.2020 h1        1 FT3      0.077500
     27 HO15        2.4750    2.4950    4.6640 ho        1 FT3      0.206000
     28 HO18        2.5350    1.6180   -1.3820 ho        1 FT3      0.223000
@<TRIPOS>BOND
     1    1    6 1   
     2    1    7 1   
     3    2    3 1   
     4    2   18 1   
     5    3   19 1   
     6    4    5 1   
     7    4   14 1   
     8    5   20 1   
     9    6   21 1   
    10    7    8 1   
    11    8    9 1   
    12    8   13 1   
    13    9   10 1   
    14    9   17 1   
    15   10   22 1   
    16   11   12 1   
    17   11   16 1   
    18   12   23 1   
    19   13   24 1   
    20   14   15 1   
    21   14   25 1   
    22   14   26 1   
    23   15   27 1   
    24   18   28 1   
@<TRIPOS>SUBSTRUCTURE
     1 FT3         1 TEMP              0 ****  ****    0 ROOT
