@<TRIPOS>MOLECULE
FT3
   28    29     1     0     0
SMALL
bcc


@<TRIPOS>ATOM
      1 C1          1.4040   -0.5090    0.0440 ca        1 FT3     -0.009900
      2 C2          2.2820   -0.4890    1.1440 ca        1 FT3      0.134100
      3 C3          3.5820    0.0240    0.9870 ca        1 FT3     -0.123000
      4 C4          3.9800    0.5070   -0.2580 ca        1 FT3     -0.056300
      5 C5          3.0980    0.4800   -1.3500 ca        1 FT3     -0.158000
      6 C6          1.8130   -0.0290   -1.2050 ca        1 FT3     -0.103000
      7 O7          0.1770   -1.1500    0.2270 os        1 FT3     -0.244200
      8 C8         -0.9560   -0.3690    0.0230 ca        1 FT3      0.116100
      9 C9         -2.1670   -1.0540   -0.2010 ca        1 FT3      0.001400
     10 C10        -3.3480   -0.3210   -0.3520 ca        1 FT3     -0.100000
     11 C11        -3.3160    1.0740   -0.2890 ca        1 FT3     -0.002600
     12 C12        -2.1120    1.7520   -0.0710 ca        1 FT3     -0.095000
     13 C13        -0.9340    1.0300    0.0850 ca        1 FT3     -0.167000
     14 C14         5.3540    1.0510   -0.4770 c3        1 FT3      0.174700
     15 O15         6.0160    1.1860    0.7720 oh        1 FT3     -0.596800
     16 CL16       -4.7570    1.9530   -0.4800 cl        1 FT3     -0.083400
     17 CL17       -2.2430   -2.7460   -0.2850 cl        1 FT3     -0.060400
     18 O18         1.9390   -0.9620    2.3840 oh        1 FT3     -0.487100
     19 H3          4.2680    0.0420    1.8480 ha        1 FT3      0.177000
     20 H5          3.4270    0.8610   -2.3270 ha        1 FT3      0.138000
     21 H6          1.1150   -0.0590   -2.0540 ha        1 FT3      0.150000
     22 H10        -4.3010   -0.8480   -0.5240 ha        1 FT3      0.164000
     23 H12        -2.0930    2.8520   -0.0210 ha        1 FT3      0.155000
     24 H13         0.0190    1.5540    0.2560 ha        1 FT3      0.160000
     25 H14         5.9320    0.3490   -1.1410 h1        1 FT3      0.036200
     26 H14A        5.2910    2.0560   -0.9800 h1        1 FT3      0.036200
     27 HO15        6.9050    1.5020    0.5740 ho        1 FT3      0.406000
     28 HO18        1.0350   -1.3160    2.3290 ho        1 FT3      0.437000
@<TRIPOS>BOND
     1    1    2 ar  
     2    1    6 ar  
     3    1    7 1   
     4    2    3 ar  
     5    2   18 1   
     6    3    4 ar  
     7    3   19 1   
     8    4    5 ar  
     9    4   14 1   
    10    5    6 ar  
    11    5   20 1   
    12    6   21 1   
    13    7    8 1   
    14    8    9 ar  
    15    8   13 ar  
    16    9   10 ar  
    17    9   17 1   
    18   10   11 ar  
    19   10   22 1   
    20   11   12 ar  
    21   11   16 1   
    22   12   13 ar  
    23   12   23 1   
    24   13   24 1   
    25   14   15 1   
    26   14   25 1   
    27   14   26 1   
    28   15   27 1   
    29   18   28 1   
@<TRIPOS>SUBSTRUCTURE
     1 FT3         1 TEMP              0 ****  ****    0 ROOT
