@<TRIPOS>MOLECULE
FT6
   26    27     1     0     0
SMALL
bcc


@<TRIPOS>ATOM
      1 N          -1.4960    4.3180    5.6830 n3        1 FT6     -0.890800
      2 CA         -1.1780    2.9540    5.2700 c3        1 FT6      0.024500
      3 C          -1.6870    2.6360    3.8270 c         1 FT6      0.884600
      4 OXT        -0.9250    1.9780    3.0590 o         1 FT6     -0.844800
      5 CB         -1.7570    1.9230    6.2540 c3        1 FT6      0.006800
      6 CG         -0.9740    0.6800    6.3050 cc        1 FT6     -0.129400
      7 CD2        -0.7830   -0.1670    7.4650 ca        1 FT6     -0.091800
      8 CD1        -0.2940    0.0770    5.2450 cd        1 FT6     -0.084100
      9 NE1         0.3200   -1.1050    5.6780 na        1 FT6     -0.201400
     10 CE2         0.0340   -1.2860    7.0290 ca        1 FT6     -0.042200
     11 CZ2         0.4080   -2.3050    7.9140 ca        1 FT6     -0.192000
     12 CH2        -0.0360   -2.1980    9.2370 ca        1 FT6      0.108900
     13 FAP         0.3030   -3.1650   10.1300 f         1 FT6     -0.166900
     14 CZ3        -0.8280   -1.1090    9.6760 ca        1 FT6     -0.207000
     15 CE3        -1.1960   -0.1040    8.7940 ca        1 FT6     -0.063000
     16 O          -2.8210    3.0770    3.4910 o         1 FT6     -0.844800
     17 H          -2.4970    4.4250    5.6560 hn        1 FT6      0.331800
     18 H2         -1.1250    4.9400    4.9860 hn        1 FT6      0.331800
     19 HA         -0.0540    2.8610    5.2700 h1        1 FT6      0.047700
     20 HB2        -1.8070    2.3540    7.2920 hc        1 FT6      0.043700
     21 HB3        -2.8110    1.6880    5.9380 hc        1 FT6      0.043700
     22 HD1        -0.2190    0.4380    4.2020 h4        1 FT6      0.246000
     23 HE1         0.8290   -1.7290    5.1140 hn        1 FT6      0.289700
     24 HZ2         1.0220   -3.1550    7.5950 ha        1 FT6      0.133000
     25 HZ3        -1.1450   -1.0770   10.7260 ha        1 FT6      0.129000
     26 HE3        -1.8090    0.7430    9.1360 ha        1 FT6      0.137000
@<TRIPOS>BOND
     1    1    2 1   
     2    1   17 1   
     3    1   18 1   
     4    2    3 1   
     5    2    5 1   
     6    2   19 1   
     7    3    4 1   
     8    3   16 1   
     9    5    6 1   
    10    5   20 1   
    11    5   21 1   
    12    6    7 1   
    13    6    8 2   
    14    7   10 ar  
    15    7   15 ar  
    16    8    9 1   
    17    8   22 1   
    18    9   10 1   
    19    9   23 1   
    20   10   11 ar  
    21   11   12 ar  
    22   11   24 1   
    23   12   13 1   
    24   12   14 ar  
    25   14   15 ar  
    26   14   25 1   
    27   15   26 1   
@<TRIPOS>SUBSTRUCTURE
     1 FT6         1 TEMP              0 ****  ****    0 ROOT
