@<TRIPOS>MOLECULE
FTA
   36    38     1     0     0
SMALL
bcc


@<TRIPOS>ATOM
      1 N8          0.1990   -0.2810   -0.2120 nh        1 FTA     -0.622000
      2 C24         1.5850   -0.0860   -0.0440 ca        1 FTA      0.131600
      3 C26         2.1060    0.2550    1.2260 ca        1 FTA     -0.163000
      4 C28         3.4800    0.3520    1.4170 ca        1 FTA     -0.107000
      5 C30         4.3620    0.1230    0.3620 ca        1 FTA     -0.149000
      6 C29         3.8580   -0.2140   -0.8930 ca        1 FTA     -0.107000
      7 C27         2.4880   -0.3250   -1.1040 ca        1 FTA     -0.163000
      8 C7         -0.5330    0.3510   -1.2300 ca        1 FTA      0.143600
      9 C6         -1.9190    0.0750   -1.3380 ca        1 FTA     -0.156500
     10 C4         -2.6790    0.6300   -2.3530 ca        1 FTA     -0.125000
     11 C5          0.0450    1.2160   -2.1810 ca        1 FTA     -0.156500
     12 C3         -0.7140    1.7630   -3.2080 ca        1 FTA     -0.125000
     13 C2         -2.0910    1.4870   -3.3110 ca        1 FTA      0.093600
     14 N1         -2.8930    2.0120   -4.3470 nh        1 FTA     -0.608400
     15 C17        -2.6330    3.1990   -4.9520 c2        1 FTA      0.194000
     16 C14        -3.3570    3.8010   -5.9560 ce        1 FTA     -0.217500
     17 C18        -2.8860    5.0430   -6.4570 cg        1 FTA      0.219500
     18 N21        -2.5040    6.0610   -6.8710 n1        1 FTA     -0.381800
     19 C13        -4.5660    3.2860   -6.5580 cc        1 FTA      0.587800
     20 N15        -5.2550    3.8390   -7.6120 nd        1 FTA     -0.491800
     21 N19        -6.2820    2.9940   -7.7690 na        1 FTA      0.103900
     22 N20        -6.2770    1.9690   -6.8990 nd        1 FTA     -0.143800
     23 N16        -5.2640    2.0990   -6.1460 nc        1 FTA     -0.419000
     24 H8         -0.3060   -0.3800    0.6450 hn        1 FTA      0.418800
     25 H26         1.4290    0.4390    2.0740 ha        1 FTA      0.138500
     26 H28         3.8700    0.6150    2.4120 ha        1 FTA      0.134500
     27 H30         5.4460    0.2070    0.5190 ha        1 FTA      0.135000
     28 H29         4.5500   -0.4030   -1.7290 ha        1 FTA      0.134500
     29 H27         2.1090   -0.6120   -2.0970 ha        1 FTA      0.138500
     30 H6         -2.4090   -0.5930   -0.6120 ha        1 FTA      0.146000
     31 H4         -3.7540    0.3900   -2.4070 ha        1 FTA      0.141000
     32 H5          1.1150    1.4740   -2.1220 ha        1 FTA      0.146000
     33 H3         -0.2120    2.4130   -3.9420 ha        1 FTA      0.141000
     34 H1         -3.7280    1.5050   -4.5520 hn        1 FTA      0.471800
     35 H17        -1.7240    3.7300   -4.5880 h4        1 FTA      0.160000
     36 H19        -6.9780    3.1270   -8.4760 hn        1 FTA      0.353700
@<TRIPOS>BOND
     1    1    2 1   
     2    1    8 1   
     3    1   24 1   
     4    2    3 ar  
     5    2    7 ar  
     6    3    4 ar  
     7    3   25 1   
     8    4    5 ar  
     9    4   26 1   
    10    5    6 ar  
    11    5   27 1   
    12    6    7 ar  
    13    6   28 1   
    14    7   29 1   
    15    8    9 ar  
    16    8   11 ar  
    17    9   10 ar  
    18    9   30 1   
    19   10   13 ar  
    20   10   31 1   
    21   11   12 ar  
    22   11   32 1   
    23   12   13 ar  
    24   12   33 1   
    25   13   14 1   
    26   14   15 1   
    27   14   34 1   
    28   15   16 2   
    29   15   35 1   
    30   16   17 1   
    31   16   19 1   
    32   17   18 3   
    33   19   20 2   
    34   19   23 1   
    35   20   21 1   
    36   21   22 1   
    37   21   36 1   
    38   22   23 2   
@<TRIPOS>SUBSTRUCTURE
     1 FTA         1 TEMP              0 ****  ****    0 ROOT
