@<TRIPOS>MOLECULE
FTA
   38    40     1     0     0
SMALL
bcc


@<TRIPOS>ATOM
      1 N8          0.2050   -0.6250   -0.2620 n4        1 FTA     -0.503800
      2 C24         1.5840   -0.1270   -0.1460 ca        1 FTA     -0.082400
      3 C26         1.9130    0.7560    0.9000 ca        1 FTA     -0.103000
      4 C28         3.2350    1.1740    1.0380 ca        1 FTA     -0.095500
      5 C30         4.2160    0.7270    0.1490 ca        1 FTA     -0.054000
      6 C29         3.8780   -0.1450   -0.8880 ca        1 FTA     -0.095500
      7 C27         2.5630   -0.5790   -1.0480 ca        1 FTA     -0.103000
      8 C7         -0.6060    0.0850   -1.2630 ca        1 FTA      0.007600
      9 C6         -1.4380   -0.6500   -2.1270 ca        1 FTA     -0.077500
     10 C4         -2.2340    0.0160   -3.0560 ca        1 FTA     -0.078000
     11 C5         -0.5640    1.4870   -1.3410 ca        1 FTA     -0.077500
     12 C3         -1.3600    2.1550   -2.2700 ca        1 FTA     -0.078000
     13 C2         -2.2000    1.4200   -3.1240 ca        1 FTA      0.005600
     14 N1         -3.0640    2.1240   -4.0830 n4        1 FTA     -0.504200
     15 C17        -2.4120    2.3230   -5.3730 c2        1 FTA     -0.139000
     16 C14        -2.9900    2.9400   -6.4360 ce        1 FTA      0.154500
     17 C18        -2.2310    3.0630   -7.6370 cg        1 FTA      0.121500
     18 N21        -1.6270    3.1730   -8.6250 n1        1 FTA     -0.184800
     19 C13        -4.3290    3.4930   -6.4610 cc        1 FTA      0.425800
     20 N15        -4.9480    4.1220   -7.5240 nd        1 FTA     -0.360800
     21 N19        -6.1360    4.4300   -7.0310 na        1 FTA      0.160900
     22 N20        -6.3110    4.0450   -5.7450 nd        1 FTA     -0.079800
     23 N16        -5.2460    3.4750   -5.3600 nc        1 FTA     -0.424000
     24 H8          0.2430   -1.6270   -0.5070 hn        1 FTA      0.473800
     25 H26         1.1570    1.1070    1.6210 ha        1 FTA      0.158000
     26 H28         3.5050    1.8570    1.8620 ha        1 FTA      0.183500
     27 H30         5.2630    1.0580    0.2720 ha        1 FTA      0.186000
     28 H29         4.6560   -0.5030   -1.5860 ha        1 FTA      0.183500
     29 H27         2.3190   -1.2750   -1.8670 ha        1 FTA      0.158000
     30 H6         -1.4830   -1.7550   -2.0910 ha        1 FTA      0.192500
     31 H4         -2.8820   -0.5810   -3.7250 ha        1 FTA      0.192000
     32 H5          0.1020    2.0750   -0.6790 ha        1 FTA      0.192500
     33 H3         -1.3110    3.2590   -2.3140 ha        1 FTA      0.192000
     34 H1         -3.9330    1.5760   -4.2150 hn        1 FTA      0.482800
     35 H17        -1.3800    1.9230   -5.4250 hx        1 FTA      0.216000
     36 H19        -6.8450    4.9110   -7.5730 hn        1 FTA      0.400700
     37 H82        -0.2600   -0.5290    0.6550 hn        1 FTA      0.473800
     38 H12        -3.3270    3.0430   -3.6840 hn        1 FTA      0.482800
@<TRIPOS>BOND
     1    1    2 1   
     2    1    8 1   
     3    1   24 1   
     4    1   37 1   
     5    2    3 ar  
     6    2    7 ar  
     7    3    4 ar  
     8    3   25 1   
     9    4    5 ar  
    10    4   26 1   
    11    5    6 ar  
    12    5   27 1   
    13    6    7 ar  
    14    6   28 1   
    15    7   29 1   
    16    8    9 ar  
    17    8   11 ar  
    18    9   10 ar  
    19    9   30 1   
    20   10   13 ar  
    21   10   31 1   
    22   11   12 ar  
    23   11   32 1   
    24   12   13 ar  
    25   12   33 1   
    26   13   14 1   
    27   14   15 1   
    28   14   34 1   
    29   14   38 1   
    30   15   16 2   
    31   15   35 1   
    32   16   17 1   
    33   16   19 1   
    34   17   18 3   
    35   19   20 2   
    36   19   23 1   
    37   20   21 1   
    38   21   22 1   
    39   21   36 1   
    40   22   23 2   
@<TRIPOS>SUBSTRUCTURE
     1 FTA         1 TEMP              0 ****  ****    0 ROOT
