@<TRIPOS>MOLECULE
FTA
   36    38     1     0     0
SMALL
bcc


@<TRIPOS>ATOM
      1 N8          3.8210    1.3490   -0.1090 nh        1 FTA     -0.622000
      2 C24         4.7970    0.3460    0.0640 ca        1 FTA      0.131600
      3 C26         5.8860    0.2530   -0.8330 ca        1 FTA     -0.163000
      4 C28         6.9020   -0.6710   -0.6090 ca        1 FTA     -0.106500
      5 C30         6.8570   -1.5220    0.4940 ca        1 FTA     -0.149000
      6 C29         5.7870   -1.4370    1.3850 ca        1 FTA     -0.106500
      7 C27         4.7660   -0.5140    1.1840 ca        1 FTA     -0.163000
      8 C7          2.4460    1.0670   -0.1240 ca        1 FTA      0.143600
      9 C6          1.5360    2.1430   -0.2780 ca        1 FTA     -0.156500
     10 C4          0.1680    1.9300   -0.2480 ca        1 FTA     -0.125000
     11 C5          1.9140   -0.2280    0.0480 ca        1 FTA     -0.156500
     12 C3          0.5430   -0.4410    0.0910 ca        1 FTA     -0.125000
     13 C2         -0.3580    0.6310   -0.0630 ca        1 FTA      0.093600
     14 N1         -1.7570    0.4570   -0.0110 nh        1 FTA     -0.608400
     15 C17        -2.3720   -0.6940   -0.3830 c2        1 FTA      0.194000
     16 C14        -3.7240   -0.9580   -0.3830 ce        1 FTA     -0.217500
     17 C18        -4.1450   -2.2470   -0.7980 cg        1 FTA      0.219500
     18 N21        -4.4960   -3.3040   -1.1370 n1        1 FTA     -0.381800
     19 C13        -4.7680   -0.0360    0.0030 cc        1 FTA      0.587800
     20 N15        -6.1130   -0.3110    0.0810 nd        1 FTA     -0.491800
     21 N19        -6.6330    0.8600    0.4690 na        1 FTA      0.103900
     22 N20        -5.7150    1.8290    0.6370 nd        1 FTA     -0.143800
     23 N16        -4.5750    1.3410    0.3670 nc        1 FTA     -0.419000
     24 H8          4.0900    2.0750   -0.7410 hn        1 FTA      0.418800
     25 H26         5.9430    0.9140   -1.7100 ha        1 FTA      0.138500
     26 H28         7.7450   -0.7300   -1.3140 ha        1 FTA      0.134500
     27 H30         7.6600   -2.2520    0.6620 ha        1 FTA      0.135000
     28 H29         5.7500   -2.1010    2.2620 ha        1 FTA      0.134500
     29 H27         3.9400   -0.4480    1.9080 ha        1 FTA      0.138500
     30 H6          1.9110    3.1690   -0.4190 ha        1 FTA      0.146000
     31 H4         -0.5090    2.7920   -0.3680 ha        1 FTA      0.141000
     32 H5          2.5860   -1.0950    0.1500 ha        1 FTA      0.146000
     33 H3          0.1770   -1.4670    0.2540 ha        1 FTA      0.141000
     34 H1         -2.2880    1.2680    0.2270 hn        1 FTA      0.471800
     35 H17        -1.6920   -1.5100   -0.7180 h4        1 FTA      0.160000
     36 H19        -7.6140    0.9850    0.6190 hn        1 FTA      0.353700
@<TRIPOS>BOND
     1    1    2 1   
     2    1    8 1   
     3    1   24 1   
     4    2    3 ar  
     5    2    7 ar  
     6    3    4 ar  
     7    3   25 1   
     8    4    5 ar  
     9    4   26 1   
    10    5    6 ar  
    11    5   27 1   
    12    6    7 ar  
    13    6   28 1   
    14    7   29 1   
    15    8    9 ar  
    16    8   11 ar  
    17    9   10 ar  
    18    9   30 1   
    19   10   13 ar  
    20   10   31 1   
    21   11   12 ar  
    22   11   32 1   
    23   12   13 ar  
    24   12   33 1   
    25   13   14 1   
    26   14   15 1   
    27   14   34 1   
    28   15   16 2   
    29   15   35 1   
    30   16   17 1   
    31   16   19 1   
    32   17   18 3   
    33   19   20 2   
    34   19   23 1   
    35   20   21 1   
    36   21   22 1   
    37   21   36 1   
    38   22   23 2   
@<TRIPOS>SUBSTRUCTURE
     1 FTA         1 TEMP              0 ****  ****    0 ROOT
