@<TRIPOS>MOLECULE
FTA
   36    38     1     0     0
SMALL
bcc


@<TRIPOS>ATOM
      1 N8          0.2140    0.3940    0.0820 nu        1 FTA     -0.626000
      2 C24         1.5870    0.0800    0.0660 ca        1 FTA      0.143600
      3 C26         2.2450   -0.1040    1.3060 ca        1 FTA     -0.174500
      4 C28         3.6070   -0.3770    1.3420 ca        1 FTA     -0.100500
      5 C30         4.3460   -0.4750    0.1630 ca        1 FTA     -0.157000
      6 C29         3.7050   -0.3070   -1.0620 ca        1 FTA     -0.100500
      7 C27         2.3410   -0.0400   -1.1210 ca        1 FTA     -0.174500
      8 C7         -0.4930    0.7710   -1.0700 ca        1 FTA      0.137600
      9 C6         -1.7820    0.2440   -1.3190 ca        1 FTA     -0.147000
     10 C4         -2.5400    0.6880   -2.3920 ca        1 FTA     -0.131500
     11 C5          0.0050    1.7530   -1.9540 ca        1 FTA     -0.147000
     12 C3         -0.7460    2.1850   -3.0390 ca        1 FTA     -0.131500
     13 C2         -2.0360    1.6680   -3.2750 ca        1 FTA      0.102600
     14 N1         -2.8220    2.0720   -4.3730 nu        1 FTA     -0.610400
     15 C17        -2.7220    3.3010   -4.9430 c2        1 FTA      0.193000
     16 C14        -3.4500    3.7920   -6.0030 ce        1 FTA     -0.213500
     17 C18        -3.1630    5.1080   -6.4490 cg        1 FTA      0.218500
     18 N21        -2.9320    6.1870   -6.8180 n1        1 FTA     -0.379800
     19 C13        -4.4910    3.0880   -6.7170 cc        1 FTA      0.586800
     20 N15        -5.1780    3.5420   -7.8180 nd        1 FTA     -0.490800
     21 N19        -6.0180    2.5330   -8.0790 na        1 FTA      0.104900
     22 N20        -5.9010    1.4980   -7.2290 nd        1 FTA     -0.142800
     23 N16        -4.9940    1.7820   -6.3880 nc        1 FTA     -0.419000
     24 H8         -0.3160   -0.1400    0.7390 hn        1 FTA      0.420800
     25 H26         1.6830   -0.0270    2.2490 ha        1 FTA      0.138500
     26 H28         4.1060   -0.5130    2.3140 ha        1 FTA      0.133000
     27 H30         5.4240   -0.6870    0.2010 ha        1 FTA      0.135000
     28 H29         4.2780   -0.3920   -1.9980 ha        1 FTA      0.133000
     29 H27         1.8550    0.0690   -2.1030 ha        1 FTA      0.138500
     30 H6         -2.2070   -0.5230   -0.6530 ha        1 FTA      0.145500
     31 H4         -3.5420    0.2580   -2.5510 ha        1 FTA      0.141500
     32 H5          1.0010    2.1920   -1.7840 ha        1 FTA      0.145500
     33 H3         -0.3070    2.9370   -3.7130 ha        1 FTA      0.141500
     34 H1         -3.5390    1.4360   -4.6540 hn        1 FTA      0.471800
     35 H17        -1.9560    3.9730   -4.4930 h4        1 FTA      0.161000
     36 H19        -6.6650    2.5620   -8.8420 hn        1 FTA      0.353700
@<TRIPOS>BOND
     1    1    2 1   
     2    1    8 1   
     3    1   24 1   
     4    2    3 ar  
     5    2    7 ar  
     6    3    4 ar  
     7    3   25 1   
     8    4    5 ar  
     9    4   26 1   
    10    5    6 ar  
    11    5   27 1   
    12    6    7 ar  
    13    6   28 1   
    14    7   29 1   
    15    8    9 ar  
    16    8   11 ar  
    17    9   10 ar  
    18    9   30 1   
    19   10   13 ar  
    20   10   31 1   
    21   11   12 ar  
    22   11   32 1   
    23   12   13 ar  
    24   12   33 1   
    25   13   14 1   
    26   14   15 1   
    27   14   34 1   
    28   15   16 2   
    29   15   35 1   
    30   16   17 1   
    31   16   19 1   
    32   17   18 3   
    33   19   20 2   
    34   19   23 1   
    35   20   21 1   
    36   21   22 1   
    37   21   36 1   
    38   22   23 2   
@<TRIPOS>SUBSTRUCTURE
     1 FTA         1 TEMP              0 ****  ****    0 ROOT
