@<TRIPOS>MOLECULE
FTA
   36    32     1     0     0
SMALL
bcc


@<TRIPOS>ATOM
      1 N8          2.9760    1.5500    1.1770 n3        1 FTA     -0.253000
      2 C24         2.2580    2.3540    2.0580 c2        1 FTA      0.055500
      3 C26         2.0640    3.6990    1.7710 c2        1 FTA     -0.164000
      4 C28         1.3930    4.5100    2.6700 c1        1 FTA     -0.116500
      5 C30         0.9180    3.9850    3.8470 c1        1 FTA     -0.129000
      6 C29         1.1130    2.6350    4.1340 c1        1 FTA     -0.129000
      7 C27         1.7830    1.8260    3.2360 c1        1 FTA     -0.154000
      8 C7          2.2780    0.6410    0.2950 c2        1 FTA      0.055500
      9 C6          2.2900   -0.7420    0.5570 c2        1 FTA     -0.164000
     10 C4          1.5550   -1.6090   -0.2480 c1        1 FTA     -0.116500
     11 C5          1.5390    1.1360   -0.7590 c1        1 FTA     -0.154000
     12 C3          0.8140    0.2800   -1.5530 c1        1 FTA     -0.125000
     13 C2          0.8250   -1.1170   -1.2900 c1        1 FTA      0.017000
     14 N1          0.0020   -2.0160   -2.0910 n3        1 FTA     -0.251000
     15 C17        -1.4340   -2.0730   -1.8640 c2        1 FTA      0.110000
     16 C14        -2.1760   -2.9370   -2.5270 c1        1 FTA     -0.137000
     17 C18        -1.5430   -3.8690   -3.5220 c1        1 FTA     -0.079000
     18 N21        -1.0590   -4.5800   -4.2850 n1        1 FTA     -0.059000
     19 C13        -3.7330   -2.9980   -2.2700 c2        1 FTA     -0.051000
     20 N15        -4.6770   -2.2960   -2.9320 nc        1 FTA     -0.094500
     21 N19        -5.8750   -2.6320   -2.4240 nc        1 FTA     -0.083500
     22 N20        -5.6730   -3.5440   -1.4440 nc        1 FTA     -0.083500
     23 N16        -4.3530   -3.7680   -1.3510 nc        1 FTA     -0.094500
     24 H8          3.8660    1.6310    1.1230 hn        1 FTA      0.214000
     25 H26         2.4140    4.0850    0.9040 ha        1 FTA      0.136500
     26 H28         1.2630    5.4140    2.4770 ha        1 FTA      0.137000
     27 H30         0.4160    4.5900    4.5180 ha        1 FTA      0.135000
     28 H29         0.7850    2.2710    4.9470 ha        1 FTA      0.135000
     29 H27         1.9170    0.8970    3.4330 ha        1 FTA      0.148500
     30 H6          2.7940   -1.0800    1.2740 ha        1 FTA      0.136500
     31 H4          1.5630   -2.6130   -0.0580 ha        1 FTA      0.137000
     32 H5          1.5320    2.0890   -0.9410 ha        1 FTA      0.148500
     33 H3          0.2990    0.6280   -2.2880 ha        1 FTA      0.143000
     34 H1          0.3910   -2.5790   -2.6840 hn        1 FTA      0.246000
     35 H17        -1.8590   -1.4540   -1.2050 h4        1 FTA      0.181000
     36 H19        -6.6620   -2.3110   -2.6850 DU        1 FTA      0.302000
@<TRIPOS>BOND
     1    1    2 1   
     2    1    8 1   
     3    1   24 1   
     4    2    3 1   
     5    2    7 1   
     6    3    4 1   
     7    3   25 1   
     8    4   26 1   
     9    5    6 1   
    10    5   27 1   
    11    6   28 1   
    12    7   29 1   
    13    8    9 1   
    14    8   11 1   
    15    9   10 1   
    16    9   30 1   
    17   10   31 1   
    18   11   32 1   
    19   12   13 1   
    20   12   33 1   
    21   13   14 1   
    22   14   15 1   
    23   14   34 1   
    24   15   16 1   
    25   15   35 1   
    26   16   19 1   
    27   17   18 1   
    28   19   20 1   
    29   19   23 1   
    30   20   21 1   
    31   21   22 1   
    32   22   23 1   
@<TRIPOS>SUBSTRUCTURE
     1 FTA         1 TEMP              0 ****  ****    0 ROOT
