@<TRIPOS>MOLECULE
FTB
   61    64     1     0     0
SMALL
bcc


@<TRIPOS>ATOM
      1 O33         1.9950   -1.6170    0.4310 o         1 FTB     -0.401100
      2 C32         1.2140   -0.7050    0.2230 c         1 FTB      0.560100
      3 C34        -0.1830   -0.5320    0.7050 c3        1 FTB     -0.183100
      4 N31         1.7700    0.4270   -0.6380 n4        1 FTB     -0.551200
      5 C28         1.2030    0.4050   -1.9880 ca        1 FTB     -0.068400
      6 C29         0.1410    1.2690   -2.3160 ca        1 FTB     -0.102500
      7 C30        -0.3690    1.2590   -3.6090 ca        1 FTB     -0.087500
      8 C27         1.7420   -0.4640   -2.9530 ca        1 FTB     -0.102500
      9 C26         1.2170   -0.4560   -4.2430 ca        1 FTB     -0.087500
     10 C25         0.1670    0.4050   -4.5840 ca        1 FTB     -0.009300
     11 C24        -0.3820    0.4130   -5.9710 c3        1 FTB     -0.075400
     12 C1          0.0310    1.6450   -6.7120 cc        1 FTB      0.422800
     13 N2          0.0340    2.9080   -6.1780 nd        1 FTB     -0.700000
     14 C3          0.4600    3.7380   -7.2260 cd        1 FTB      0.494200
     15 N6          0.6860    5.1050   -7.2420 n         1 FTB     -0.415300
     16 C12         0.2700    5.9480   -6.1380 c3        1 FTB      0.102000
     17 C13        -1.2280    6.2470   -6.0830 c3        1 FTB     -0.106400
     18 C14        -1.5310    7.1230   -4.8860 c3        1 FTB     -0.075400
     19 C15        -3.0020    7.4380   -4.7980 c3        1 FTB     -0.094100
     20 C4          0.7090    2.9470   -8.3930 cc        1 FTB     -0.336200
     21 N5          0.4380    1.6280   -8.0470 na        1 FTB     -0.246900
     22 C9          1.1660    3.5150   -9.6530 c         1 FTB      0.761100
     23 O10         1.3860    2.8370  -10.6720 o         1 FTB     -0.616500
     24 N8          1.3280    4.9130   -9.6280 n         1 FTB     -0.476400
     25 C7          1.0490    5.7090   -8.4840 c         1 FTB      0.811500
     26 O11         1.1350    6.9510   -8.5410 o         1 FTB     -0.603500
     27 C16         1.8190    5.5900  -10.8240 c3        1 FTB      0.142300
     28 C17         3.3130    5.6360  -10.9470 ca        1 FTB     -0.162300
     29 C18         4.0180    4.4880  -11.3250 ca        1 FTB     -0.090000
     30 C19         5.4000    4.5210  -11.4880 ca        1 FTB     -0.152000
     31 C20         6.1000    5.7110  -11.2790 ca        1 FTB     -0.091000
     32 C21         5.4250    6.8670  -10.9080 ca        1 FTB     -0.173000
     33 C22         4.0260    6.8360  -10.7390 ca        1 FTB      0.151900
     34 F           3.3800    7.9720  -10.3890 f         1 FTB     -0.126900
     35 H341       -0.5850   -1.5390    0.9980 hc        1 FTB      0.115367
     36 H342       -0.1890    0.1300    1.6100 hc        1 FTB      0.115367
     37 H343       -0.8450   -0.0910   -0.0830 hc        1 FTB      0.115367
     38 H31         1.5540    1.3270   -0.1960 hn        1 FTB      0.463300
     39 H29        -0.2860    1.9630   -1.5740 ha        1 FTB      0.158500
     40 H30        -1.1890    1.9500   -3.8760 ha        1 FTB      0.178000
     41 H27         2.5730   -1.1470   -2.7110 ha        1 FTB      0.158500
     42 H26         1.6470   -1.1340   -5.0000 ha        1 FTB      0.178000
     43 H241       -1.5090    0.3900   -5.9280 hc        1 FTB      0.087200
     44 H242       -0.0460   -0.5060   -6.5250 hc        1 FTB      0.087200
     45 H121        0.8360    6.9220   -6.2250 h1        1 FTB      0.075200
     46 H122        0.5850    5.4340   -5.1860 h1        1 FTB      0.075200
     47 H131       -1.5470    6.7700   -7.0220 hc        1 FTB      0.055200
     48 H132       -1.8110    5.2920   -6.0110 hc        1 FTB      0.055200
     49 H141       -0.9460    8.0780   -4.9630 hc        1 FTB      0.039200
     50 H142       -1.1980    6.6060   -3.9470 hc        1 FTB      0.039200
     51 H151       -3.6020    6.5020   -4.7000 hc        1 FTB      0.038033
     52 H152       -3.3440    7.9790   -5.7140 hc        1 FTB      0.038033
     53 H153       -3.2060    8.0850   -3.9110 hc        1 FTB      0.038033
     54 HN5         0.4940    0.8540   -8.6610 hn        1 FTB      0.331700
     55 H161        1.4070    6.6420  -10.8230 h1        1 FTB      0.095700
     56 H162        1.3990    5.0320  -11.7140 h1        1 FTB      0.095700
     57 H18         3.4600    3.5520  -11.4990 ha        1 FTB      0.157000
     58 H19         5.9390    3.6110  -11.7900 ha        1 FTB      0.140000
     59 H20         7.1930    5.7370  -11.4120 ha        1 FTB      0.141000
     60 H21         5.9650    7.8120  -10.7460 ha        1 FTB      0.154000
     61 H312        2.7930    0.3260   -0.7090 hn        1 FTB      0.463300
@<TRIPOS>BOND
     1    1    2 2   
     2    2    3 1   
     3    2    4 1   
     4    3   35 1   
     5    3   36 1   
     6    3   37 1   
     7    4    5 1   
     8    4   38 1   
     9    4   61 1   
    10    5    6 ar  
    11    5    8 ar  
    12    6    7 ar  
    13    6   39 1   
    14    7   10 ar  
    15    7   40 1   
    16    8    9 ar  
    17    8   41 1   
    18    9   10 ar  
    19    9   42 1   
    20   10   11 1   
    21   11   12 1   
    22   11   43 1   
    23   11   44 1   
    24   12   13 2   
    25   12   21 1   
    26   13   14 1   
    27   14   15 1   
    28   14   20 2   
    29   15   16 1   
    30   15   25 1   
    31   16   17 1   
    32   16   45 1   
    33   16   46 1   
    34   17   18 1   
    35   17   47 1   
    36   17   48 1   
    37   18   19 1   
    38   18   49 1   
    39   18   50 1   
    40   19   51 1   
    41   19   52 1   
    42   19   53 1   
    43   20   21 1   
    44   20   22 1   
    45   21   54 1   
    46   22   23 2   
    47   22   24 1   
    48   24   25 1   
    49   24   27 1   
    50   25   26 2   
    51   27   28 1   
    52   27   55 1   
    53   27   56 1   
    54   28   29 ar  
    55   28   33 ar  
    56   29   30 ar  
    57   29   57 1   
    58   30   31 ar  
    59   30   58 1   
    60   31   32 ar  
    61   31   59 1   
    62   32   33 ar  
    63   32   60 1   
    64   33   34 1   
@<TRIPOS>SUBSTRUCTURE
     1 FTB         1 TEMP              0 ****  ****    0 ROOT
