@<TRIPOS>MOLECULE
FTB
   60    53     1     0     0
SMALL
bcc


@<TRIPOS>ATOM
      1 O33        -0.5790   -6.4000    4.9050 o         1 FTB     -0.343000
      2 C32         0.5840   -6.0570    4.8980 c1        1 FTB      0.311000
      3 C34         1.6020   -6.8350    5.6800 c2        1 FTB     -0.247000
      4 N31         0.9820   -4.8670    4.1890 n3        1 FTB     -0.330000
      5 C28        -0.0160   -4.0700    3.4780 c2        1 FTB      0.093000
      6 C29        -0.7900   -3.1460    4.1700 c2        1 FTB     -0.157000
      7 C30        -1.6830   -2.3290    3.4780 c1        1 FTB     -0.086000
      8 C27        -0.1330   -4.1780    2.1030 c1        1 FTB     -0.187000
      9 C26        -1.0200   -3.3660    1.4160 c1        1 FTB     -0.106000
     10 C25        -1.7970   -2.4390    2.1080 c1        1 FTB     -0.138000
     11 C24        -2.7540   -1.5340    1.3480 c3        1 FTB     -0.055000
     12 C1         -1.9520   -0.5950    0.4320 c2        1 FTB      0.014000
     13 N2         -1.7960    0.7290    0.6130 n2        1 FTB     -0.165000
     14 C3         -1.0900    1.2240   -0.4540 c1        1 FTB      0.078000
     15 N6         -0.6360    2.4770   -0.7450 n2        1 FTB     -0.226000
     16 C12        -0.9600    3.5930    0.1390 c3        1 FTB     -0.013000
     17 C13        -2.0740    4.3840   -0.4470 c3        1 FTB     -0.183000
     18 C14        -2.1870    5.7400    0.2840 c3        1 FTB     -0.156000
     19 C15        -3.0530    6.6880   -0.5360 c3        1 FTB     -0.210000
     20 C4         -0.8160    0.1950   -1.2860 c1        1 FTB     -0.243000
     21 N5         -1.3470   -0.9350   -0.7440 n1        1 FTB     -0.139000
     22 C9         -0.0670    0.4160   -2.4430 c1        1 FTB      0.398000
     23 O10         0.2340   -0.5480   -3.1880 o         1 FTB     -0.337000
     24 N8          0.3800    1.6490   -2.7280 n2        1 FTB     -0.311000
     25 C7          0.1000    2.6930   -1.8810 c1        1 FTB      0.405000
     26 O11         0.5040    3.8080   -2.1390 o         1 FTB     -0.376000
     27 C16         1.1230    1.8850   -3.9510 c3        1 FTB      0.019000
     28 C17         2.4180    1.0820   -3.9230 c2        1 FTB     -0.143000
     29 C18         3.5470    1.6060   -3.3090 c2        1 FTB     -0.089000
     30 C19         4.7410    0.8900   -3.3190 c1        1 FTB     -0.151000
     31 C20         4.8020   -0.3540   -3.9460 c1        1 FTB     -0.136500
     32 C21         3.6730   -0.8780   -4.5590 c1        1 FTB     -0.136500
     33 C22         2.4790   -0.1600   -4.5490 c1        1 FTB      0.112000
     34 F           1.3530   -0.7010   -5.1030 f         1 FTB     -0.098000
     35 H341        1.1660   -7.6030    6.1150 ha        1 FTB      0.110333
     36 H342        2.0010   -6.2570    6.3610 ha        1 FTB      0.110333
     37 H343        2.2920   -7.1520    5.0830 ha        1 FTB      0.110333
     38 H31         1.8930   -4.6270    4.1470 hn        1 FTB      0.230000
     39 H29        -0.7090   -3.0700    5.1370 ha        1 FTB      0.180000
     40 H30        -2.2360   -1.6710    3.9700 ha        1 FTB      0.142000
     41 H27         0.4150   -4.8310    1.6120 ha        1 FTB      0.134000
     42 H26        -1.1020   -3.4450    0.4280 ha        1 FTB      0.137000
     43 H241       -3.2770   -1.0010    1.9850 hc        1 FTB      0.123500
     44 H242       -3.3480   -2.0720    0.8150 hc        1 FTB      0.123500
     45 H121       -0.1830    4.1590    0.2420 h1        1 FTB      0.116500
     46 H122       -1.2350    3.2430    1.0280 h1        1 FTB      0.116500
     47 H131       -1.8960    4.5420   -1.4080 hc        1 FTB      0.094000
     48 H132       -2.9050    3.8930   -0.3480 hc        1 FTB      0.094000
     49 H141       -2.6040    5.6030    1.1820 hc        1 FTB      0.081000
     50 H142       -1.2790    6.1330    0.3960 hc        1 FTB      0.081000
     51 H151       -3.9670    6.2990   -0.6390 hc        1 FTB      0.074000
     52 H152       -3.1160    7.5700   -0.0680 hc        1 FTB      0.074000
     53 H153       -2.6440    6.8170   -1.4360 hc        1 FTB      0.074000
     54 HN5        -1.3630   -1.7550   -1.1340 DU        1 FTB      0.282000
     55 H161        0.5830    1.6040   -4.7210 h1        1 FTB      0.130000
     56 H162        1.3300    2.8350   -4.0280 h1        1 FTB      0.130000
     57 H18         3.5040    2.4860   -2.8660 ha        1 FTB      0.162000
     58 H19         5.5300    1.2550   -2.8920 ha        1 FTB      0.138000
     59 H20         5.6640   -0.8730   -3.9530 ha        1 FTB      0.142000
     60 H21         3.7160   -1.7470   -4.9980 ha        1 FTB      0.142000
@<TRIPOS>BOND
     1    1    2 1   
     2    2    4 1   
     3    3   35 1   
     4    3   36 1   
     5    3   37 1   
     6    4    5 1   
     7    4   38 1   
     8    5    6 1   
     9    5    8 1   
    10    6    7 1   
    11    6   39 1   
    12    7   40 1   
    13    8   41 1   
    14    9   10 1   
    15    9   42 1   
    16   10   11 1   
    17   11   12 1   
    18   11   43 1   
    19   11   44 1   
    20   12   13 1   
    21   12   21 1   
    22   13   14 1   
    23   14   20 1   
    24   15   16 1   
    25   15   25 1   
    26   16   17 1   
    27   16   45 1   
    28   16   46 1   
    29   17   18 1   
    30   17   47 1   
    31   17   48 1   
    32   18   19 1   
    33   18   49 1   
    34   18   50 1   
    35   19   51 1   
    36   19   52 1   
    37   19   53 1   
    38   22   23 1   
    39   22   24 1   
    40   24   27 1   
    41   25   26 1   
    42   27   28 1   
    43   27   55 1   
    44   27   56 1   
    45   28   29 1   
    46   28   33 1   
    47   29   30 1   
    48   29   57 1   
    49   30   58 1   
    50   31   32 1   
    51   31   59 1   
    52   32   60 1   
    53   33   34 1   
@<TRIPOS>SUBSTRUCTURE
     1 FTB         1 TEMP              0 ****  ****    0 ROOT
