@<TRIPOS>MOLECULE
FTB
   60    63     1     0     0
SMALL
bcc


@<TRIPOS>ATOM
      1 O33        -3.2540   -1.8290    7.1360 o         1 FTB     -0.582100
      2 C32        -3.7050   -0.6740    7.0590 c         1 FTB      0.667100
      3 C34        -4.9750   -0.2800    7.7790 c3        1 FTB     -0.179100
      4 N31        -3.0930    0.3330    6.3180 n         1 FTB     -0.476100
      5 C28        -1.9190    0.2460    5.5590 ca        1 FTB      0.084600
      6 C29        -1.1630   -0.9390    5.4290 ca        1 FTB     -0.172000
      7 C30        -0.0070   -0.9520    4.6540 ca        1 FTB     -0.095500
      8 C27        -1.4660    1.4100    4.8850 ca        1 FTB     -0.172000
      9 C26        -0.3100    1.3760    4.1190 ca        1 FTB     -0.095500
     10 C25         0.4330    0.1960    3.9900 ca        1 FTB     -0.145300
     11 C24         1.6850    0.1750    3.1870 c3        1 FTB     -0.063400
     12 C1          1.4370    0.1480    1.7110 cc        1 FTB      0.462800
     13 N2          2.4150   -0.0700    0.7720 nd        1 FTB     -0.693000
     14 C3          1.7490    0.0040   -0.4580 cd        1 FTB      0.493200
     15 N6          2.2400   -0.1720   -1.7450 n         1 FTB     -0.412300
     16 C12         3.6610   -0.3130   -1.9920 c3        1 FTB      0.103000
     17 C13         4.4530    0.9930   -1.9440 c3        1 FTB     -0.104400
     18 C14         5.9180    0.7110   -2.2010 c3        1 FTB     -0.077400
     19 C15         6.7330    1.9780   -2.1660 c3        1 FTB     -0.092100
     20 C4          0.3590    0.2750   -0.2430 cc        1 FTB     -0.359200
     21 N5          0.1850    0.3650    1.1350 na        1 FTB     -0.254900
     22 C9         -0.5960    0.4100   -1.3250 c         1 FTB      0.763100
     23 O10        -1.8090    0.6410   -1.1660 o         1 FTB     -0.637500
     24 N8         -0.0330    0.2730   -2.6120 n         1 FTB     -0.481400
     25 C7          1.3520    0.0350   -2.8350 c         1 FTB      0.812500
     26 O11         1.8000   -0.0100   -4.0000 o         1 FTB     -0.626500
     27 C16        -0.9000    0.3590   -3.7780 c3        1 FTB      0.142300
     28 C17        -1.5080   -0.9450   -4.2070 ca        1 FTB     -0.150300
     29 C18        -2.4280   -1.5960   -3.3790 ca        1 FTB     -0.090000
     30 C19        -3.0230   -2.7910   -3.7730 ca        1 FTB     -0.151000
     31 C20        -2.7080   -3.3540   -5.0110 ca        1 FTB     -0.098000
     32 C21        -1.8030   -2.7240   -5.8580 ca        1 FTB     -0.175000
     33 C22        -1.1990   -1.5150   -5.4600 ca        1 FTB      0.148900
     34 F          -0.3310   -0.9080   -6.3030 f         1 FTB     -0.131900
     35 H341       -5.3590   -1.1730    8.3320 hc        1 FTB      0.071033
     36 H342       -4.7750    0.5400    8.5100 hc        1 FTB      0.071033
     37 H343       -5.7520    0.0570    7.0520 hc        1 FTB      0.071033
     38 H31        -3.5340    1.2260    6.3240 hn        1 FTB      0.316500
     39 H29        -1.4770   -1.8660    5.9380 ha        1 FTB      0.157000
     40 H30         0.5670   -1.8890    4.5690 ha        1 FTB      0.139500
     41 H27        -2.0250    2.3550    4.9650 ha        1 FTB      0.157000
     42 H26         0.0300    2.2930    3.6120 ha        1 FTB      0.139500
     43 H241        2.3060   -0.7240    3.4570 hc        1 FTB      0.084700
     44 H242        2.3010    1.0900    3.4170 hc        1 FTB      0.084700
     45 H121        3.7830   -0.7810   -3.0110 h1        1 FTB      0.077700
     46 H122        4.0690   -1.0230   -1.2170 h1        1 FTB      0.077700
     47 H131        4.3320    1.4820   -0.9420 hc        1 FTB      0.054200
     48 H132        4.0640    1.7040   -2.7200 hc        1 FTB      0.054200
     49 H141        6.0350    0.2150   -3.2010 hc        1 FTB      0.041700
     50 H142        6.3030   -0.0060   -1.4280 hc        1 FTB      0.041700
     51 H151        7.8100    1.7510   -2.3570 hc        1 FTB      0.034367
     52 H152        6.3800    2.6950   -2.9460 hc        1 FTB      0.034367
     53 H153        6.6470    2.4750   -1.1690 hc        1 FTB      0.034367
     54 HN5        -0.6720    0.5160    1.6040 hn        1 FTB      0.330700
     55 H161       -1.7370    1.0730   -3.5190 h1        1 FTB      0.091200
     56 H162       -0.2980    0.7930   -4.6300 h1        1 FTB      0.091200
     57 H18        -2.6830   -1.1430   -2.4050 ha        1 FTB      0.159000
     58 H19        -3.7430   -3.2900   -3.1090 ha        1 FTB      0.137000
     59 H20        -3.1760   -4.3000   -5.3210 ha        1 FTB      0.136000
     60 H21        -1.5490   -3.1560   -6.8370 ha        1 FTB      0.148000
@<TRIPOS>BOND
     1    1    2 2   
     2    2    3 1   
     3    2    4 1   
     4    3   35 1   
     5    3   36 1   
     6    3   37 1   
     7    4    5 1   
     8    4   38 1   
     9    5    6 ar  
    10    5    8 ar  
    11    6    7 ar  
    12    6   39 1   
    13    7   10 ar  
    14    7   40 1   
    15    8    9 ar  
    16    8   41 1   
    17    9   10 ar  
    18    9   42 1   
    19   10   11 1   
    20   11   12 1   
    21   11   43 1   
    22   11   44 1   
    23   12   13 2   
    24   12   21 1   
    25   13   14 1   
    26   14   15 1   
    27   14   20 2   
    28   15   16 1   
    29   15   25 1   
    30   16   17 1   
    31   16   45 1   
    32   16   46 1   
    33   17   18 1   
    34   17   47 1   
    35   17   48 1   
    36   18   19 1   
    37   18   49 1   
    38   18   50 1   
    39   19   51 1   
    40   19   52 1   
    41   19   53 1   
    42   20   21 1   
    43   20   22 1   
    44   21   54 1   
    45   22   23 2   
    46   22   24 1   
    47   24   25 1   
    48   24   27 1   
    49   25   26 2   
    50   27   28 1   
    51   27   55 1   
    52   27   56 1   
    53   28   29 ar  
    54   28   33 ar  
    55   29   30 ar  
    56   29   57 1   
    57   30   31 ar  
    58   30   58 1   
    59   31   32 ar  
    60   31   59 1   
    61   32   33 ar  
    62   32   60 1   
    63   33   34 1   
@<TRIPOS>SUBSTRUCTURE
     1 FTB         1 TEMP              0 ****  ****    0 ROOT
