@<TRIPOS>MOLECULE
FTC
   39    35     1     0     0
SMALL
bcc


@<TRIPOS>ATOM
      1 C1          0.3530   -0.4690    5.2800 c1        1 FTC      0.092000
      2 N2          0.8610   -1.6900    5.0180 n1        1 FTC     -0.172000
      3 C3          1.3680   -2.4650    6.0440 c1        1 FTC     -0.044000
      4 C4          1.3570   -1.9940    7.3270 c1        1 FTC     -0.130000
      5 C5          0.8440   -0.7580    7.5940 c1        1 FTC     -0.081000
      6 C6          0.3410    0.0090    6.5770 c1        1 FTC     -0.138000
      7 CL7         2.1280   -2.9010    8.5880 cl        1 FTC      0.007000
      8 N8         -0.2690    0.2960    4.2200 n         1 FTC     -0.269000
      9 C9          0.0250   -0.0020    2.8700 c2        1 FTC      0.161000
     10 S9          1.2230   -1.0980    2.5030 s         1 FTC     -0.279000
     11 N10        -0.6480    0.7110    1.8120 n         1 FTC     -0.336000
     12 C11         0.0350    0.9570    0.5550 c3        1 FTC     -0.032000
     13 C12        -0.9550    0.7990   -0.6110 c3        1 FTC     -0.135000
     14 C13        -0.1830    0.8680   -1.9530 c2        1 FTC     -0.016000
     15 N14         1.1700    1.1470   -1.9550 n2        1 FTC     -0.152000
     16 C15         1.8480    1.2590   -3.1430 c1        1 FTC     -0.044000
     17 C16         1.1670    1.0900   -4.3600 c1        1 FTC     -0.242000
     18 C17        -0.1770    0.8130   -4.3620 c1        1 FTC      0.091000
     19 C18        -0.8630    0.7000   -3.1570 c1        1 FTC      0.020000
     20 O17        -0.8790    0.7970   -5.5600 os        1 FTC     -0.194000
     21 CA         -0.6990   -0.4060   -6.3310 c3        1 FTC     -0.023000
     22 CB         -1.8150   -0.4990   -7.4120 c3        1 FTC     -0.219000
     23 F18        -2.1840    0.6260   -3.1590 f         1 FTC     -0.079000
     24 H3          1.7340   -3.3460    5.8540 ha        1 FTC      0.174000
     25 H5          0.8350   -0.4270    8.4920 ha        1 FTC      0.158000
     26 H6         -0.0270    0.8950    6.7690 ha        1 FTC      0.194000
     27 HN8        -0.9410    0.9150    4.4230 hn        1 FTC      0.226000
     28 H10        -1.4910    1.0380    1.9450 hn        1 FTC      0.222000
     29 H111        0.3950    1.8650    0.5540 h1        1 FTC      0.131000
     30 H112        0.7640    0.3180    0.4490 h1        1 FTC      0.131000
     31 H121       -1.6230    1.5240   -0.5760 hc        1 FTC      0.108500
     32 H122       -1.4070   -0.0640   -0.5400 hc        1 FTC      0.108500
     33 H15         2.7840    1.4520   -3.1420 ha        1 FTC      0.165000
     34 H16         1.6400    1.1680   -5.1890 ha        1 FTC      0.153000
     35 HA1        -0.7540   -1.2120   -5.7190 h1        1 FTC      0.081500
     36 HA2         0.1990   -0.3860   -6.7800 h1        1 FTC      0.081500
     37 HB1        -1.7610    0.2960   -8.0170 hc        1 FTC      0.093000
     38 HB2        -1.6950   -1.3100   -7.9330 hc        1 FTC      0.093000
     39 HB3        -2.6960   -0.5180   -6.9740 hc        1 FTC      0.093000
@<TRIPOS>BOND
     1    1    6 1   
     2    1    8 1   
     3    2    3 1   
     4    3   24 1   
     5    4    5 1   
     6    4    7 1   
     7    5   25 1   
     8    6   26 1   
     9    8    9 1   
    10    8   27 1   
    11    9   10 1   
    12    9   11 1   
    13   11   12 1   
    14   11   28 1   
    15   12   13 1   
    16   12   29 1   
    17   12   30 1   
    18   13   14 1   
    19   13   31 1   
    20   13   32 1   
    21   14   15 1   
    22   14   19 1   
    23   15   16 1   
    24   16   33 1   
    25   17   18 1   
    26   17   34 1   
    27   18   20 1   
    28   19   23 1   
    29   20   21 1   
    30   21   22 1   
    31   21   35 1   
    32   21   36 1   
    33   22   37 1   
    34   22   38 1   
    35   22   39 1   
@<TRIPOS>SUBSTRUCTURE
     1 FTC         1 TEMP              0 ****  ****    0 ROOT
