@<TRIPOS>MOLECULE
FTC
   40    41     1     0     0
SMALL
bcc


@<TRIPOS>ATOM
      1 C1          0.1020   -0.3940   -0.3950 ca        1 FTC      0.434200
      2 N2          1.3810    0.0730   -0.5440 nb        1 FTC     -0.669000
      3 C3          2.2400   -0.1580    0.4520 ca        1 FTC      0.430200
      4 C4          1.8910   -0.8560    1.6380 ca        1 FTC     -0.079900
      5 C5          0.5840   -1.3270    1.7760 ca        1 FTC     -0.080000
      6 C6         -0.3380   -1.0960    0.7500 ca        1 FTC     -0.185300
      7 Cl7         3.0420   -1.0990    2.8400 cl        1 FTC     -0.011400
      8 N8         -0.8340   -0.1730   -1.4650 ns        1 FTC     -0.459400
      9 C9         -0.9700    1.0910   -1.9930 c         1 FTC      0.305400
     10 S9         -0.7750    2.4870   -1.3500 s         1 FTC     -0.106400
     11 N10        -1.5170    1.1250   -3.4300 ny        1 FTC     -0.652800
     12 C11        -0.6050    0.4820   -4.4200 c3        1 FTC      0.101800
     13 C12        -1.0350    0.7570   -5.8590 c3        1 FTC     -0.146700
     14 C13        -0.0560    0.1690   -6.8350 ca        1 FTC      0.367600
     15 N14         0.5250   -1.0250   -6.5540 nb        1 FTC     -0.700000
     16 C15         1.3620   -1.5480   -7.4600 ca        1 FTC      0.436200
     17 C16         1.6780   -0.9410   -8.6900 ca        1 FTC     -0.291300
     18 C17         1.0890    0.2910   -8.9890 ca        1 FTC      0.158100
     19 C18         0.1950    0.8720   -8.0390 ca        1 FTC     -0.001400
     20 O17         1.2850    1.0210  -10.1260 os        1 FTC     -0.303900
     21 CA          2.1690    0.4440  -11.1100 c3        1 FTC      0.127400
     22 CB          2.1980    1.4300  -12.2530 c3        1 FTC     -0.104100
     23 F18        -0.3930    2.0600   -8.2910 f         1 FTC     -0.110900
     24 H3          3.2660    0.2340    0.3020 h4        1 FTC      0.060100
     25 H5          0.2710   -1.8730    2.6820 ha        1 FTC      0.179000
     26 H6         -1.3740   -1.4540    0.8450 ha        1 FTC      0.169000
     27 HN8        -1.0020   -0.9870   -2.0240 hn        1 FTC      0.332500
     28 H10        -2.4390    0.6780   -3.4820 hn        1 FTC      0.455800
     29 H111       -0.5980   -0.6300   -4.2280 hx        1 FTC      0.118200
     30 H112        0.4370    0.8810   -4.2480 hx        1 FTC      0.118200
     31 H121       -2.0450    0.3070   -6.0600 hc        1 FTC      0.080700
     32 H122       -1.1060    1.8650   -6.0430 hc        1 FTC      0.080700
     33 H15         1.8100   -2.5230   -7.1890 h4        1 FTC      0.041100
     34 H16         2.3700   -1.4330   -9.3860 ha        1 FTC      0.170000
     35 HA1         3.1850    0.3110  -10.6530 h1        1 FTC      0.049200
     36 HA2         1.7600   -0.5490  -11.4310 h1        1 FTC      0.049200
     37 HB1         1.1740    1.5730  -12.6740 hc        1 FTC      0.060700
     38 HB2         2.8720    1.0360  -13.0520 hc        1 FTC      0.060700
     39 HB3         2.5790    2.4210  -11.9080 hc        1 FTC      0.060700
     40 H102       -1.6310    2.1280   -3.6620 hn        1 FTC      0.455800
@<TRIPOS>BOND
     1    1    2 ar  
     2    1    6 ar  
     3    1    8 1   
     4    2    3 ar  
     5    3    4 ar  
     6    3   24 1   
     7    4    5 ar  
     8    4    7 1   
     9    5    6 ar  
    10    5   25 1   
    11    6   26 1   
    12    8    9 1   
    13    8   27 1   
    14    9   10 2   
    15    9   11 1   
    16   11   12 1   
    17   11   28 1   
    18   11   40 1   
    19   12   13 1   
    20   12   29 1   
    21   12   30 1   
    22   13   14 1   
    23   13   31 1   
    24   13   32 1   
    25   14   15 ar  
    26   14   19 ar  
    27   15   16 ar  
    28   16   17 ar  
    29   16   33 1   
    30   17   18 ar  
    31   17   34 1   
    32   18   19 ar  
    33   18   20 1   
    34   19   23 1   
    35   20   21 1   
    36   21   22 1   
    37   21   35 1   
    38   21   36 1   
    39   22   37 1   
    40   22   38 1   
    41   22   39 1   
@<TRIPOS>SUBSTRUCTURE
     1 FTC         1 TEMP              0 ****  ****    0 ROOT
