@<TRIPOS>MOLECULE
FTC
   40    41     1     0     0
SMALL
bcc


@<TRIPOS>ATOM
      1 C1          0.0970   -0.4220   -0.3960 ca        1 FTC      0.434200
      2 N2          1.3690    0.0670   -0.5370 nb        1 FTC     -0.669000
      3 C3          2.2270   -0.1540    0.4610 ca        1 FTC      0.430200
      4 C4          1.8850   -0.8660    1.6410 ca        1 FTC     -0.079900
      5 C5          0.5860   -1.3600    1.7710 ca        1 FTC     -0.080000
      6 C6         -0.3360   -1.1380    0.7420 ca        1 FTC     -0.185300
      7 CL7         3.0350   -1.0960    2.8470 cl        1 FTC     -0.011400
      8 N8         -0.8380   -0.2100   -1.4690 n         1 FTC     -0.459400
      9 C9         -0.9920    1.0540   -1.9910 c         1 FTC      0.305400
     10 S9         -0.8220    2.4500   -1.3410 s         1 FTC     -0.106400
     11 N10        -1.5340    1.0860   -3.4310 n4        1 FTC     -0.652800
     12 C11        -0.6070    0.4620   -4.4200 c3        1 FTC      0.102800
     13 C12        -1.0360    0.7380   -5.8590 c3        1 FTC     -0.146700
     14 C13        -0.0440    0.1700   -6.8340 ca        1 FTC      0.367600
     15 N14         0.5630   -1.0100   -6.5530 nb        1 FTC     -0.700000
     16 C15         1.4110   -1.5150   -7.4600 ca        1 FTC      0.436200
     17 C16         1.7140   -0.9010   -8.6890 ca        1 FTC     -0.291300
     18 C17         1.0980    0.3170   -8.9890 ca        1 FTC      0.158100
     19 C18         0.1900    0.8780   -8.0390 ca        1 FTC     -0.001400
     20 O17         1.2770    1.0500  -10.1260 os        1 FTC     -0.303900
     21 CA          2.1740    0.4930  -11.1100 c3        1 FTC      0.127400
     22 CB          2.1810    1.4780  -12.2540 c3        1 FTC     -0.104100
     23 F18        -0.4230    2.0530   -8.2910 f         1 FTC     -0.110900
     24 H3          3.2470    0.2550    0.3180 h4        1 FTC      0.060100
     25 H5          0.2780   -1.9160    2.6720 ha        1 FTC      0.179000
     26 H6         -1.3660   -1.5140    0.8300 ha        1 FTC      0.169000
     27 HN8        -0.9910   -1.0240   -2.0330 hn        1 FTC      0.333500
     28 H10        -2.4480    0.6250   -3.4880 hn        1 FTC      0.455800
     29 H111        0.4270    0.8770   -4.2420 hx        1 FTC      0.118200
     30 H112       -0.5830   -0.6500   -4.2330 hx        1 FTC      0.118200
     31 H121       -1.1240    1.8450   -6.0380 hc        1 FTC      0.080700
     32 H122       -2.0380    0.2720   -6.0670 hc        1 FTC      0.080700
     33 H15         1.8810   -2.4800   -7.1880 h4        1 FTC      0.041100
     34 H16         2.4170   -1.3780   -9.3850 ha        1 FTC      0.170000
     35 HA1         1.7870   -0.5100  -11.4300 h1        1 FTC      0.049200
     36 HA2         3.1920    0.3830  -10.6530 h1        1 FTC      0.049200
     37 HB1         2.5390    2.4780  -11.9090 hc        1 FTC      0.060700
     38 HB2         1.1540    1.5980  -12.6750 hc        1 FTC      0.060700
     39 HB3         2.8630    1.0990  -13.0520 hc        1 FTC      0.060700
     40 H102       -1.6620    2.0890   -3.6580 hn        1 FTC      0.455800
@<TRIPOS>BOND
     1    1    2 ar  
     2    1    6 ar  
     3    1    8 1   
     4    2    3 ar  
     5    3    4 ar  
     6    3   24 1   
     7    4    5 ar  
     8    4    7 1   
     9    5    6 ar  
    10    5   25 1   
    11    6   26 1   
    12    8    9 1   
    13    8   27 1   
    14    9   10 2   
    15    9   11 1   
    16   11   12 1   
    17   11   28 1   
    18   11   40 1   
    19   12   13 1   
    20   12   29 1   
    21   12   30 1   
    22   13   14 1   
    23   13   31 1   
    24   13   32 1   
    25   14   15 ar  
    26   14   19 ar  
    27   15   16 ar  
    28   16   17 ar  
    29   16   33 1   
    30   17   18 ar  
    31   17   34 1   
    32   18   19 ar  
    33   18   20 1   
    34   19   23 1   
    35   20   21 1   
    36   21   22 1   
    37   21   35 1   
    38   21   36 1   
    39   22   37 1   
    40   22   38 1   
    41   22   39 1   
@<TRIPOS>SUBSTRUCTURE
     1 FTC         1 TEMP              0 ****  ****    0 ROOT
