@<TRIPOS>MOLECULE
FTC
   41    42     1     0     0
SMALL
bcc


@<TRIPOS>ATOM
      1 C1          0.2000    0.3450   -0.9030 ca        1 FTC      0.385200
      2 N2         -0.6370   -0.6880   -1.2270 nb        1 FTC     -0.716000
      3 C3         -1.7620   -0.8110   -0.5240 ca        1 FTC      0.454200
      4 C4         -2.1190    0.0750    0.5390 ca        1 FTC     -0.035900
      5 C5         -1.2410    1.1150    0.8580 ca        1 FTC     -0.070000
      6 C6         -0.0500    1.2650    0.1330 ca        1 FTC     -0.146300
      7 CL7        -3.5520   -0.1500    1.3620 cl        1 FTC      0.079600
      8 N8          1.4230    0.5000   -1.7330 n4        1 FTC     -0.591500
      9 C9          2.1590   -0.7930   -1.9590 c         1 FTC      0.000400
     10 S9          3.4490   -1.1200   -1.2400 s         1 FTC      0.292600
     11 N10         1.4870   -1.6960   -2.9390 n4        1 FTC     -0.612800
     12 C11         1.8940   -1.4420   -4.3670 c3        1 FTC      0.101800
     13 C12         1.3830   -0.1240   -4.9340 c3        1 FTC     -0.145700
     14 C13         1.5640   -0.1060   -6.4280 ca        1 FTC      0.337600
     15 N14         2.7080   -0.6220   -6.9490 nb        1 FTC     -0.709000
     16 C15         2.8750   -0.5560   -8.2770 ca        1 FTC      0.448200
     17 C16         1.9410    0.0140   -9.1640 ca        1 FTC     -0.277300
     18 C17         0.7580    0.5440   -8.6380 ca        1 FTC      0.174100
     19 C18         0.5560    0.4850   -7.2220 ca        1 FTC      0.001600
     20 O17        -0.2480    1.1250   -9.3430 os        1 FTC     -0.301900
     21 CA         -0.0680    1.2100  -10.7780 c3        1 FTC      0.127400
     22 CB         -1.3110    1.8910  -11.2960 c3        1 FTC     -0.107100
     23 F18        -0.5680    0.9830   -6.6650 f         1 FTC     -0.115900
     24 H3         -2.4290   -1.6540   -0.8100 h4        1 FTC      0.087100
     25 H5         -1.4730    1.8250    1.6770 ha        1 FTC      0.214000
     26 H6          0.6400    2.0880    0.3840 ha        1 FTC      0.187000
     27 HN8         1.1510    0.9400   -2.6310 hn        1 FTC      0.489300
     28 H10         1.7720   -2.6610   -2.6950 hn        1 FTC      0.495300
     29 H111        1.4660   -2.3040   -4.9680 hx        1 FTC      0.144200
     30 H112        3.0210   -1.4920   -4.4310 hx        1 FTC      0.144200
     31 H121        1.9670    0.7390   -4.5130 hc        1 FTC      0.065200
     32 H122        0.2920    0.0230   -4.7050 hc        1 FTC      0.065200
     33 H15         3.8210   -0.9870   -8.6620 h4        1 FTC      0.055100
     34 H16         2.1500    0.0360  -10.2440 ha        1 FTC      0.184000
     35 HA1         0.8550    1.8090  -10.9910 h1        1 FTC      0.055200
     36 HA2         0.0390    0.1720  -11.1890 h1        1 FTC      0.055200
     37 HB1        -1.2300    1.9860  -12.4070 hc        1 FTC      0.066367
     38 HB2        -1.4180    2.9090  -10.8500 hc        1 FTC      0.066367
     39 HB3        -2.2210    1.2970  -11.0450 hc        1 FTC      0.066367
     40 H82         2.0690    1.1380   -1.2310 hn        1 FTC      0.489300
     41 H102        0.4520   -1.6440   -2.8680 hn        1 FTC      0.495300
@<TRIPOS>BOND
     1    1    2 ar  
     2    1    6 ar  
     3    1    8 1   
     4    2    3 ar  
     5    3    4 ar  
     6    3   24 1   
     7    4    5 ar  
     8    4    7 1   
     9    5    6 ar  
    10    5   25 1   
    11    6   26 1   
    12    8    9 1   
    13    8   27 1   
    14    8   40 1   
    15    9   10 2   
    16    9   11 1   
    17   11   12 1   
    18   11   28 1   
    19   11   41 1   
    20   12   13 1   
    21   12   29 1   
    22   12   30 1   
    23   13   14 1   
    24   13   31 1   
    25   13   32 1   
    26   14   15 ar  
    27   14   19 ar  
    28   15   16 ar  
    29   16   17 ar  
    30   16   33 1   
    31   17   18 ar  
    32   17   34 1   
    33   18   19 ar  
    34   18   20 1   
    35   19   23 1   
    36   20   21 1   
    37   21   22 1   
    38   21   35 1   
    39   21   36 1   
    40   22   37 1   
    41   22   38 1   
    42   22   39 1   
@<TRIPOS>SUBSTRUCTURE
     1 FTC         1 TEMP              0 ****  ****    0 ROOT
