@<TRIPOS>MOLECULE
FTC
   39    40     1     0     0
SMALL
bcc


@<TRIPOS>ATOM
      1 C1         -0.8260   -0.2970   -3.8250 ca        1 FTC      0.494200
      2 N2         -1.4910    0.1880   -4.9260 nb        1 FTC     -0.696000
      3 C3         -0.9560   -0.0350   -6.1300 ca        1 FTC      0.421200
      4 C4          0.2580   -0.7300   -6.3280 ca        1 FTC     -0.115900
      5 C5          0.9350   -1.2210   -5.2100 ca        1 FTC     -0.082000
      6 C6          0.3950   -1.0130   -3.9410 ca        1 FTC     -0.200300
      7 CL7         0.8620   -0.9560   -7.8910 cl        1 FTC     -0.071400
      8 N8         -1.4550   -0.1120   -2.5620 n         1 FTC     -0.495400
      9 C9         -0.7620    0.4090   -1.4540 c         1 FTC      0.561400
     10 S9          0.8460    0.3080   -1.2960 s         1 FTC     -0.549400
     11 N10        -1.5510    1.0070   -0.4810 n         1 FTC     -0.510900
     12 C11        -1.0480    1.2950    0.8400 c3        1 FTC      0.073000
     13 C12        -1.5480    0.3210    1.9130 c3        1 FTC     -0.155700
     14 C13        -0.9790    0.6660    3.2590 ca        1 FTC      0.406600
     15 N14        -1.1320    1.9270    3.7350 nb        1 FTC     -0.676000
     16 C15        -0.6310    2.2170    4.9440 ca        1 FTC      0.421200
     17 C16         0.0460    1.2980    5.7650 ca        1 FTC     -0.307300
     18 C17         0.2060   -0.0060    5.2900 ca        1 FTC      0.136100
     19 C18        -0.3150   -0.3440    4.0080 ca        1 FTC     -0.011400
     20 O17         0.8300   -1.0300    5.9570 os        1 FTC     -0.310900
     21 CA          1.3980   -0.6920    7.2340 c3        1 FTC      0.127400
     22 CB          2.0460   -1.9580    7.7420 c3        1 FTC     -0.101100
     23 F18        -0.1760   -1.5980    3.5300 f         1 FTC     -0.114900
     24 H3         -1.5260    0.3710   -6.9870 h4        1 FTC      0.037100
     25 H5          1.8840   -1.7680   -5.3190 ha        1 FTC      0.158000
     26 H6          0.9210   -1.3770   -3.0410 ha        1 FTC      0.194000
     27 HN8        -2.4340    0.0990   -2.6340 hn        1 FTC      0.310500
     28 H10        -2.5450    0.9740   -0.5560 hn        1 FTC      0.301500
     29 H111       -1.3880    2.3410    1.0930 h1        1 FTC      0.096200
     30 H112        0.0830    1.2790    0.8190 h1        1 FTC      0.096200
     31 H121       -1.2530   -0.7290    1.6460 hc        1 FTC      0.067200
     32 H122       -2.6690    0.3550    1.9790 hc        1 FTC      0.067200
     33 H15        -0.7810    3.2600    5.2820 h4        1 FTC      0.028100
     34 H16         0.4300    1.6090    6.7440 ha        1 FTC      0.153000
     35 HA1         0.5810   -0.3450    7.9200 h1        1 FTC      0.042700
     36 HA2         2.1520    0.1280    7.0990 h1        1 FTC      0.042700
     37 HB1         2.5060   -1.7570    8.7390 hc        1 FTC      0.053700
     38 HB2         1.2870   -2.7710    7.8450 hc        1 FTC      0.053700
     39 HB3         2.8370   -2.3040    7.0340 hc        1 FTC      0.053700
@<TRIPOS>BOND
     1    1    2 ar  
     2    1    6 ar  
     3    1    8 1   
     4    2    3 ar  
     5    3    4 ar  
     6    3   24 1   
     7    4    5 ar  
     8    4    7 1   
     9    5    6 ar  
    10    5   25 1   
    11    6   26 1   
    12    8    9 1   
    13    8   27 1   
    14    9   10 2   
    15    9   11 1   
    16   11   12 1   
    17   11   28 1   
    18   12   13 1   
    19   12   29 1   
    20   12   30 1   
    21   13   14 1   
    22   13   31 1   
    23   13   32 1   
    24   14   15 ar  
    25   14   19 ar  
    26   15   16 ar  
    27   16   17 ar  
    28   16   33 1   
    29   17   18 ar  
    30   17   34 1   
    31   18   19 ar  
    32   18   20 1   
    33   19   23 1   
    34   20   21 1   
    35   21   22 1   
    36   21   35 1   
    37   21   36 1   
    38   22   37 1   
    39   22   38 1   
    40   22   39 1   
@<TRIPOS>SUBSTRUCTURE
     1 FTC         1 TEMP              0 ****  ****    0 ROOT
