@<TRIPOS>MOLECULE
FTD
   36    37     1     0     0
SMALL
bcc


@<TRIPOS>ATOM
      1 O2          0.0000    0.0000    0.0000 o         1 FTD     -0.782500
      2 C2          1.2160    0.0000    0.0000 c         1 FTD      0.615500
      3 N3          1.8650    0.0000    1.1720 ns        1 FTD     -0.121100
      4 C4          3.2520   -0.0020    1.2760 c2        1 FTD     -0.169400
      5 N4          3.8460   -0.0010    2.5380 nz        1 FTD     -0.324400
      6 C5          4.0220   -0.0010    0.1900 c2        1 FTD     -0.050700
      7 F5          5.3700   -0.0030    0.2920 f         1 FTD     -0.148500
      8 C6          3.3420   -0.0010   -1.1640 c3        1 FTD      0.116200
      9 N1          1.8710   -0.0060   -1.1780 n         1 FTD     -0.150800
     10 C1'         1.1340   -0.0110   -2.4440 c3        1 FTD      0.269500
     11 O4'         2.0550   -0.0510   -3.5420 os        1 FTD     -0.385600
     12 C2'         0.2430   -1.2840   -2.5300 c3        1 FTD      0.055700
     13 S3'        -0.0450   -1.3550   -4.3460 ss        1 FTD     -0.449200
     14 C4'         1.3980   -0.3150   -4.7970 c3        1 FTD      0.303200
     15 C5'         2.3330   -1.0780   -5.7390 c3        1 FTD      0.314400
     16 O5'         2.7710   -2.2810   -5.1040 os        1 FTD     -0.484200
     17 PA          3.7690   -3.3290   -5.8090 p5        1 FTD      0.954800
     18 O1A         5.2030   -2.6360   -6.0390 o         1 FTD     -0.680000
     19 O3A         3.2070   -3.7450   -7.1130 o         1 FTD     -0.680000
     20 O2A         3.9430   -4.6210   -4.8640 os        1 FTD     -0.487800
     21 PB          4.5230   -6.1060   -5.0950 p5        1 FTD      0.867900
     22 O3B         3.9610   -7.0850   -3.9470 o         1 FTD     -0.498833
     23 O2B         6.1310   -6.0700   -5.0290 o         1 FTD     -0.498833
     24 O1B         4.0940   -6.6030   -6.4210 o         1 FTD     -0.498833
     25 H1          1.3250    0.0010    2.0150 hn        1 FTD      0.164500
     26 H2          4.4110    0.8180    2.6400 hn        1 FTD      0.170800
     27 H3          4.4190   -0.8160    2.6370 hn        1 FTD      0.170800
     28 H4          3.6450   -0.9230   -1.6460 h1        1 FTD      0.043700
     29 H5          3.6390    0.9230   -1.6430 h1        1 FTD      0.043700
     30 H6          0.5140    0.8740   -2.5180 h2        1 FTD      0.014700
     31 H7          0.7800   -2.1600   -2.1860 h1        1 FTD      0.068200
     32 H8         -0.6870   -1.1460   -1.9930 h1        1 FTD      0.068200
     33 H9          1.0670    0.6110   -5.2500 h2        1 FTD      0.009700
     34 H10         3.1910   -0.4600   -5.9750 h1        1 FTD     -0.006800
     35 H11         1.8030   -1.3230   -6.6520 h1        1 FTD     -0.006800
     36 H43         3.1340   -0.0070    3.2410 hn        1 FTD      0.170800
@<TRIPOS>BOND
     1    1    2 2   
     2    2    3 1   
     3    2    9 1   
     4    3    4 1   
     5    3   25 1   
     6    4    5 1   
     7    4    6 2   
     8    5   26 1   
     9    5   27 1   
    10    5   36 1   
    11    6    7 1   
    12    6    8 1   
    13    8    9 1   
    14    8   28 1   
    15    8   29 1   
    16    9   10 1   
    17   10   11 1   
    18   10   12 1   
    19   10   30 1   
    20   11   14 1   
    21   12   13 1   
    22   12   31 1   
    23   12   32 1   
    24   13   14 1   
    25   14   15 1   
    26   14   33 1   
    27   15   16 1   
    28   15   34 1   
    29   15   35 1   
    30   16   17 1   
    31   17   18 1   
    32   17   19 1   
    33   17   20 1   
    34   20   21 1   
    35   21   22 1   
    36   21   23 1   
    37   21   24 1   
@<TRIPOS>SUBSTRUCTURE
     1 FTD         1 TEMP              0 ****  ****    0 ROOT
