@<TRIPOS>MOLECULE
FTE
   14    14     1     0     0
SMALL
bcc


@<TRIPOS>ATOM
      1 C1          0.1120    0.0050    0.0210 ca        1 FTE     -0.139500
      2 C2          1.5220    0.0050    0.1390 ca        1 FTE      0.223400
      3 C3          2.1040   -0.0010    1.4280 ca        1 FTE     -0.139500
      4 C4          1.2930   -0.0080    2.5580 ca        1 FTE     -0.116000
      5 C5         -0.0950   -0.0080    2.4340 ca        1 FTE     -0.135000
      6 C6         -0.6770   -0.0020    1.1670 ca        1 FTE     -0.116000
      7 N13         2.2830    0.0120   -1.0210 ne        1 FTE     -0.578800
      8 C15         3.4750    0.0150   -1.3330 c1        1 FTE      0.466300
      9 S17         4.8040    0.0180   -1.9430 s         1 FTE     -0.165900
     10 H1         -0.3620    0.0100   -0.9730 ha        1 FTE      0.144000
     11 H3          3.1990   -0.0010    1.5430 ha        1 FTE      0.144000
     12 H4          1.7560   -0.0130    3.5560 ha        1 FTE      0.137500
     13 H5         -0.7300   -0.0130    3.3320 ha        1 FTE      0.137000
     14 H6         -1.7730   -0.0020    1.0660 ha        1 FTE      0.137500
@<TRIPOS>BOND
     1    1    2 ar  
     2    1    6 ar  
     3    1   10 1   
     4    2    3 ar  
     5    2    7 1   
     6    3    4 ar  
     7    3   11 1   
     8    4    5 ar  
     9    4   12 1   
    10    5    6 ar  
    11    5   13 1   
    12    6   14 1   
    13    7    8 2   
    14    8    9 2   
@<TRIPOS>SUBSTRUCTURE
     1 FTE         1 TEMP              0 ****  ****    0 ROOT
