@<TRIPOS>MOLECULE
FTE
   14    14     1     0     0
SMALL
bcc


@<TRIPOS>ATOM
      1 C1          0.1000    0.0120    0.0230 ca        1 FTE     -0.139500
      2 C2          1.5070   -0.0110    0.1700 ca        1 FTE      0.223400
      3 C3          2.0620   -0.0450    1.4700 ca        1 FTE     -0.139500
      4 C4          1.2280   -0.0570    2.5830 ca        1 FTE     -0.116000
      5 C5         -0.1580   -0.0350    2.4310 ca        1 FTE     -0.135000
      6 C6         -0.7130   -0.0010    1.1520 ca        1 FTE     -0.116000
      7 N13         2.2920    0.0020   -0.9740 ne        1 FTE     -0.578800
      8 C15         3.4900   -0.0080   -1.2610 c1        1 FTE      0.466300
      9 S17         4.8320   -0.0140   -1.8430 s         1 FTE     -0.165900
     10 H1         -0.3530    0.0390   -0.9800 ha        1 FTE      0.144000
     11 H3          3.1540   -0.0630    1.6080 ha        1 FTE      0.144000
     12 H4          1.6700   -0.0840    3.5910 ha        1 FTE      0.137500
     13 H5         -0.8100   -0.0440    3.3160 ha        1 FTE      0.137000
     14 H6         -1.8060    0.0170    1.0290 ha        1 FTE      0.137500
@<TRIPOS>BOND
     1    1    2 ar  
     2    1    6 ar  
     3    1   10 1   
     4    2    3 ar  
     5    2    7 1   
     6    3    4 ar  
     7    3   11 1   
     8    4    5 ar  
     9    4   12 1   
    10    5    6 ar  
    11    5   13 1   
    12    6   14 1   
    13    7    8 2   
    14    8    9 2   
@<TRIPOS>SUBSTRUCTURE
     1 FTE         1 TEMP              0 ****  ****    0 ROOT
