@<TRIPOS>MOLECULE
FTE
   14    11     1     0     0
SMALL
bcc


@<TRIPOS>ATOM
      1 C1         -0.9760    0.2950   -0.6760 c1        1 FTE     -0.074750
      2 C2          0.3520    0.3700   -0.6920 cg        1 FTE      0.136000
      3 C3          1.0360    0.3760    0.4560 c1        1 FTE     -0.059500
      4 C4          0.3200    0.2990    1.7300 c1        1 FTE     -0.074750
      5 C5         -1.0170    0.2230    1.7430 c1        1 FTE     -0.074750
      6 C6         -1.6920    0.2180    0.6010 c1        1 FTE     -0.074750
      7 N13         1.0970    0.3140   -2.0330 ne        1 FTE     -0.491400
      8 C15         1.4800   -0.9450   -2.6020 c1        1 FTE      0.466300
      9 S17         1.9600   -2.5230   -3.3170 s         1 FTE     -0.165900
     10 H1         -1.4160    0.2910   -1.4250 ha        1 FTE      0.080000
     11 H3          2.0970    0.4400    0.4430 ha        1 FTE      0.092500
     12 H4          0.8240    0.3000    2.5900 ha        1 FTE      0.080000
     13 H5         -1.4830    0.1740    2.5680 ha        1 FTE      0.080000
     14 H6         -2.5820    0.1680    0.6130 ha        1 FTE      0.080000
@<TRIPOS>BOND
     1    1    6 3   
     2    1   10 1   
     3    2    3 3   
     4    2    7 1   
     5    3   11 1   
     6    4    5 3   
     7    4   12 1   
     8    5   13 1   
     9    6   14 1   
    10    7    8 2   
    11    8    9 2   
@<TRIPOS>SUBSTRUCTURE
     1 FTE         1 TEMP              0 ****  ****    0 ROOT
