@<TRIPOS>MOLECULE
FTE
   14    14     1     0     0
SMALL
bcc


@<TRIPOS>ATOM
      1 C1          1.5880   -1.1910    0.0010 ca        1 FTE     -0.139500
      2 C2          0.4350   -0.3700    0.0010 ca        1 FTE      0.223400
      3 C3          0.5930    1.0350   -0.0000 ca        1 FTE     -0.139500
      4 C4          1.8680    1.5930   -0.0010 ca        1 FTE     -0.116000
      5 C5          2.9980    0.7770   -0.0000 ca        1 FTE     -0.135000
      6 C6          2.8510   -0.6100    0.0010 ca        1 FTE     -0.116000
      7 N13        -0.8110   -0.9780    0.0010 ne        1 FTE     -0.578800
      8 C15        -1.9950   -0.6380    0.0010 c1        1 FTE      0.466300
      9 S17        -3.4500   -0.4830    0.0000 s         1 FTE     -0.165900
     10 H1          1.4880   -2.2880    0.0020 ha        1 FTE      0.144000
     11 H3         -0.2890    1.6940   -0.0010 ha        1 FTE      0.144000
     12 H4          1.9800    2.6880   -0.0010 ha        1 FTE      0.137500
     13 H5          4.0030    1.2260   -0.0000 ha        1 FTE      0.137000
     14 H6          3.7420   -1.2560    0.0010 ha        1 FTE      0.137500
@<TRIPOS>BOND
     1    1    2 ar  
     2    1    6 ar  
     3    1   10 1   
     4    2    3 ar  
     5    2    7 1   
     6    3    4 ar  
     7    3   11 1   
     8    4    5 ar  
     9    4   12 1   
    10    5    6 ar  
    11    5   13 1   
    12    6   14 1   
    13    7    8 2   
    14    8    9 2   
@<TRIPOS>SUBSTRUCTURE
     1 FTE         1 TEMP              0 ****  ****    0 ROOT
