@<TRIPOS>MOLECULE
FTE
   14    14     1     0     0
SMALL
bcc


@<TRIPOS>ATOM
      1 C1          0.0850    0.0010    0.0580 ca        1 FTE     -0.139500
      2 C2          1.4980    0.0020    0.1290 ca        1 FTE      0.223400
      3 C3          2.1220    0.0010    1.3980 ca        1 FTE     -0.139500
      4 C4          1.3490    0.0000    2.5540 ca        1 FTE     -0.116000
      5 C5         -0.0430    0.0000    2.4760 ca        1 FTE     -0.135000
      6 C6         -0.6660    0.0010    1.2280 ca        1 FTE     -0.116000
      7 N13         2.2210    0.0030   -1.0550 ne        1 FTE     -0.578800
      8 C15         3.4010    0.0030   -1.4060 c1        1 FTE      0.466300
      9 S17         4.7110    0.0040   -2.0600 s         1 FTE     -0.165900
     10 H1         -0.4210    0.0020   -0.9200 ha        1 FTE      0.144000
     11 H3          3.2200    0.0020    1.4770 ha        1 FTE      0.144000
     12 H4          1.8450    0.0000    3.5370 ha        1 FTE      0.137500
     13 H5         -0.6470   -0.0010    3.3950 ha        1 FTE      0.137000
     14 H6         -1.7650    0.0000    1.1640 ha        1 FTE      0.137500
@<TRIPOS>BOND
     1    1    2 ar  
     2    1    6 ar  
     3    1   10 1   
     4    2    3 ar  
     5    2    7 1   
     6    3    4 ar  
     7    3   11 1   
     8    4    5 ar  
     9    4   12 1   
    10    5    6 ar  
    11    5   13 1   
    12    6   14 1   
    13    7    8 2   
    14    8    9 2   
@<TRIPOS>SUBSTRUCTURE
     1 FTE         1 TEMP              0 ****  ****    0 ROOT
