@<TRIPOS>MOLECULE
FTH
   66    70     1     0     0
SMALL
bcc


@<TRIPOS>ATOM
      1 C1          4.3440   -1.2190   -1.6450 c3        1 FTH      0.025600
      2 N2          4.1390   -0.1950   -2.6110 na        1 FTH     -0.206900
      3 C3          4.8820    0.0040   -3.7850 cc        1 FTH      0.394400
      4 N4          4.4310    1.0670   -4.4830 nd        1 FTH     -0.664000
      5 C5          3.3640    1.5790   -3.7500 cd        1 FTH      0.318200
      6 C6          3.1600    0.8140   -2.5820 cc        1 FTH     -0.211900
      7 C7          2.1570    1.0080   -1.5210 c3        1 FTH      0.002900
      8 C8          0.9790    0.0170   -1.6260 c3        1 FTH      0.127500
      9 N9          0.2500    0.1750   -2.8690 n3        1 FTH     -0.796200
     10 C10        -0.7830   -0.8270   -3.0720 c3        1 FTH      0.201100
     11 C11        -1.5990   -0.5780   -4.3070 ca        1 FTH     -0.070300
     12 C12        -0.9720   -0.4020   -5.5460 ca        1 FTH     -0.120000
     13 C13        -1.7340   -0.2090   -6.6960 ca        1 FTH     -0.094500
     14 C14        -3.1330   -0.1920   -6.6130 ca        1 FTH     -0.017000
     15 C15        -3.9140    0.0010   -7.7850 cg        1 FTH      0.233800
     16 N16        -4.5530    0.1580   -8.7440 n1        1 FTH     -0.364800
     17 C17        -3.7630   -0.3650   -5.3720 ca        1 FTH     -0.094500
     18 C18        -2.9950   -0.5540   -4.2260 ca        1 FTH     -0.120000
     19 C19         0.1040    0.2470   -0.3650 c         1 FTH      0.609100
     20 O20        -0.8580    1.0400   -0.4240 o         1 FTH     -0.601100
     21 N21         0.3300   -0.4850    0.7980 n         1 FTH     -0.457800
     22 C22         1.5790   -1.1450    1.0910 c3        1 FTH      0.085000
     23 C23         2.4350   -0.4260    2.1400 c3        1 FTH     -0.064200
     24 C24         1.6130    0.0610    3.2850 ce        1 FTH     -0.010900
     25 C25         0.2680    0.1600    3.2110 cf        1 FTH     -0.013400
     26 C26        -0.4900   -0.2250    1.9670 c3        1 FTH      0.102200
     27 C27        -0.5790    0.6400    4.3080 ca        1 FTH     -0.073800
     28 C28        -0.8110    1.9930    4.4540 ca        1 FTH     -0.095000
     29 C29        -1.6380    2.4740    5.4950 ca        1 FTH     -0.130000
     30 C30        -2.2260    1.5990    6.3740 ca        1 FTH     -0.102000
     31 C31        -2.0110    0.2000    6.2500 ca        1 FTH     -0.038000
     32 C32        -2.6140   -0.7200    7.1520 ca        1 FTH     -0.112000
     33 C33        -2.3990   -2.0700    7.0220 ca        1 FTH     -0.127000
     34 C34        -1.5710   -2.5620    5.9840 ca        1 FTH     -0.119000
     35 C35        -0.9780   -1.6950    5.1000 ca        1 FTH     -0.126000
     36 C36        -1.1810   -0.2910    5.2080 ca        1 FTH     -0.016000
     37 C37         2.3490    0.4230    4.4460 cg        1 FTH      0.192500
     38 N38         2.9660    0.7160    5.3880 n1        1 FTH     -0.354800
     39 HC11        4.3490   -0.7780   -0.6100 h1        1 FTH      0.050033
     40 HC1A        3.5220   -1.9850   -1.7050 h1        1 FTH      0.050033
     41 HC1B        5.3270   -1.7250   -1.8330 h1        1 FTH      0.050033
     42 HC3         5.7200   -0.6410   -4.0670 h5        1 FTH      0.060100
     43 HC5         2.8020    2.4490   -4.0870 h4        1 FTH      0.044100
     44 HC71        2.6280    0.8800   -0.5070 hc        1 FTH      0.065700
     45 HC72        1.7700    2.0610   -1.5860 hc        1 FTH      0.065700
     46 HC8         1.3800   -1.0390   -1.6240 h1        1 FTH      0.071700
     47 HN9        -0.1340    1.1010   -2.9370 hn        1 FTH      0.383800
     48 H101       -0.2700   -1.8270   -3.1840 h1        1 FTH      0.046700
     49 H102       -1.4750   -0.8990   -2.1790 h1        1 FTH      0.046700
     50 HC12        0.1270   -0.4130   -5.6110 ha        1 FTH      0.150000
     51 HC13       -1.2380   -0.0690   -7.6690 ha        1 FTH      0.146000
     52 HC17       -4.8610   -0.3490   -5.3040 ha        1 FTH      0.146000
     53 HC18       -3.4930   -0.6820   -3.2520 ha        1 FTH      0.150000
     54 H221        1.3260   -2.1750    1.4820 h1        1 FTH      0.056200
     55 H222        2.1960   -1.2750    0.1590 h1        1 FTH      0.056200
     56 H231        3.2190   -1.1400    2.5060 hc        1 FTH      0.066200
     57 H232        2.9650    0.4490    1.6740 hc        1 FTH      0.066200
     58 H261       -1.2360    0.5920    1.7340 h1        1 FTH      0.090700
     59 H262       -1.0680   -1.1690    2.2000 h1        1 FTH      0.090700
     60 HC28       -0.3520    2.7150    3.7600 ha        1 FTH      0.141000
     61 HC29       -1.8000    3.5590    5.5860 ha        1 FTH      0.139000
     62 HC30       -2.8700    1.9640    7.1880 ha        1 FTH      0.137000
     63 HC32       -3.2540   -0.3250    7.9550 ha        1 FTH      0.136000
     64 HC33       -2.8640   -2.7820    7.7190 ha        1 FTH      0.136000
     65 HC34       -1.4100   -3.6470    5.8990 ha        1 FTH      0.134000
     66 HC35       -0.3300   -2.0740    4.2950 ha        1 FTH      0.131000
@<TRIPOS>BOND
     1    1    2 1   
     2    1   39 1   
     3    1   40 1   
     4    1   41 1   
     5    2    3 1   
     6    2    6 1   
     7    3    4 2   
     8    3   42 1   
     9    4    5 1   
    10    5    6 2   
    11    5   43 1   
    12    6    7 1   
    13    7    8 1   
    14    7   44 1   
    15    7   45 1   
    16    8    9 1   
    17    8   19 1   
    18    8   46 1   
    19    9   10 1   
    20    9   47 1   
    21   10   11 1   
    22   10   48 1   
    23   10   49 1   
    24   11   12 ar  
    25   11   18 ar  
    26   12   13 ar  
    27   12   50 1   
    28   13   14 ar  
    29   13   51 1   
    30   14   15 1   
    31   14   17 ar  
    32   15   16 3   
    33   17   18 ar  
    34   17   52 1   
    35   18   53 1   
    36   19   20 2   
    37   19   21 1   
    38   21   22 1   
    39   21   26 1   
    40   22   23 1   
    41   22   54 1   
    42   22   55 1   
    43   23   24 1   
    44   23   56 1   
    45   23   57 1   
    46   24   25 2   
    47   24   37 1   
    48   25   26 1   
    49   25   27 1   
    50   26   58 1   
    51   26   59 1   
    52   27   28 ar  
    53   27   36 ar  
    54   28   29 ar  
    55   28   60 1   
    56   29   30 ar  
    57   29   61 1   
    58   30   31 ar  
    59   30   62 1   
    60   31   32 ar  
    61   31   36 ar  
    62   32   33 ar  
    63   32   63 1   
    64   33   34 ar  
    65   33   64 1   
    66   34   35 ar  
    67   34   65 1   
    68   35   36 ar  
    69   35   66 1   
    70   37   38 3   
@<TRIPOS>SUBSTRUCTURE
     1 FTH         1 TEMP              0 ****  ****    0 ROOT
