@<TRIPOS>MOLECULE
FTH
   67    71     1     0     0
SMALL
bcc


@<TRIPOS>ATOM
      1 C1          0.0110    0.7800    0.4770 c3        1 FTH      0.013600
      2 N2          1.4270    0.7740    0.3070 na        1 FTH     -0.189900
      3 C3          2.3870    1.0600    1.2860 cc        1 FTH      0.433400
      4 N4          3.6350    1.0990    0.7650 nd        1 FTH     -0.641000
      5 C5          3.4890    0.8560   -0.5930 cd        1 FTH      0.305200
      6 C6          2.1240    0.6460   -0.9080 cc        1 FTH     -0.307900
      7 C7          1.5270    0.3570   -2.2200 c3        1 FTH     -0.014100
      8 C8          1.4560   -1.1590   -2.4880 c3        1 FTH      0.045500
      9 N9          2.8030   -1.8020   -2.3170 n4        1 FTH     -0.765000
     10 C10         2.7110   -3.2800   -2.0820 c3        1 FTH      0.174100
     11 C11         4.0690   -3.8980   -2.0590 ca        1 FTH     -0.172300
     12 C12         4.6850   -4.1970   -0.8400 ca        1 FTH     -0.102500
     13 C13         5.9370   -4.8080   -0.8230 ca        1 FTH     -0.088000
     14 C14         6.5770   -5.1200   -2.0310 ca        1 FTH      0.048000
     15 C15         7.8550   -5.7430   -2.0170 cg        1 FTH      0.197800
     16 N16         8.9010   -6.2520   -2.0050 n1        1 FTH     -0.289800
     17 C17         5.9580   -4.8200   -3.2550 ca        1 FTH     -0.088000
     18 C18         4.7070   -4.2110   -3.2660 ca        1 FTH     -0.102500
     19 C19         0.9570   -1.3750   -3.9410 c         1 FTH      0.638100
     20 O20         1.8240   -1.5830   -4.8190 o         1 FTH     -0.606100
     21 N21        -0.3870   -1.4140   -4.2090 n         1 FTH     -0.423800
     22 C22        -1.4220   -0.9790   -3.2950 c3        1 FTH      0.076000
     23 C23        -2.0820    0.3410   -3.6990 c3        1 FTH     -0.061200
     24 C24        -2.3720    0.3890   -5.1610 ce        1 FTH     -0.000900
     25 C25        -1.7980   -0.4620   -6.0370 cf        1 FTH     -0.008400
     26 C26        -0.8240   -1.5230   -5.5990 c3        1 FTH      0.100200
     27 C27        -2.0540   -0.4550   -7.4810 ca        1 FTH     -0.095800
     28 C28        -1.3590    0.4160   -8.2960 ca        1 FTH     -0.087000
     29 C29        -1.5790    0.4250   -9.6920 ca        1 FTH     -0.135000
     30 C30        -2.4880   -0.4350  -10.2560 ca        1 FTH     -0.085000
     31 C31        -3.2210   -1.3430   -9.4450 ca        1 FTH     -0.039000
     32 C32        -4.1700   -2.2370  -10.0150 ca        1 FTH     -0.104000
     33 C33        -4.8790   -3.1040   -9.2220 ca        1 FTH     -0.124000
     34 C34        -4.6730   -3.1160   -7.8210 ca        1 FTH     -0.105000
     35 C35        -3.7610   -2.2660   -7.2460 ca        1 FTH     -0.142000
     36 C36        -3.0090   -1.3580   -8.0410 ca        1 FTH     -0.013000
     37 C37        -3.2870    1.4020   -5.5580 cg        1 FTH      0.175500
     38 N38        -4.0370    2.2350   -5.8710 n1        1 FTH     -0.314800
     39 HC11       -0.4340    1.7090    0.0240 h1        1 FTH      0.064700
     40 HC1A       -0.4370   -0.1200   -0.0250 h1        1 FTH      0.064700
     41 HC1B       -0.2370    0.7540    1.5720 h1        1 FTH      0.064700
     42 HC3         2.1300    1.2250    2.3410 h5        1 FTH      0.086100
     43 HC5         4.3450    0.8890   -1.2690 h4        1 FTH      0.050100
     44 HC71        0.4800    0.7620   -2.2960 hc        1 FTH      0.099700
     45 HC72        2.1390    0.8560   -3.0220 hc        1 FTH      0.099700
     46 HC8         0.7680   -1.6510   -1.7390 hx        1 FTH      0.112700
     47 HN9         3.3520   -1.6430   -3.1790 hn        1 FTH      0.470800
     48 H101        2.1750   -3.4470   -1.1050 hx        1 FTH      0.107200
     49 H102        2.0940   -3.7160   -2.9220 hx        1 FTH      0.107200
     50 HC12        4.1830   -3.9630    0.1130 ha        1 FTH      0.150000
     51 HC13        6.4210   -5.0490    0.1380 ha        1 FTH      0.171000
     52 HC17        6.4600   -5.0710   -4.2040 ha        1 FTH      0.171000
     53 HC18        4.2170   -3.9900   -4.2290 ha        1 FTH      0.150000
     54 H221       -2.2090   -1.7910   -3.2900 h1        1 FTH      0.062700
     55 H222       -1.0250   -0.8820   -2.2480 h1        1 FTH      0.062700
     56 H231       -1.4230    1.2100   -3.4290 hc        1 FTH      0.074700
     57 H232       -3.0370    0.4470   -3.1150 hc        1 FTH      0.074700
     58 H261        0.0750   -1.4950   -6.2850 h1        1 FTH      0.103700
     59 H262       -1.3240   -2.5310   -5.7170 h1        1 FTH      0.103700
     60 HC28       -0.6270    1.1180   -7.8690 ha        1 FTH      0.135000
     61 HC29       -1.0130    1.1350  -10.3150 ha        1 FTH      0.147000
     62 HC30       -2.6680   -0.4340  -11.3430 ha        1 FTH      0.146000
     63 HC32       -4.3240   -2.2140  -11.1050 ha        1 FTH      0.144000
     64 HC33       -5.6150   -3.7940   -9.6610 ha        1 FTH      0.145000
     65 HC34       -5.2580   -3.8130   -7.2020 ha        1 FTH      0.138000
     66 HC35       -3.6110   -2.2660   -6.1560 ha        1 FTH      0.120000
     67 H92         3.2920   -1.3520   -1.5270 hn        1 FTH      0.470800
@<TRIPOS>BOND
     1    1    2 1   
     2    1   39 1   
     3    1   40 1   
     4    1   41 1   
     5    2    3 1   
     6    2    6 1   
     7    3    4 2   
     8    3   42 1   
     9    4    5 1   
    10    5    6 2   
    11    5   43 1   
    12    6    7 1   
    13    7    8 1   
    14    7   44 1   
    15    7   45 1   
    16    8    9 1   
    17    8   19 1   
    18    8   46 1   
    19    9   10 1   
    20    9   47 1   
    21    9   67 1   
    22   10   11 1   
    23   10   48 1   
    24   10   49 1   
    25   11   12 ar  
    26   11   18 ar  
    27   12   13 ar  
    28   12   50 1   
    29   13   14 ar  
    30   13   51 1   
    31   14   15 1   
    32   14   17 ar  
    33   15   16 3   
    34   17   18 ar  
    35   17   52 1   
    36   18   53 1   
    37   19   20 2   
    38   19   21 1   
    39   21   22 1   
    40   21   26 1   
    41   22   23 1   
    42   22   54 1   
    43   22   55 1   
    44   23   24 1   
    45   23   56 1   
    46   23   57 1   
    47   24   25 2   
    48   24   37 1   
    49   25   26 1   
    50   25   27 1   
    51   26   58 1   
    52   26   59 1   
    53   27   28 ar  
    54   27   36 ar  
    55   28   29 ar  
    56   28   60 1   
    57   29   30 ar  
    58   29   61 1   
    59   30   31 ar  
    60   30   62 1   
    61   31   32 ar  
    62   31   36 ar  
    63   32   33 ar  
    64   32   63 1   
    65   33   34 ar  
    66   33   64 1   
    67   34   35 ar  
    68   34   65 1   
    69   35   36 ar  
    70   35   66 1   
    71   37   38 3   
@<TRIPOS>SUBSTRUCTURE
     1 FTH         1 TEMP              0 ****  ****    0 ROOT
