@<TRIPOS>MOLECULE
FTH
   67    71     1     0     0
SMALL
bcc


@<TRIPOS>ATOM
      1 C1          0.1210    0.7670    0.4280 c3        1 FTH      0.013600
      2 N2          1.5350    0.7500    0.2400 na        1 FTH     -0.189900
      3 C3          2.5100    1.0310    1.2060 cc        1 FTH      0.433400
      4 N4          3.7510    1.0600    0.6680 nd        1 FTH     -0.641000
      5 C5          3.5850    0.8140   -0.6870 cd        1 FTH      0.305200
      6 C6          2.2150    0.6140   -0.9840 cc        1 FTH     -0.307900
      7 C7          1.5990    0.3260   -2.2870 c3        1 FTH     -0.014100
      8 C8          1.5120   -1.1900   -2.5500 c3        1 FTH      0.045500
      9 N9          2.8570   -1.8430   -2.3950 n4        1 FTH     -0.765000
     10 C10         2.7560   -3.3200   -2.1540 c3        1 FTH      0.174100
     11 C11         4.1090   -3.9470   -2.1440 ca        1 FTH     -0.172300
     12 C12         4.7380   -4.2410   -0.9300 ca        1 FTH     -0.102500
     13 C13         5.9860   -4.8620   -0.9240 ca        1 FTH     -0.088000
     14 C14         6.6080   -5.1880   -2.1380 ca        1 FTH      0.048000
     15 C15         7.8820   -5.8200   -2.1350 cg        1 FTH      0.197800
     16 N16         8.9230   -6.3370   -2.1330 n1        1 FTH     -0.289800
     17 C17         5.9760   -4.8930   -3.3560 ca        1 FTH     -0.088000
     18 C18         4.7290   -4.2740   -3.3560 ca        1 FTH     -0.102500
     19 C19         0.9920   -1.4060   -3.9970 c         1 FTH      0.638100
     20 O20         1.8460   -1.6220   -4.8860 o         1 FTH     -0.606100
     21 N21        -0.3550   -1.4350   -4.2470 n         1 FTH     -0.423800
     22 C22        -1.3740   -0.9890   -3.3210 c3        1 FTH      0.076000
     23 C23        -2.0290    0.3360   -3.7190 c3        1 FTH     -0.061200
     24 C24        -2.3370    0.3830   -5.1780 ce        1 FTH     -0.000900
     25 C25        -1.7820   -0.4760   -6.0590 cf        1 FTH     -0.008400
     26 C26        -0.8110   -1.5430   -5.6300 c3        1 FTH      0.100200
     27 C27        -2.0560   -0.4700   -7.5000 ca        1 FTH     -0.095800
     28 C28        -1.3640    0.3930   -8.3260 ca        1 FTH     -0.087000
     29 C29        -1.6010    0.4010   -9.7190 ca        1 FTH     -0.135000
     30 C30        -2.5250   -0.4530  -10.2690 ca        1 FTH     -0.085000
     31 C31        -3.2560   -1.3520   -9.4460 ca        1 FTH     -0.039000
     32 C32        -4.2190   -2.2390  -10.0020 ca        1 FTH     -0.104000
     33 C33        -4.9260   -3.0980   -9.1980 ca        1 FTH     -0.124000
     34 C34        -4.7020   -3.1080   -7.8000 ca        1 FTH     -0.105000
     35 C35        -3.7760   -2.2640   -7.2380 ca        1 FTH     -0.142000
     36 C36        -3.0260   -1.3650   -8.0460 ca        1 FTH     -0.013000
     37 C37        -3.2480    1.4020   -5.5660 cg        1 FTH      0.175500
     38 N38        -3.9950    2.2410   -5.8710 n1        1 FTH     -0.314800
     39 HC11       -0.3230    1.6980   -0.0200 h1        1 FTH      0.064700
     40 HC1A       -0.3410   -0.1300   -0.0670 h1        1 FTH      0.064700
     41 HC1B       -0.1130    0.7440    1.5270 h1        1 FTH      0.064700
     42 HC3         2.2670    1.2000    2.2630 h5        1 FTH      0.086100
     43 HC5         4.4320    0.8400   -1.3750 h4        1 FTH      0.050100
     44 HC71        0.5530    0.7390   -2.3510 hc        1 FTH      0.099700
     45 HC72        2.2040    0.8190   -3.0980 hc        1 FTH      0.099700
     46 HC8         0.8300   -1.6740   -1.7920 hx        1 FTH      0.112700
     47 HN9         3.3950   -1.6910   -3.2660 hn        1 FTH      0.470800
     48 H101        2.2290   -3.4780   -1.1700 hx        1 FTH      0.107200
     49 H102        2.1260   -3.7530   -2.9860 hx        1 FTH      0.107200
     50 HC12        4.2500   -3.9970    0.0270 ha        1 FTH      0.150000
     51 HC13        6.4810   -5.0990    0.0320 ha        1 FTH      0.171000
     52 HC17        6.4640   -5.1550   -4.3100 ha        1 FTH      0.171000
     53 HC18        4.2290   -4.0560   -4.3140 ha        1 FTH      0.150000
     54 H221       -2.1680   -1.7940   -3.3040 h1        1 FTH      0.062700
     55 H222       -0.9630   -0.8920   -2.2790 h1        1 FTH      0.062700
     56 H231       -1.3600    1.2000   -3.4600 hc        1 FTH      0.074700
     57 H232       -2.9750    0.4510   -3.1230 hc        1 FTH      0.074700
     58 H261        0.0790   -1.5240   -6.3280 h1        1 FTH      0.103700
     59 H262       -1.3210   -2.5470   -5.7400 h1        1 FTH      0.103700
     60 HC28       -0.6200    1.0900   -7.9100 ha        1 FTH      0.135000
     61 HC29       -1.0370    1.1040  -10.3510 ha        1 FTH      0.147000
     62 HC30       -2.7180   -0.4520  -11.3540 ha        1 FTH      0.146000
     63 HC32       -4.3880   -2.2170  -11.0900 ha        1 FTH      0.144000
     64 HC33       -5.6740   -3.7820   -9.6250 ha        1 FTH      0.145000
     65 HC34       -5.2860   -3.7980   -7.1710 ha        1 FTH      0.138000
     66 HC35       -3.6110   -2.2630   -6.1500 ha        1 FTH      0.120000
     67 H92         3.3590   -1.3940   -1.6140 hn        1 FTH      0.470800
@<TRIPOS>BOND
     1    1    2 1   
     2    1   39 1   
     3    1   40 1   
     4    1   41 1   
     5    2    3 1   
     6    2    6 1   
     7    3    4 2   
     8    3   42 1   
     9    4    5 1   
    10    5    6 2   
    11    5   43 1   
    12    6    7 1   
    13    7    8 1   
    14    7   44 1   
    15    7   45 1   
    16    8    9 1   
    17    8   19 1   
    18    8   46 1   
    19    9   10 1   
    20    9   47 1   
    21    9   67 1   
    22   10   11 1   
    23   10   48 1   
    24   10   49 1   
    25   11   12 ar  
    26   11   18 ar  
    27   12   13 ar  
    28   12   50 1   
    29   13   14 ar  
    30   13   51 1   
    31   14   15 1   
    32   14   17 ar  
    33   15   16 3   
    34   17   18 ar  
    35   17   52 1   
    36   18   53 1   
    37   19   20 2   
    38   19   21 1   
    39   21   22 1   
    40   21   26 1   
    41   22   23 1   
    42   22   54 1   
    43   22   55 1   
    44   23   24 1   
    45   23   56 1   
    46   23   57 1   
    47   24   25 2   
    48   24   37 1   
    49   25   26 1   
    50   25   27 1   
    51   26   58 1   
    52   26   59 1   
    53   27   28 ar  
    54   27   36 ar  
    55   28   29 ar  
    56   28   60 1   
    57   29   30 ar  
    58   29   61 1   
    59   30   31 ar  
    60   30   62 1   
    61   31   32 ar  
    62   31   36 ar  
    63   32   33 ar  
    64   32   63 1   
    65   33   34 ar  
    66   33   64 1   
    67   34   35 ar  
    68   34   65 1   
    69   35   36 ar  
    70   35   66 1   
    71   37   38 3   
@<TRIPOS>SUBSTRUCTURE
     1 FTH         1 TEMP              0 ****  ****    0 ROOT
