@<TRIPOS>MOLECULE
FTH
   67    71     1     0     0
SMALL
bcc


@<TRIPOS>ATOM
      1 C1         -0.0120    0.7480    0.4670 c3        1 FTH      0.013600
      2 N2          1.4060    0.7380    0.3090 na        1 FTH     -0.189900
      3 C3          2.3590    1.0110    1.2980 cc        1 FTH      0.433400
      4 N4          3.6120    1.0500    0.7870 nd        1 FTH     -0.641000
      5 C5          3.4760    0.8200   -0.5730 cd        1 FTH      0.305200
      6 C6          2.1120    0.6190   -0.9010 cc        1 FTH     -0.307900
      7 C7          1.5250    0.3450   -2.2210 c3        1 FTH     -0.014100
      8 C8          1.4500   -1.1680   -2.5040 c3        1 FTH      0.045500
      9 N9          2.7940   -1.8180   -2.3290 ny        1 FTH     -0.765000
     10 C10         2.6940   -3.2980   -2.1090 c3        1 FTH      0.174100
     11 C11         4.0490   -3.9210   -2.0800 ca        1 FTH     -0.172300
     12 C12         4.6540   -4.2320   -0.8580 ca        1 FTH     -0.102500
     13 C13         5.9030   -4.8480   -0.8360 ca        1 FTH     -0.088000
     14 C14         6.5530   -5.1520   -2.0420 ca        1 FTH      0.048000
     15 C15         7.8280   -5.7800   -2.0220 cg        1 FTH      0.197800
     16 N16         8.8720   -6.2930   -2.0060 n1        1 FTH     -0.289800
     17 C17         5.9450   -4.8410   -3.2680 ca        1 FTH     -0.088000
     18 C18         4.6950   -4.2260   -3.2840 ca        1 FTH     -0.102500
     19 C19         0.9620   -1.3690   -3.9640 c         1 FTH      0.638100
     20 O20         1.8350   -1.5710   -4.8370 o         1 FTH     -0.606100
     21 N21        -0.3800   -1.3990   -4.2430 n         1 FTH     -0.423800
     22 C22        -1.4200   -0.9690   -3.3330 c3        1 FTH      0.076000
     23 C23        -2.0720    0.3580   -3.7290 c3        1 FTH     -0.061200
     24 C24        -2.3500    0.4210   -5.1930 ce        1 FTH     -0.000900
     25 C25        -1.7720   -0.4240   -6.0730 cf        1 FTH     -0.008400
     26 C26        -0.8060   -1.4930   -5.6370 c3        1 FTH      0.100200
     27 C27        -2.0160   -0.4010   -7.5190 ca        1 FTH     -0.095800
     28 C28        -1.3100    0.4750   -8.3190 ca        1 FTH     -0.087000
     29 C29        -1.5190    0.4990   -9.7170 ca        1 FTH     -0.135000
     30 C30        -2.4270   -0.3510  -10.2970 ca        1 FTH     -0.085000
     31 C31        -3.1710   -1.2640   -9.5010 ca        1 FTH     -0.039000
     32 C32        -4.1190   -2.1480  -10.0880 ca        1 FTH     -0.104000
     33 C33        -4.8380   -3.0200   -9.3090 ca        1 FTH     -0.124000
     34 C34        -4.6440   -3.0460   -7.9070 ca        1 FTH     -0.105000
     35 C35        -3.7330   -2.2060   -7.3150 ca        1 FTH     -0.142000
     36 C36        -2.9700   -1.2940   -8.0960 ca        1 FTH     -0.013000
     37 C37        -3.2570    1.4420   -5.5870 cg        1 FTH      0.175500
     38 N38        -4.0000    2.2810   -5.8980 n1        1 FTH     -0.314800
     39 HC11       -0.4490    1.6830    0.0200 h1        1 FTH      0.064700
     40 HC1A       -0.4590   -0.1450   -0.0470 h1        1 FTH      0.064700
     41 HC1B       -0.2680    0.7120    1.5600 h1        1 FTH      0.064700
     42 HC3         2.0940    1.1670    2.3530 h5        1 FTH      0.086100
     43 HC5         4.3370    0.8560   -1.2430 h4        1 FTH      0.050100
     44 HC71        2.1450    0.8500   -3.0130 hc        1 FTH      0.099700
     45 HC72        0.4800    0.7550   -2.3020 hc        1 FTH      0.099700
     46 HC8         0.7550   -1.6650   -1.7660 hx        1 FTH      0.112700
     47 HN9         3.3490   -1.6530   -3.1860 hn        1 FTH      0.470800
     48 H101        2.1490   -3.4720   -1.1380 hx        1 FTH      0.107200
     49 H102        2.0820   -3.7230   -2.9580 hx        1 FTH      0.107200
     50 HC12        4.1460   -4.0050    0.0920 ha        1 FTH      0.150000
     51 HC13        6.3800   -5.0990    0.1260 ha        1 FTH      0.171000
     52 HC17        6.4530   -5.0860   -4.2150 ha        1 FTH      0.171000
     53 HC18        4.2140   -3.9960   -4.2490 ha        1 FTH      0.150000
     54 H221       -2.2110   -1.7770   -3.3420 h1        1 FTH      0.062700
     55 H222       -1.0320   -0.8830   -2.2810 h1        1 FTH      0.062700
     56 H231       -1.4120    1.2220   -3.4450 hc        1 FTH      0.074700
     57 H232       -3.0310    0.4620   -3.1520 hc        1 FTH      0.074700
     58 H261        0.0980   -1.4620   -6.3150 h1        1 FTH      0.103700
     59 H262       -1.3100   -2.4980   -5.7690 h1        1 FTH      0.103700
     60 HC28       -0.5790    1.1690   -7.8790 ha        1 FTH      0.135000
     61 HC29       -0.9450    1.2120  -10.3280 ha        1 FTH      0.147000
     62 HC30       -2.5980   -0.3390  -11.3850 ha        1 FTH      0.146000
     63 HC32       -4.2640   -2.1130  -11.1790 ha        1 FTH      0.144000
     64 HC33       -5.5740   -3.7020   -9.7610 ha        1 FTH      0.145000
     65 HC34       -5.2370   -3.7470   -7.3000 ha        1 FTH      0.138000
     66 HC35       -3.5920   -2.2180   -6.2250 ha        1 FTH      0.120000
     67 H92         3.2770   -1.3770   -1.5310 hn        1 FTH      0.470800
@<TRIPOS>BOND
     1    1    2 1   
     2    1   39 1   
     3    1   40 1   
     4    1   41 1   
     5    2    3 1   
     6    2    6 1   
     7    3    4 2   
     8    3   42 1   
     9    4    5 1   
    10    5    6 2   
    11    5   43 1   
    12    6    7 1   
    13    7    8 1   
    14    7   44 1   
    15    7   45 1   
    16    8    9 1   
    17    8   19 1   
    18    8   46 1   
    19    9   10 1   
    20    9   47 1   
    21    9   67 1   
    22   10   11 1   
    23   10   48 1   
    24   10   49 1   
    25   11   12 ar  
    26   11   18 ar  
    27   12   13 ar  
    28   12   50 1   
    29   13   14 ar  
    30   13   51 1   
    31   14   15 1   
    32   14   17 ar  
    33   15   16 3   
    34   17   18 ar  
    35   17   52 1   
    36   18   53 1   
    37   19   20 2   
    38   19   21 1   
    39   21   22 1   
    40   21   26 1   
    41   22   23 1   
    42   22   54 1   
    43   22   55 1   
    44   23   24 1   
    45   23   56 1   
    46   23   57 1   
    47   24   25 2   
    48   24   37 1   
    49   25   26 1   
    50   25   27 1   
    51   26   58 1   
    52   26   59 1   
    53   27   28 ar  
    54   27   36 ar  
    55   28   29 ar  
    56   28   60 1   
    57   29   30 ar  
    58   29   61 1   
    59   30   31 ar  
    60   30   62 1   
    61   31   32 ar  
    62   31   36 ar  
    63   32   33 ar  
    64   32   63 1   
    65   33   34 ar  
    66   33   64 1   
    67   34   35 ar  
    68   34   65 1   
    69   35   36 ar  
    70   35   66 1   
    71   37   38 3   
@<TRIPOS>SUBSTRUCTURE
     1 FTH         1 TEMP              0 ****  ****    0 ROOT
