@<TRIPOS>MOLECULE
FTI
   58    62     1     0     0
SMALL
bcc


@<TRIPOS>ATOM
      1 C1          0.0000    0.0000    0.0000 c3        1 FTI     -0.027200
      2 C2          1.5300    0.0000    0.0000 c3        1 FTI      0.042000
      3 N1          1.9880    0.0000    1.3990 n         1 FTI     -0.148800
      4 C3          1.6280    1.1580    2.2300 c3        1 FTI      0.115200
      5 C4          0.1960    1.5250    1.9800 ce        1 FTI     -0.054400
      6 C5         -0.4480    2.4860    2.8820 ca        1 FTI     -0.090800
      7 C6         -0.4040    3.9200    2.6000 ca        1 FTI     -0.012000
      8 C7         -1.0430    4.8140    3.4940 ca        1 FTI     -0.074000
      9 C8         -1.6930    4.3050    4.6310 ca        1 FTI     -0.079000
     10 C9         -1.7170    2.9660    4.8780 ca        1 FTI     -0.071000
     11 C10        -1.1100    2.0540    4.0280 ca        1 FTI     -0.075000
     12 C11        -1.0100    6.1930    3.2270 ca        1 FTI     -0.100000
     13 C12         2.7020   -1.0250    1.9010 c         1 FTI      0.537100
     14 C13         0.2390    4.4220    1.4620 ca        1 FTI     -0.111000
     15 C14        -0.3710    6.6480    2.1140 ca        1 FTI     -0.070000
     16 C15         0.2510    5.7660    1.2340 ca        1 FTI     -0.084000
     17 N2          4.3730   -4.8850    3.1020 nc        1 FTI     -0.615000
     18 C17         5.4880   -4.3070    2.7480 cd        1 FTI      0.222400
     19 N3          5.1980   -3.2590    1.9470 na        1 FTI      0.223100
     20 C18         3.8360   -3.2070    1.8240 cd        1 FTI     -0.319900
     21 C19         3.3410   -4.2290    2.5480 cc        1 FTI      0.335200
     22 C20         3.0440   -2.2050    1.0270 c3        1 FTI      0.000900
     23 C21         7.3310   -2.7560   -0.6830 ca        1 FTI     -0.104500
     24 C22         7.3480   -3.3190    0.6040 ca        1 FTI     -0.072300
     25 C23         7.9540   -4.2230    0.9900 ca        1 FTI     -0.104500
     26 C24         8.9720   -5.1000    0.1100 ca        1 FTI     -0.070000
     27 C25         8.7600   -4.2950   -1.1870 ca        1 FTI      0.100000
     28 C26         8.1460   -3.4140   -1.4950 ca        1 FTI     -0.070000
     29 C27         9.7760   -5.0810   -2.1000 cg        1 FTI      0.186800
     30 N4         10.3700   -5.6310   -3.1630 n1        1 FTI     -0.428800
     31 C28        -0.5240    1.0120    0.9760 cf        1 FTI      0.031100
     32 O1          3.0670   -1.0020    3.0570 o         1 FTI     -0.628100
     33 C29        -1.8770    1.4550    0.8240 ch        1 FTI      0.185500
     34 N5         -2.9450    1.8250    0.7070 n1        1 FTI     -0.372800
     35 HC1A       -0.5570   -0.0900   -0.9250 hc        1 FTI      0.029200
     36 HC12       -0.3260   -0.9860    0.3070 hc        1 FTI      0.029200
     37 HC2A        1.6560    0.8990   -0.5910 h1        1 FTI      0.043200
     38 HC22        1.7110   -0.9010   -0.5730 h1        1 FTI      0.043200
     39 HC31        1.9660    2.0000    1.6380 h1        1 FTI      0.061200
     40 HC32        1.8240    1.0750    3.2920 h1        1 FTI      0.061200
     41 HC8        -1.8160    5.0760    5.3820 ha        1 FTI      0.111000
     42 HC9        -2.3690    2.5880    5.6560 ha        1 FTI      0.107000
     43 HC10       -0.7100    1.0710    4.2450 ha        1 FTI      0.117000
     44 HC11       -1.6770    6.5740    3.9900 ha        1 FTI      0.123000
     45 HC13        0.5250    3.7660    0.6490 ha        1 FTI      0.106000
     46 HC14       -0.2650    7.7260    2.1030 ha        1 FTI      0.104000
     47 HC15        0.5050    6.0590    0.2220 ha        1 FTI      0.103000
     48 H161        5.9270   -1.5330    1.0130 h1        1 FTI      0.040700
     49 H162        7.0330   -2.2530    2.2730 h1        1 FTI      0.040700
     50 HC17        6.5190   -4.4170    3.0610 h5        1 FTI      0.019100
     51 HC19        2.3300   -4.5510    2.7640 h4        1 FTI      0.008100
     52 H201        2.1090   -2.0820    0.4930 hc        1 FTI      0.040200
     53 H202        3.7740   -1.5870    0.5190 hc        1 FTI      0.040200
     54 HC23        8.1140   -4.4800    2.0300 ha        1 FTI      0.123000
     55 HC24        9.2510   -6.0950    0.4340 ha        1 FTI      0.147500
     56 HC26        8.4630   -3.0400   -2.4610 ha        1 FTI      0.147500
     57 C16         6.4040   -2.4220    1.4070 c3        1 FTI      0.033600
     58 HC21        6.7090   -2.0130   -1.1680 ha        1 FTI      0.123000
@<TRIPOS>BOND
     1    1    2 1   
     2    1   31 1   
     3    1   35 1   
     4    1   36 1   
     5    2    3 1   
     6    2   37 1   
     7    2   38 1   
     8    3    4 1   
     9    3   13 1   
    10    4    5 1   
    11    4   39 1   
    12    4   40 1   
    13    5    6 1   
    14    5   31 2   
    15    6    7 ar  
    16    6   11 ar  
    17    7    8 ar  
    18    7   14 ar  
    19    8    9 ar  
    20    8   12 ar  
    21    9   10 ar  
    22    9   41 1   
    23   10   11 ar  
    24   10   42 1   
    25   11   43 1   
    26   12   15 ar  
    27   12   44 1   
    28   13   22 1   
    29   13   32 2   
    30   14   16 ar  
    31   14   45 1   
    32   15   16 ar  
    33   15   46 1   
    34   16   47 1   
    35   17   18 2   
    36   17   21 1   
    37   18   19 1   
    38   18   50 1   
    39   19   20 1   
    40   19   57 1   
    41   20   21 2   
    42   20   22 1   
    43   21   51 1   
    44   22   52 1   
    45   22   53 1   
    46   23   24 ar  
    47   23   28 ar  
    48   23   58 1   
    49   24   25 ar  
    50   24   57 1   
    51   25   26 ar  
    52   25   54 1   
    53   26   27 ar  
    54   26   55 1   
    55   27   28 ar  
    56   27   29 1   
    57   28   56 1   
    58   29   30 3   
    59   31   33 1   
    60   33   34 3   
    61   48   57 1   
    62   49   57 1   
@<TRIPOS>SUBSTRUCTURE
     1 FTI         1 TEMP              0 ****  ****    0 ROOT
