@<TRIPOS>MOLECULE
FTI
   58    62     1     0     0
SMALL
bcc


@<TRIPOS>ATOM
      1 C1          0.3160   -2.7120   -1.5580 c3        1 FTI     -0.065200
      2 C2          0.9840   -1.7920   -0.5320 c3        1 FTI      0.078000
      3 N1          0.3470   -0.5020   -0.4050 n         1 FTI     -0.456800
      4 C3          0.2630    0.2270   -1.6570 c3        1 FTI      0.103200
      5 C4         -0.0500   -0.6230   -2.8630 ce        1 FTI     -0.020400
      6 C5         -0.3790    0.1430   -4.0700 ca        1 FTI     -0.071800
      7 C6          0.6630    0.6160   -4.9250 ca        1 FTI     -0.016000
      8 C7          0.3170    1.3700   -6.0760 ca        1 FTI     -0.038000
      9 C8         -1.0510    1.6390   -6.3530 ca        1 FTI     -0.104000
     10 C9         -2.0340    1.1750   -5.5150 ca        1 FTI     -0.129000
     11 C10        -1.6980    0.4240   -4.3650 ca        1 FTI     -0.096000
     12 C11         1.3480    1.8440   -6.9340 ca        1 FTI     -0.113000
     13 C12        -0.5740   -0.2110    0.6080 c         1 FTI      0.652100
     14 C13         2.0380    0.3560   -4.6650 ca        1 FTI     -0.125000
     15 C14         2.6660    1.5770   -6.6570 ca        1 FTI     -0.127000
     16 C15         3.0130    0.8240   -5.5100 ca        1 FTI     -0.119000
     17 N2         -3.8620   -1.1600    3.7480 nc        1 FTI     -0.662000
     18 C17        -3.2930    0.0070    4.1210 cd        1 FTI      0.390400
     19 N3         -2.0680    0.2190    3.4690 na        1 FTI     -0.179900
     20 C18        -1.8610   -0.8970    2.6430 cd        1 FTI     -0.208900
     21 C19        -2.9870   -1.7300    2.8320 cc        1 FTI      0.304200
     22 C20        -0.6900   -1.1610    1.7900 c3        1 FTI     -0.067100
     23 C21         1.1550    1.7320    4.3230 ca        1 FTI     -0.124000
     24 C22        -0.1030    1.2030    4.6310 ca        1 FTI     -0.091300
     25 C23        -0.3090    0.5850    5.8690 ca        1 FTI     -0.124000
     26 C24         0.7310    0.4900    6.7900 ca        1 FTI     -0.090000
     27 C25         1.9900    1.0220    6.4790 ca        1 FTI     -0.013000
     28 C26         2.1990    1.6470    5.2410 ca        1 FTI     -0.090000
     29 C27         3.0540    0.9290    7.4160 cg        1 FTI      0.229800
     30 N4          3.9260    0.8520    8.1830 n1        1 FTI     -0.355800
     31 C28        -0.0210   -1.9720   -2.8100 cf        1 FTI     -0.006900
     32 O1         -1.2060    0.8620    0.5660 o         1 FTI     -0.595100
     33 C29        -0.3200   -2.7920   -3.9330 ch        1 FTI      0.192500
     34 N5         -0.5610   -3.4770   -4.8430 n1        1 FTI     -0.354800
     35 HC1A        1.0140   -3.5600   -1.7860 hc        1 FTI      0.068700
     36 HC12       -0.6250   -3.1530   -1.1300 hc        1 FTI      0.068700
     37 HC2A        2.0460   -1.5990   -0.8650 h1        1 FTI      0.060200
     38 HC22        1.0360   -2.3140    0.4620 h1        1 FTI      0.060200
     39 HC31       -0.5190    1.0400   -1.5730 h1        1 FTI      0.090700
     40 HC32        1.2630    0.7230   -1.8370 h1        1 FTI      0.090700
     41 HC8        -1.3030    2.2230   -7.2510 ha        1 FTI      0.137000
     42 HC9        -3.0950    1.3790   -5.7240 ha        1 FTI      0.139000
     43 HC10       -2.5050    0.0650   -3.7080 ha        1 FTI      0.142000
     44 HC11        1.0650    2.4260   -7.8240 ha        1 FTI      0.135000
     45 HC13        2.3040   -0.2340   -3.7750 ha        1 FTI      0.132000
     46 HC14        3.4650    1.9420   -7.3200 ha        1 FTI      0.135000
     47 HC15        4.0750    0.6190   -5.3070 ha        1 FTI      0.134000
     48 H161       -0.7900    1.6280    2.6220 h1        1 FTI      0.088700
     49 H162       -1.8650    2.2270    3.9750 h1        1 FTI      0.088700
     50 HC17       -3.7150    0.7300    4.8270 h5        1 FTI      0.062100
     51 HC19       -3.1990   -2.6880    2.3590 h4        1 FTI      0.041100
     52 H201       -0.7880   -2.2190    1.4180 hc        1 FTI      0.080700
     53 H202        0.2590   -1.0830    2.3910 hc        1 FTI      0.080700
     54 HC23       -1.2970    0.1670    6.1210 ha        1 FTI      0.147000
     55 HC24        0.5640    0.0000    7.7620 ha        1 FTI      0.149000
     56 HC26        3.1860    2.0670    4.9950 ha        1 FTI      0.149000
     57 C16        -1.2200    1.3620    3.6350 c3        1 FTI      0.069600
     58 HC21        1.3240    2.2220    3.3510 ha        1 FTI      0.147000
@<TRIPOS>BOND
     1    1    2 1   
     2    1   31 1   
     3    1   35 1   
     4    1   36 1   
     5    2    3 1   
     6    2   37 1   
     7    2   38 1   
     8    3    4 1   
     9    3   13 1   
    10    4    5 1   
    11    4   39 1   
    12    4   40 1   
    13    5    6 1   
    14    5   31 2   
    15    6    7 ar  
    16    6   11 ar  
    17    7    8 ar  
    18    7   14 ar  
    19    8    9 ar  
    20    8   12 ar  
    21    9   10 ar  
    22    9   41 1   
    23   10   11 ar  
    24   10   42 1   
    25   11   43 1   
    26   12   15 ar  
    27   12   44 1   
    28   13   22 1   
    29   13   32 2   
    30   14   16 ar  
    31   14   45 1   
    32   15   16 ar  
    33   15   46 1   
    34   16   47 1   
    35   17   18 2   
    36   17   21 1   
    37   18   19 1   
    38   18   50 1   
    39   19   20 1   
    40   19   57 1   
    41   20   21 2   
    42   20   22 1   
    43   21   51 1   
    44   22   52 1   
    45   22   53 1   
    46   23   24 ar  
    47   23   28 ar  
    48   23   58 1   
    49   24   25 ar  
    50   24   57 1   
    51   25   26 ar  
    52   25   54 1   
    53   26   27 ar  
    54   26   55 1   
    55   27   28 ar  
    56   27   29 1   
    57   28   56 1   
    58   29   30 3   
    59   31   33 1   
    60   33   34 3   
    61   48   57 1   
    62   49   57 1   
@<TRIPOS>SUBSTRUCTURE
     1 FTI         1 TEMP              0 ****  ****    0 ROOT
