@<TRIPOS>MOLECULE
FTI
   58    62     1     0     0
SMALL
bcc


@<TRIPOS>ATOM
      1 C1         -0.3560   -0.5350    0.3000 c3        1 FTI     -0.065200
      2 C2          1.0980   -0.4620   -0.1760 c3        1 FTI      0.078000
      3 N1          2.0460   -0.2030    0.8830 n         1 FTI     -0.456800
      4 C3          1.7660    1.0120    1.6240 c3        1 FTI      0.103200
      5 C4          0.3030    1.2760    1.8770 ce        1 FTI     -0.020400
      6 C5          0.0430    2.3580    2.8330 ca        1 FTI     -0.071800
      7 C6          0.0010    3.7150    2.3850 ca        1 FTI     -0.016000
      8 C7         -0.2340    4.7430    3.3350 ca        1 FTI     -0.038000
      9 C8         -0.4200    4.4050    4.7020 ca        1 FTI     -0.104000
     10 C9         -0.3730    3.0950    5.1080 ca        1 FTI     -0.129000
     11 C10        -0.1390    2.0640    4.1690 ca        1 FTI     -0.096000
     12 C11        -0.2790    6.0960    2.8980 ca        1 FTI     -0.113000
     13 C12         2.7760   -1.2210    1.5060 c         1 FTI      0.652100
     14 C13         0.1850    4.0720    1.0200 ca        1 FTI     -0.125000
     15 C14        -0.0980    6.4100    1.5740 ca        1 FTI     -0.127000
     16 C15         0.1360    5.3850    0.6250 ca        1 FTI     -0.119000
     17 N2          3.5830   -5.5330    3.0310 nc        1 FTI     -0.662000
     18 C17         4.7850   -4.9240    2.9320 cd        1 FTI      0.390400
     19 N3          4.7130   -3.7560    2.1560 na        1 FTI     -0.179900
     20 C18         3.3780   -3.6390    1.7390 cd        1 FTI     -0.208900
     21 C19         2.7020   -4.7480    2.2970 cc        1 FTI      0.304200
     22 C20         2.8130   -2.5990    0.8640 c3        1 FTI     -0.067100
     23 C21         6.9020   -2.0220   -0.2120 ca        1 FTI     -0.124000
     24 C22         6.5090   -3.1230    0.5580 ca        1 FTI     -0.091300
     25 C23         6.8160   -4.4160    0.1240 ca        1 FTI     -0.124000
     26 C24         7.5050   -4.6120   -1.0710 ca        1 FTI     -0.090000
     27 C25         7.8990   -3.5080   -1.8390 ca        1 FTI     -0.013000
     28 C26         7.5970   -2.2090   -1.4040 ca        1 FTI     -0.090000
     29 C27         8.6030   -3.7030   -3.0580 cg        1 FTI      0.229800
     30 N4          9.1790   -3.8630   -4.0560 n1        1 FTI     -0.355800
     31 C28        -0.6660    0.5630    1.2640 cf        1 FTI     -0.006900
     32 O1          3.4540   -0.9520    2.5170 o         1 FTI     -0.595100
     33 C29        -2.0510    0.7900    1.4940 ch        1 FTI      0.192500
     34 N5         -3.1870    0.9630    1.6720 n1        1 FTI     -0.354800
     35 HC1A       -1.0300   -0.4650   -0.5940 hc        1 FTI      0.068700
     36 HC12       -0.5530   -1.5230    0.7960 hc        1 FTI      0.068700
     37 HC2A        1.1900    0.3930   -0.9110 h1        1 FTI      0.060200
     38 HC22        1.3590   -1.4050   -0.7280 h1        1 FTI      0.060200
     39 HC31        2.1730    1.8830    1.0280 h1        1 FTI      0.090700
     40 HC32        2.3080    0.9870    2.6160 h1        1 FTI      0.090700
     41 HC8        -0.6040    5.2140    5.4260 ha        1 FTI      0.137000
     42 HC9        -0.5180    2.8260    6.1650 ha        1 FTI      0.139000
     43 HC10       -0.1040    1.0210    4.5200 ha        1 FTI      0.142000
     44 HC11       -0.4630    6.8830    3.6440 ha        1 FTI      0.135000
     45 HC13        0.3610    3.2720    0.2850 ha        1 FTI      0.132000
     46 HC14       -0.1330    7.4560    1.2340 ha        1 FTI      0.135000
     47 HC15        0.2760    5.6580   -0.4310 ha        1 FTI      0.134000
     48 H161        5.4180   -1.8150    1.8960 h1        1 FTI      0.088700
     49 H162        6.5710   -2.9890    2.6930 h1        1 FTI      0.088700
     50 HC17        5.7150   -5.2610    3.4010 h5        1 FTI      0.062100
     51 HC19        1.6470   -5.0060    2.2050 h4        1 FTI      0.041100
     52 H201        1.7670   -2.9240    0.6030 hc        1 FTI      0.080700
     53 H202        3.4070   -2.5210   -0.0890 hc        1 FTI      0.080700
     54 HC23        6.5110   -5.2880    0.7240 ha        1 FTI      0.147000
     55 HC24        7.7410   -5.6330   -1.4100 ha        1 FTI      0.149000
     56 HC26        7.9070   -1.3410   -2.0050 ha        1 FTI      0.149000
     57 C16         5.8080   -2.8770    1.8660 c3        1 FTI      0.069600
     58 HC21        6.6660   -1.0000    0.1250 ha        1 FTI      0.147000
@<TRIPOS>BOND
     1    1    2 1   
     2    1   31 1   
     3    1   35 1   
     4    1   36 1   
     5    2    3 1   
     6    2   37 1   
     7    2   38 1   
     8    3    4 1   
     9    3   13 1   
    10    4    5 1   
    11    4   39 1   
    12    4   40 1   
    13    5    6 1   
    14    5   31 2   
    15    6    7 ar  
    16    6   11 ar  
    17    7    8 ar  
    18    7   14 ar  
    19    8    9 ar  
    20    8   12 ar  
    21    9   10 ar  
    22    9   41 1   
    23   10   11 ar  
    24   10   42 1   
    25   11   43 1   
    26   12   15 ar  
    27   12   44 1   
    28   13   22 1   
    29   13   32 2   
    30   14   16 ar  
    31   14   45 1   
    32   15   16 ar  
    33   15   46 1   
    34   16   47 1   
    35   17   18 2   
    36   17   21 1   
    37   18   19 1   
    38   18   50 1   
    39   19   20 1   
    40   19   57 1   
    41   20   21 2   
    42   20   22 1   
    43   21   51 1   
    44   22   52 1   
    45   22   53 1   
    46   23   24 ar  
    47   23   28 ar  
    48   23   58 1   
    49   24   25 ar  
    50   24   57 1   
    51   25   26 ar  
    52   25   54 1   
    53   26   27 ar  
    54   26   55 1   
    55   27   28 ar  
    56   27   29 1   
    57   28   56 1   
    58   29   30 3   
    59   31   33 1   
    60   33   34 3   
    61   48   57 1   
    62   49   57 1   
@<TRIPOS>SUBSTRUCTURE
     1 FTI         1 TEMP              0 ****  ****    0 ROOT
