@<TRIPOS>MOLECULE
FTI
   58    62     1     0     0
SMALL
bcc


@<TRIPOS>ATOM
      1 C1         -0.5580   -0.3740    0.3330 c3        1 FTI     -0.065200
      2 C2          0.8760   -0.2360   -0.1900 c3        1 FTI      0.078000
      3 N1          1.8470    0.0380    0.8440 n         1 FTI     -0.456800
      4 C3          1.5470    1.2280    1.6180 c3        1 FTI      0.103200
      5 C4          0.0840    1.4320    1.9230 ce        1 FTI     -0.020400
      6 C5         -0.1850    2.4860    2.9060 ca        1 FTI     -0.071800
      7 C6         -0.2910    3.8480    2.4870 ca        1 FTI     -0.016000
      8 C7         -0.5320    4.8490    3.4630 ca        1 FTI     -0.038000
      9 C8         -0.6630    4.4800    4.8290 ca        1 FTI     -0.104000
     10 C9         -0.5560    3.1650    5.2070 ca        1 FTI     -0.129000
     11 C10        -0.3140    2.1610    4.2420 ca        1 FTI     -0.096000
     12 C11        -0.6400    6.2070    3.0540 ca        1 FTI     -0.113000
     13 C12         2.6360   -0.9610    1.4230 c         1 FTI      0.652100
     14 C13        -0.1640    4.2360    1.1240 ca        1 FTI     -0.125000
     15 C14        -0.5130    6.5520    1.7310 ca        1 FTI     -0.127000
     16 C15        -0.2730    5.5540    0.7560 ca        1 FTI     -0.119000
     17 N2          3.6680   -5.2670    2.8260 nc        1 FTI     -0.662000
     18 C17         4.8400   -4.6070    2.7000 cd        1 FTI      0.390400
     19 N3          4.6950   -3.4290    1.9530 na        1 FTI     -0.179900
     20 C18         3.3420   -3.3580    1.5830 cd        1 FTI     -0.208900
     21 C19         2.7310   -4.5050    2.1400 cc        1 FTI      0.304200
     22 C20         2.7050   -2.3240    0.7500 c3        1 FTI     -0.067100
     23 C21         6.7240   -1.5530   -0.4490 ca        1 FTI     -0.124000
     24 C22         6.4040   -2.6860    0.3070 ca        1 FTI     -0.091300
     25 C23         6.7450   -3.9550   -0.1690 ca        1 FTI     -0.124000
     26 C24         7.3970   -4.0960   -1.3920 ca        1 FTI     -0.090000
     27 C25         7.7180   -2.9590   -2.1470 ca        1 FTI     -0.013000
     28 C26         7.3810   -1.6840   -1.6700 ca        1 FTI     -0.090000
     29 C27         8.3840   -3.0970   -3.3950 cg        1 FTI      0.229800
     30 N4          8.9300   -3.2100   -4.4170 n1        1 FTI     -0.355800
     31 C28        -0.8770    0.6930    1.3270 cf        1 FTI     -0.006900
     32 O1          3.3360   -0.6860    2.4170 o         1 FTI     -0.595100
     33 C29        -2.2610    0.8640    1.6050 ch        1 FTI      0.192500
     34 N5         -3.3970    0.9910    1.8220 n1        1 FTI     -0.354800
     35 HC1A       -1.2630   -0.3130   -0.5380 hc        1 FTI      0.068700
     36 HC12       -0.7010   -1.3780    0.8150 hc        1 FTI      0.068700
     37 HC2A        0.9110    0.6340   -0.9090 h1        1 FTI      0.060200
     38 HC22        1.1540   -1.1580   -0.7680 h1        1 FTI      0.060200
     39 HC31        1.9020    2.1250    1.0270 h1        1 FTI      0.090700
     40 HC32        2.1210    1.2040    2.5910 h1        1 FTI      0.090700
     41 HC8        -0.8530    5.2680    5.5730 ha        1 FTI      0.137000
     42 HC9        -0.6570    2.8720    6.2630 ha        1 FTI      0.139000
     43 HC10       -0.2300    1.1140    4.5710 ha        1 FTI      0.142000
     44 HC11       -0.8300    6.9730    3.8210 ha        1 FTI      0.135000
     45 HC13        0.0180    3.4570    0.3680 ha        1 FTI      0.132000
     46 HC14       -0.5980    7.6020    1.4130 ha        1 FTI      0.135000
     47 HC15       -0.1770    5.8510   -0.2990 ha        1 FTI      0.134000
     48 H161        5.3120   -1.4540    1.7150 h1        1 FTI      0.088700
     49 H162        6.5390   -2.5990    2.4420 h1        1 FTI      0.088700
     50 HC17        5.7990   -4.9150    3.1300 h5        1 FTI      0.062100
     51 HC19        1.6850   -4.8030    2.0790 h4        1 FTI      0.041100
     52 H201        1.6650   -2.6850    0.5190 hc        1 FTI      0.080700
     53 H202        3.2620   -2.2040   -0.2200 hc        1 FTI      0.080700
     54 HC23        6.4980   -4.8530    0.4190 ha        1 FTI      0.147000
     55 HC24        7.6610   -5.0980   -1.7650 ha        1 FTI      0.149000
     56 HC26        7.6350   -0.7900   -2.2600 ha        1 FTI      0.149000
     57 C16         5.7420   -2.4990    1.6450 c3        1 FTI      0.069600
     58 HC21        6.4610   -0.5500   -0.0790 ha        1 FTI      0.147000
@<TRIPOS>BOND
     1    1    2 1   
     2    1   31 1   
     3    1   35 1   
     4    1   36 1   
     5    2    3 1   
     6    2   37 1   
     7    2   38 1   
     8    3    4 1   
     9    3   13 1   
    10    4    5 1   
    11    4   39 1   
    12    4   40 1   
    13    5    6 1   
    14    5   31 2   
    15    6    7 ar  
    16    6   11 ar  
    17    7    8 ar  
    18    7   14 ar  
    19    8    9 ar  
    20    8   12 ar  
    21    9   10 ar  
    22    9   41 1   
    23   10   11 ar  
    24   10   42 1   
    25   11   43 1   
    26   12   15 ar  
    27   12   44 1   
    28   13   22 1   
    29   13   32 2   
    30   14   16 ar  
    31   14   45 1   
    32   15   16 ar  
    33   15   46 1   
    34   16   47 1   
    35   17   18 2   
    36   17   21 1   
    37   18   19 1   
    38   18   50 1   
    39   19   20 1   
    40   19   57 1   
    41   20   21 2   
    42   20   22 1   
    43   21   51 1   
    44   22   52 1   
    45   22   53 1   
    46   23   24 ar  
    47   23   28 ar  
    48   23   58 1   
    49   24   25 ar  
    50   24   57 1   
    51   25   26 ar  
    52   25   54 1   
    53   26   27 ar  
    54   26   55 1   
    55   27   28 ar  
    56   27   29 1   
    57   28   56 1   
    58   29   30 3   
    59   31   33 1   
    60   33   34 3   
    61   48   57 1   
    62   49   57 1   
@<TRIPOS>SUBSTRUCTURE
     1 FTI         1 TEMP              0 ****  ****    0 ROOT
