@<TRIPOS>MOLECULE
FTK
   27    27     1     0     0
SMALL
bcc


@<TRIPOS>ATOM
      1 C1          3.6340    1.3640   -0.3870 ca        1 FTK     -0.079500
      2 C2          4.9960    1.6550   -0.4400 ca        1 FTK     -0.141000
      3 C3          5.9300    0.7340    0.0350 ca        1 FTK     -0.094000
      4 C4          5.5010   -0.4800    0.5720 ca        1 FTK     -0.141000
      5 C5          4.1400   -0.7730    0.6320 ca        1 FTK     -0.079500
      6 C6          3.1970    0.1450    0.1480 ca        1 FTK     -0.181600
      7 C7          1.7650   -0.2050    0.2280 c         1 FTK      0.596700
      8 O7          1.3520   -1.0900    0.9870 o         1 FTK     -0.538100
      9 C8          0.8410    0.5790   -0.6660 c3        1 FTK     -0.289400
     10 C9         -0.5080   -0.0540   -0.8800 c         1 FTK      0.595100
     11 O9         -0.8770   -0.4130   -1.9990 o         1 FTK     -0.497100
     12 C10        -1.3610   -0.1820    0.3510 c3        1 FTK     -0.289400
     13 C11        -2.7690   -0.5910    0.0640 c         1 FTK      0.561100
     14 O11        -3.1520   -1.7070   -0.2470 o         1 FTK     -0.420100
     15 C12        -3.8220    0.5620    0.2440 c3        1 FTK      0.523900
     16 F1         -3.5310    1.6890   -0.4800 f         1 FTK     -0.227300
     17 F2         -5.0950    0.2200   -0.1180 f         1 FTK     -0.227300
     18 F3         -3.9190    0.9960    1.5420 f         1 FTK     -0.227300
     19 H1          2.9090    2.1020   -0.7610 ha        1 FTK      0.145000
     20 H2          5.3340    2.6150   -0.8580 ha        1 FTK      0.141500
     21 H3          7.0050    0.9670   -0.0120 ha        1 FTK      0.139000
     22 H4          6.2350   -1.2070    0.9490 ha        1 FTK      0.141500
     23 H5          3.7910   -1.7260    1.0630 ha        1 FTK      0.145000
     24 H6          0.6930    1.5970   -0.2110 hc        1 FTK      0.100200
     25 H7          1.3330    0.7150   -1.6690 hc        1 FTK      0.100200
     26 H8         -0.8830   -0.9660    1.0130 hc        1 FTK      0.120700
     27 H9         -1.3540    0.7920    0.9110 hc        1 FTK      0.120700
@<TRIPOS>BOND
     1    1    2 ar  
     2    1    6 ar  
     3    1   19 1   
     4    2    3 ar  
     5    2   20 1   
     6    3    4 ar  
     7    3   21 1   
     8    4    5 ar  
     9    4   22 1   
    10    5    6 ar  
    11    5   23 1   
    12    6    7 1   
    13    7    8 2   
    14    7    9 1   
    15    9   10 1   
    16    9   24 1   
    17    9   25 1   
    18   10   11 2   
    19   10   12 1   
    20   12   13 1   
    21   12   26 1   
    22   12   27 1   
    23   13   14 2   
    24   13   15 1   
    25   15   16 1   
    26   15   17 1   
    27   15   18 1   
@<TRIPOS>SUBSTRUCTURE
     1 FTK         1 TEMP              0 ****  ****    0 ROOT
