@<TRIPOS>MOLECULE
FTK
   27    22     1     0     0
SMALL
bcc


@<TRIPOS>ATOM
      1 C1          2.7690    0.3550    2.0060 c1        1 FTK     -0.068000
      2 C2          3.9620    1.0580    2.0680 c1        1 FTK     -0.117000
      3 C3          4.4650    1.6730    0.9320 c1        1 FTK     -0.117000
      4 C4          3.7750    1.5840   -0.2670 c1        1 FTK     -0.117000
      5 C5          2.5820    0.8810   -0.3300 c1        1 FTK     -0.117000
      6 C6          2.0790    0.2660    0.8070 c1        1 FTK     -0.162000
      7 C7          0.7660   -0.4840    0.7430 c1        1 FTK      0.283000
      8 O7          0.3270   -1.0250    1.7380 o         1 FTK     -0.301000
      9 C8          0.0130   -0.5810   -0.5660 c2        1 FTK     -0.268000
     10 C9         -1.4000   -1.0520   -0.3000 c2        1 FTK      0.255000
     11 O9         -1.6430   -1.7180    0.6860 o         1 FTK     -0.256000
     12 C10        -2.5030   -0.7240   -1.2820 c3        1 FTK     -0.260000
     13 C11        -3.8260   -1.2170   -0.7380 c1        1 FTK      0.220000
     14 O11        -3.8800   -2.2700   -0.1360 o         1 FTK     -0.195000
     15 C12        -5.0870   -0.4160   -0.9760 c2        1 FTK      0.363000
     16 F1         -5.1960   -0.1320   -2.2800 f         1 FTK     -0.153667
     17 F2         -6.1500   -1.1300   -0.5840 f         1 FTK     -0.153667
     18 F3         -5.0320    0.7230   -0.2740 f         1 FTK     -0.153667
     19 H1          2.4150   -0.0770    2.8060 ha        1 FTK      0.157000
     20 H2          4.4480    1.1210    2.9130 ha        1 FTK      0.138750
     21 H3          5.3050    2.1680    0.9760 ha        1 FTK      0.138750
     22 H4          4.1290    2.0160   -1.0670 ha        1 FTK      0.138750
     23 H5          2.0960    0.8180   -1.1740 ha        1 FTK      0.138750
     24 H6          0.4640   -1.2180   -1.1550 ha        1 FTK      0.141000
     25 H7         -0.0110    0.2980   -0.9940 ha        1 FTK      0.141000
     26 H8         -2.5450    0.2440   -1.4140 hc        1 FTK      0.161000
     27 H9         -2.3190   -1.1620   -2.1380 hc        1 FTK      0.161000
@<TRIPOS>BOND
     1    1    6 1   
     2    1   19 1   
     3    2    3 1   
     4    2   20 1   
     5    3   21 1   
     6    4    5 1   
     7    4   22 1   
     8    5   23 1   
     9    6    7 1   
    10    7    8 1   
    11    9   10 1   
    12    9   24 1   
    13    9   25 1   
    14   10   11 1   
    15   10   12 1   
    16   12   13 1   
    17   12   26 1   
    18   12   27 1   
    19   13   14 1   
    20   15   16 1   
    21   15   17 1   
    22   15   18 1   
@<TRIPOS>SUBSTRUCTURE
     1 FTK         1 TEMP              0 ****  ****    0 ROOT
