@<TRIPOS>MOLECULE
FTK
   27    27     1     0     0
SMALL
bcc


@<TRIPOS>ATOM
      1 C1         -0.1090    0.5030   -0.0470 ca        1 FTK     -0.079500
      2 C2          1.2770    0.5910    0.0650 ca        1 FTK     -0.141000
      3 C3          1.9280    0.0480    1.1740 ca        1 FTK     -0.094000
      4 C4          1.1900   -0.5910    2.1710 ca        1 FTK     -0.141000
      5 C5         -0.1960   -0.6870    2.0600 ca        1 FTK     -0.079500
      6 C6         -0.8550   -0.1350    0.9520 ca        1 FTK     -0.181600
      7 C7         -2.3250   -0.2550    0.8730 c         1 FTK      0.596700
      8 O7         -2.9480   -1.0900    1.5410 o         1 FTK     -0.538100
      9 C8         -3.0170    0.6950   -0.0680 c3        1 FTK     -0.289400
     10 C9         -4.4960    0.8460    0.1720 c         1 FTK      0.595100
     11 O9         -4.9840    1.9280    0.5000 o         1 FTK     -0.497100
     12 C10        -5.3130   -0.3970   -0.0450 c3        1 FTK     -0.289400
     13 C11        -6.7870   -0.1550   -0.0280 c         1 FTK      0.561100
     14 O11        -7.4770    0.0580    0.9570 o         1 FTK     -0.420100
     15 C12        -7.4690   -0.2430   -1.4410 c3        1 FTK      0.523900
     16 F1         -8.7970    0.0800   -1.4430 f         1 FTK     -0.227300
     17 F2         -6.8960    0.5760   -2.3790 f         1 FTK     -0.227300
     18 F3         -7.4010   -1.5000   -1.9860 f         1 FTK     -0.227300
     19 H1         -0.6070    0.9320   -0.9300 ha        1 FTK      0.145000
     20 H2          1.8590    1.0910   -0.7230 ha        1 FTK      0.141500
     21 H3          3.0220    0.1230    1.2610 ha        1 FTK      0.139000
     22 H4          1.7000   -1.0230    3.0450 ha        1 FTK      0.141500
     23 H5         -0.7870   -1.1990    2.8370 ha        1 FTK      0.145000
     24 H6         -2.8590    0.3260   -1.1190 hc        1 FTK      0.100200
     25 H7         -2.5370    1.7090    0.0200 hc        1 FTK      0.100200
     26 H8         -5.0170   -0.8710   -1.0190 hc        1 FTK      0.120700
     27 H9         -5.0550   -1.1200    0.7860 hc        1 FTK      0.120700
@<TRIPOS>BOND
     1    1    2 ar  
     2    1    6 ar  
     3    1   19 1   
     4    2    3 ar  
     5    2   20 1   
     6    3    4 ar  
     7    3   21 1   
     8    4    5 ar  
     9    4   22 1   
    10    5    6 ar  
    11    5   23 1   
    12    6    7 1   
    13    7    8 2   
    14    7    9 1   
    15    9   10 1   
    16    9   24 1   
    17    9   25 1   
    18   10   11 2   
    19   10   12 1   
    20   12   13 1   
    21   12   26 1   
    22   12   27 1   
    23   13   14 2   
    24   13   15 1   
    25   15   16 1   
    26   15   17 1   
    27   15   18 1   
@<TRIPOS>SUBSTRUCTURE
     1 FTK         1 TEMP              0 ****  ****    0 ROOT
