@<TRIPOS>MOLECULE
FTK
   27    27     1     0     0
SMALL
bcc


@<TRIPOS>ATOM
      1 C1         -0.0960    0.3670   -0.1130 ca        1 FTK     -0.079500
      2 C2          1.2930    0.4090   -0.0220 ca        1 FTK     -0.141000
      3 C3          1.9360   -0.0570    1.1260 ca        1 FTK     -0.094000
      4 C4          1.1860   -0.5740    2.1830 ca        1 FTK     -0.141000
      5 C5         -0.2030   -0.6240    2.0940 ca        1 FTK     -0.079500
      6 C6         -0.8550   -0.1470    0.9460 ca        1 FTK     -0.181600
      7 C7         -2.3290   -0.2140    0.8920 c         1 FTK      0.596700
      8 O7         -2.9750   -0.9590    1.6400 o         1 FTK     -0.538100
      9 C8         -2.9950    0.6720   -0.1260 c3        1 FTK     -0.289400
     10 C9         -4.4640    0.9030    0.1120 c         1 FTK      0.595100
     11 O9         -4.9070    2.0280    0.3420 o         1 FTK     -0.497100
     12 C10        -5.3300   -0.3220    0.0170 c3        1 FTK     -0.289400
     13 C11        -6.7940   -0.0220    0.0210 c         1 FTK      0.561100
     14 O11        -7.4650    0.3070    0.9860 o         1 FTK     -0.420100
     15 C12        -7.4930   -0.2130   -1.3730 c3        1 FTK      0.523900
     16 F1         -8.8080    0.1600   -1.3970 f         1 FTK     -0.227300
     17 F2         -6.8990    0.4930   -2.3870 f         1 FTK     -0.227300
     18 F3         -7.4790   -1.5170   -1.8000 f         1 FTK     -0.227300
     19 H1         -0.5890    0.7350   -1.0260 ha        1 FTK      0.145000
     20 H2          1.8840    0.8120   -0.8580 ha        1 FTK      0.141500
     21 H3          3.0340   -0.0190    1.1960 ha        1 FTK      0.139000
     22 H4          1.6900   -0.9450    3.0880 ha        1 FTK      0.141500
     23 H5         -0.8040   -1.0390    2.9200 ha        1 FTK      0.145000
     24 H6         -2.8640    0.2040   -1.1400 hc        1 FTK      0.100200
     25 H7         -2.4760    1.6710   -0.1340 hc        1 FTK      0.100200
     26 H8         -5.0630   -0.8960   -0.9110 hc        1 FTK      0.120700
     27 H9         -5.0910   -0.9750    0.9090 hc        1 FTK      0.120700
@<TRIPOS>BOND
     1    1    2 ar  
     2    1    6 ar  
     3    1   19 1   
     4    2    3 ar  
     5    2   20 1   
     6    3    4 ar  
     7    3   21 1   
     8    4    5 ar  
     9    4   22 1   
    10    5    6 ar  
    11    5   23 1   
    12    6    7 1   
    13    7    8 2   
    14    7    9 1   
    15    9   10 1   
    16    9   24 1   
    17    9   25 1   
    18   10   11 2   
    19   10   12 1   
    20   12   13 1   
    21   12   26 1   
    22   12   27 1   
    23   13   14 2   
    24   13   15 1   
    25   15   16 1   
    26   15   17 1   
    27   15   18 1   
@<TRIPOS>SUBSTRUCTURE
     1 FTK         1 TEMP              0 ****  ****    0 ROOT
