@<TRIPOS>MOLECULE
FTL
   58    62     1     0     0
SMALL
bcc


@<TRIPOS>ATOM
      1 C8          0.0530    1.0760    1.8070 c3        1 FTL      0.251100
      2 N2         -0.8510   -0.0280    1.5930 nh        1 FTL     -0.675000
      3 C40        -0.8720   -0.7130    0.3680 ca        1 FTL      0.189600
      4 C43        -1.7930   -1.7740    0.1620 ca        1 FTL     -0.190000
      5 C44        -1.8770   -2.4120   -1.0650 ca        1 FTL     -0.057000
      6 C45        -1.0530   -2.0350   -2.1350 ca        1 FTL     -0.053000
      7 C46        -0.1290   -0.9910   -1.9550 cp        1 FTL      0.041000
      8 C47        -0.0410   -0.3470   -0.7170 ca        1 FTL     -0.207000
      9 C51         0.7760   -0.5800   -3.0360 cp        1 FTL     -0.050000
     10 C52         0.6640    0.7210   -3.6170 ca        1 FTL     -0.018000
     11 C53         1.5720    1.0960   -4.6420 ca        1 FTL     -0.039000
     12 C54         2.5670    0.1750   -5.0700 ca        1 FTL     -0.107000
     13 C55         2.6500   -1.0710   -4.5020 ca        1 FTL     -0.129000
     14 C56         1.7500   -1.4520   -3.4810 ca        1 FTL     -0.102000
     15 C65        -1.1760   -2.7100   -3.3780 cg        1 FTL      0.242800
     16 C7          1.4660    2.3870   -5.2290 ca        1 FTL     -0.116000
     17 N1         -1.2890   -3.2700   -4.3910 n1        1 FTL     -0.369800
     18 C2         -0.3340    1.6510   -3.2160 ca        1 FTL     -0.122000
     19 C3          0.4940    3.2650   -4.8170 ca        1 FTL     -0.127000
     20 C4         -0.4170    2.8900   -3.8010 ca        1 FTL     -0.125000
     21 N3         -4.8580   -1.4320    3.5730 nc        1 FTL     -0.662000
     22 C10        -3.5570   -1.8480    3.3220 cc        1 FTL      0.296200
     23 C12        -2.7300   -0.7320    3.0550 cd        1 FTL     -0.236900
     24 N4         -3.5610    0.3920    3.1450 na        1 FTL     -0.184900
     25 C5         -4.8420   -0.0860    3.4600 cd        1 FTL      0.390400
     26 C15        -3.1980    1.7570    2.9590 c3        1 FTL      0.024600
     27 C16         2.2050   -0.2660    1.7780 ca        1 FTL     -0.098000
     28 C11         1.4290    0.7590    2.3270 ca        1 FTL     -0.129300
     29 C13         1.9530    1.5420    3.3600 ca        1 FTL     -0.088000
     30 C14         3.2480    1.3000    3.8360 ca        1 FTL     -0.015000
     31 C17         4.0220    0.2700    3.2830 ca        1 FTL     -0.086000
     32 C6          3.4930   -0.5080    2.2560 ca        1 FTL     -0.131000
     33 C9          3.7770    2.1020    4.8850 cg        1 FTL      0.229800
     34 N5          4.2100    2.7580    5.7430 n1        1 FTL     -0.355800
     35 C18        -1.2650   -0.7430    2.7870 c3        1 FTL      0.284100
     36 HC81        0.1610    1.6590    0.8460 h1        1 FTL      0.064700
     37 HC82       -0.4590    1.7640    2.5470 h1        1 FTL      0.064700
     38 HC43       -2.4730   -2.0890    0.9710 ha        1 FTL      0.157000
     39 HC44       -2.6070   -3.2270   -1.2020 ha        1 FTL      0.148000
     40 HC47        0.7070    0.4550   -0.6180 ha        1 FTL      0.147000
     41 HC54        3.2620    0.4810   -5.8670 ha        1 FTL      0.135000
     42 HC55        3.4130   -1.7920   -4.8340 ha        1 FTL      0.137000
     43 HC56        1.8340   -2.4600   -3.0450 ha        1 FTL      0.139000
     44 HC7         2.1770    2.6640   -6.0220 ha        1 FTL      0.134000
     45 HC2        -1.0440    1.3540   -2.4280 ha        1 FTL      0.140000
     46 HC3         0.4090    4.2630   -5.2720 ha        1 FTL      0.134000
     47 HC4        -1.1940    3.6050   -3.4910 ha        1 FTL      0.132000
     48 HC5        -5.7020    0.5790    3.5900 h5        1 FTL      0.062100
     49 H151       -4.0870    2.4110    3.1630 h1        1 FTL      0.055367
     50 H152       -2.3690    2.0330    3.6670 h1        1 FTL      0.055367
     51 H153       -2.8480    1.9290    1.9050 h1        1 FTL      0.055367
     52 HC16        1.8010   -0.8860    0.9600 ha        1 FTL      0.151000
     53 HC13        1.3530    2.3530    3.8020 ha        1 FTL      0.143000
     54 HC17        5.0380    0.0790    3.6590 ha        1 FTL      0.149000
     55 HC6         4.0960   -1.3180    1.8170 ha        1 FTL      0.145000
     56 H181       -0.7380   -0.2900    3.6800 h1        1 FTL      0.064700
     57 H182       -0.9530   -1.8280    2.7220 h1        1 FTL      0.064700
     58 HC10       -3.2750   -2.9000    3.3490 h4        1 FTL      0.042100
@<TRIPOS>BOND
     1    1    2 1   
     2    1   28 1   
     3    1   36 1   
     4    1   37 1   
     5    2    3 1   
     6    2   35 1   
     7    3    4 ar  
     8    3    8 ar  
     9    4    5 ar  
    10    4   38 1   
    11    5    6 ar  
    12    5   39 1   
    13    6    7 ar  
    14    6   15 1   
    15    7    8 ar  
    16    7    9 1   
    17    8   40 1   
    18    9   10 ar  
    19    9   14 ar  
    20   10   11 ar  
    21   10   18 ar  
    22   11   12 ar  
    23   11   16 ar  
    24   12   13 ar  
    25   12   41 1   
    26   13   14 ar  
    27   13   42 1   
    28   14   43 1   
    29   15   17 3   
    30   16   19 ar  
    31   16   44 1   
    32   18   20 ar  
    33   18   45 1   
    34   19   20 ar  
    35   19   46 1   
    36   20   47 1   
    37   21   22 1   
    38   21   25 2   
    39   22   23 2   
    40   22   58 1   
    41   23   24 1   
    42   23   35 1   
    43   24   25 1   
    44   24   26 1   
    45   25   48 1   
    46   26   49 1   
    47   26   50 1   
    48   26   51 1   
    49   27   28 ar  
    50   27   32 ar  
    51   27   52 1   
    52   28   29 ar  
    53   29   30 ar  
    54   29   53 1   
    55   30   31 ar  
    56   30   33 1   
    57   31   32 ar  
    58   31   54 1   
    59   32   55 1   
    60   33   34 3   
    61   35   56 1   
    62   35   57 1   
@<TRIPOS>SUBSTRUCTURE
     1 FTL         1 TEMP              0 ****  ****    0 ROOT
