@<TRIPOS>MOLECULE
FTL
   58    62     1     0     0
SMALL
bcc


@<TRIPOS>ATOM
      1 C8          0.0000    0.0000    0.0000 c3        1 FTL      0.217100
      2 N2          1.4630    0.0000    0.0000 nh        1 FTL     -0.337000
      3 C40         2.1590    0.0000    1.2060 ca        1 FTL      0.110600
      4 C43         3.5500    0.0800    1.2040 ca        1 FTL     -0.208000
      5 C44         4.2490    0.0790    2.3890 ca        1 FTL     -0.025000
      6 C45         3.5640    0.0010    3.6040 ca        1 FTL     -0.046000
      7 C46         2.1580   -0.0790    3.6090 cp        1 FTL      0.075000
      8 C47         1.4640   -0.0740    2.4040 ca        1 FTL     -0.199000
      9 C51         1.4220   -0.1640    4.8900 cp        1 FTL     -0.039000
     10 C52         1.5410    0.8670    5.8520 ca        1 FTL     -0.006000
     11 C53         0.8210    0.7650    7.0680 ca        1 FTL     -0.040000
     12 C54         0.0150   -0.3620    7.3040 ca        1 FTL     -0.071000
     13 C55        -0.0770   -1.3440    6.3650 ca        1 FTL     -0.148000
     14 C56         0.6170   -1.2570    5.1630 ca        1 FTL     -0.091000
     15 C65         4.2890    0.0010    4.8400 cg        1 FTL      0.243800
     16 C7          0.9320    1.7920    8.0220 ca        1 FTL     -0.084000
     17 N1          4.8810   -0.0050    5.8100 n1        1 FTL     -0.390800
     18 C2          2.3390    1.9940    5.6180 ca        1 FTL     -0.092000
     19 C3          1.7220    2.8690    7.7610 ca        1 FTL     -0.113000
     20 C4          2.4240    2.9700    6.5630 ca        1 FTL     -0.104000
     21 N3          4.4040    3.0320   -1.2530 nc        1 FTL     -0.582000
     22 C10         4.0370    1.9070   -0.5370 cc        1 FTL      0.395200
     23 C12         2.9520    1.1520   -1.2500 cd        1 FTL     -0.357900
     24 N4          2.3080    2.3270   -1.8840 na        1 FTL      0.049100
     25 C5          3.5790    3.0010   -2.3930 cd        1 FTL      0.301400
     26 C15         1.5510    2.2750   -3.0780 c3        1 FTL     -0.016400
     27 C16        -0.8360   -2.1440    0.9860 ca        1 FTL     -0.070000
     28 C11        -0.5030   -1.4140   -0.1410 ca        1 FTL     -0.108300
     29 C13        -0.6340   -1.9760   -1.3940 ca        1 FTL     -0.056000
     30 C14        -1.0960   -3.2880   -1.5230 ca        1 FTL      0.024000
     31 C17        -1.4300   -4.0180   -0.3810 ca        1 FTL     -0.083000
     32 C6         -1.2990   -3.4410    0.8660 ca        1 FTL     -0.091000
     33 C9         -1.2150   -4.1830   -2.7190 cg        1 FTL      0.226800
     34 N5         -1.5910   -4.3690   -3.8000 n1        1 FTL     -0.376800
     35 C18         2.1960    0.0000   -1.2680 c3        1 FTL      0.207100
     36 HC81       -0.3650    0.5460    0.8620 h1        1 FTL      0.035700
     37 HC82       -0.2150    0.5520   -0.9070 h1        1 FTL      0.035700
     38 HC43        4.1450   -0.3550    0.4100 ha        1 FTL      0.131000
     39 HC44        5.2720   -0.2530    2.5130 ha        1 FTL      0.115000
     40 HC47        0.4020    0.1400    2.3920 ha        1 FTL      0.131000
     41 HC54       -0.6450   -0.6890    8.0980 ha        1 FTL      0.114000
     42 HC55       -0.9340   -2.0010    6.2770 ha        1 FTL      0.105000
     43 HC56        0.3720   -2.1050    4.5340 ha        1 FTL      0.107000
     44 HC7         0.5610    1.3500    8.9390 ha        1 FTL      0.115000
     45 HC2         3.2160    1.8700    4.9930 ha        1 FTL      0.127000
     46 HC3         1.6850    3.7840    8.3400 ha        1 FTL      0.104000
     47 HC4         3.0180    3.8270    6.8560 ha        1 FTL      0.124000
     48 HC5         3.4110    3.9820   -2.8220 h5        1 FTL     -0.017900
     49 H151        1.8000    2.0970   -4.1180 h1        1 FTL      0.015367
     50 H152        0.9660    1.4480   -2.6960 h1        1 FTL      0.015367
     51 H153        0.9340    3.1640   -3.1280 h1        1 FTL      0.015367
     52 HC16       -0.9260   -1.5380    1.8800 ha        1 FTL      0.116000
     53 HC13       -0.5590   -1.5450   -2.3850 ha        1 FTL      0.115000
     54 HC17       -2.0210   -4.9210   -0.4740 ha        1 FTL      0.118000
     55 HC6        -1.7990   -3.8750    1.7240 ha        1 FTL      0.110000
     56 H181        1.9830   -0.1870   -2.3130 h1        1 FTL      0.061200
     57 H182        3.0300   -0.6430   -1.0130 h1        1 FTL      0.061200
     58 HC10        4.5460    1.3960    0.2710 h4        1 FTL      0.030100
@<TRIPOS>BOND
     1    1    2 1   
     2    1   28 1   
     3    1   36 1   
     4    1   37 1   
     5    2    3 1   
     6    2   35 1   
     7    3    4 ar  
     8    3    8 ar  
     9    4    5 ar  
    10    4   38 1   
    11    5    6 ar  
    12    5   39 1   
    13    6    7 ar  
    14    6   15 1   
    15    7    8 ar  
    16    7    9 1   
    17    8   40 1   
    18    9   10 ar  
    19    9   14 ar  
    20   10   11 ar  
    21   10   18 ar  
    22   11   12 ar  
    23   11   16 ar  
    24   12   13 ar  
    25   12   41 1   
    26   13   14 ar  
    27   13   42 1   
    28   14   43 1   
    29   15   17 3   
    30   16   19 ar  
    31   16   44 1   
    32   18   20 ar  
    33   18   45 1   
    34   19   20 ar  
    35   19   46 1   
    36   20   47 1   
    37   21   22 1   
    38   21   25 2   
    39   22   23 2   
    40   22   58 1   
    41   23   24 1   
    42   23   35 1   
    43   24   25 1   
    44   24   26 1   
    45   25   48 1   
    46   26   49 1   
    47   26   50 1   
    48   26   51 1   
    49   27   28 ar  
    50   27   32 ar  
    51   27   52 1   
    52   28   29 ar  
    53   29   30 ar  
    54   29   53 1   
    55   30   31 ar  
    56   30   33 1   
    57   31   32 ar  
    58   31   54 1   
    59   32   55 1   
    60   33   34 3   
    61   35   56 1   
    62   35   57 1   
@<TRIPOS>SUBSTRUCTURE
     1 FTL         1 TEMP              0 ****  ****    0 ROOT
