@<TRIPOS>MOLECULE
FTL
   59    63     1     0     0
SMALL
bcc


@<TRIPOS>ATOM
      1 C8          0.0850    0.0680   -0.0400 c3        1 FTL      0.177100
      2 N2          1.4070    0.4820    0.5530 n4        1 FTL     -0.568800
      3 C40         1.8000   -0.3490    1.7000 ca        1 FTL     -0.028400
      4 C43         2.5260   -1.5390    1.5200 ca        1 FTL     -0.109000
      5 C44         2.8970   -2.2850    2.6330 ca        1 FTL     -0.080000
      6 C45         2.5490   -1.8670    3.9260 ca        1 FTL      0.050000
      7 C46         1.8150   -0.6780    4.1120 cp        1 FTL      0.049000
      8 C47         1.4480    0.0790    2.9910 ca        1 FTL     -0.121000
      9 C51         1.4050   -0.2260    5.4440 cp        1 FTL     -0.098000
     10 C52         1.8650    1.0270    5.9560 ca        1 FTL     -0.011000
     11 C53         1.4110    1.4480    7.2340 ca        1 FTL     -0.042000
     12 C54         0.5260    0.6200    7.9760 ca        1 FTL     -0.076000
     13 C55         0.1120   -0.5880    7.4680 ca        1 FTL     -0.136000
     14 C56         0.5560   -1.0140    6.1980 ca        1 FTL     -0.078000
     15 C65         2.9560   -2.6560    5.0370 cg        1 FTL      0.199800
     16 C7          1.8600    2.6920    7.7590 ca        1 FTL     -0.099000
     17 N1          3.2990   -3.3050    5.9390 n1        1 FTL     -0.280800
     18 C2          2.7760    1.8590    5.2490 ca        1 FTL     -0.153000
     19 C3          2.7330    3.4780    7.0480 ca        1 FTL     -0.123000
     20 C4          3.1990    3.0530    5.7810 ca        1 FTL     -0.100000
     21 N3          2.9760    4.1730   -1.3310 nc        1 FTL     -0.644000
     22 C10         3.0810    3.1050   -0.4620 cc        1 FTL      0.369200
     23 C12         2.5580    1.9300   -1.0650 cd        1 FTL     -0.357900
     24 N4          2.1240    2.3170   -2.3480 na        1 FTL     -0.181900
     25 C5          2.4100    3.6790   -2.4630 cd        1 FTL      0.455400
     26 C15         1.6090    1.4730   -3.3760 c3        1 FTL      0.006600
     27 C16        -0.5480   -2.3170    0.3830 ca        1 FTL     -0.076000
     28 C11        -0.0200   -1.3510   -0.4840 ca        1 FTL     -0.160300
     29 C13         0.3150   -1.7060   -1.7950 ca        1 FTL     -0.087000
     30 C14         0.1420   -3.0260   -2.2290 ca        1 FTL      0.004000
     31 C17        -0.3800   -3.9920   -1.3560 ca        1 FTL     -0.052000
     32 C6         -0.7250   -3.6290   -0.0540 ca        1 FTL     -0.123000
     33 C9          0.4930   -3.3780   -3.5610 cg        1 FTL      0.199800
     34 N5          0.7800   -3.6640   -4.6510 n1        1 FTL     -0.300800
     35 C18         2.5120    0.5810   -0.4820 c3        1 FTL      0.218100
     36 HC81       -0.6960    0.2700    0.7520 hx        1 FTL      0.102200
     37 HC82       -0.0930    0.7590   -0.9160 hx        1 FTL      0.102200
     38 HC43        2.8030   -1.8950    0.5140 ha        1 FTL      0.159000
     39 HC44        3.4740   -3.2160    2.4960 ha        1 FTL      0.177000
     40 HC47        0.8830    1.0130    3.1590 ha        1 FTL      0.166000
     41 HC54        0.1860    0.9620    8.9660 ha        1 FTL      0.151000
     42 HC55       -0.5650   -1.2390    8.0430 ha        1 FTL      0.152000
     43 HC56        0.2120   -1.9880    5.8150 ha        1 FTL      0.138000
     44 HC7         1.4970    3.0070    8.7500 ha        1 FTL      0.148000
     45 HC2         3.1550    1.5220    4.2740 ha        1 FTL      0.117000
     46 HC3         3.0850    4.4390    7.4540 ha        1 FTL      0.149000
     47 HC4         3.9120    3.6890    5.2340 ha        1 FTL      0.140000
     48 HC5         2.1930    4.2610   -3.3700 h5        1 FTL      0.089100
     49 H151        2.2450    0.5520   -3.4830 h1        1 FTL      0.068033
     50 H152        0.5530    1.1700   -3.1350 h1        1 FTL      0.068033
     51 H153        1.6100    2.0280   -4.3540 h1        1 FTL      0.068033
     52 HC16       -0.8350   -2.0410    1.4100 ha        1 FTL      0.149000
     53 HC13        0.6950   -0.9500   -2.5010 ha        1 FTL      0.138000
     54 HC17       -0.5230   -5.0300   -1.7020 ha        1 FTL      0.172000
     55 HC6        -1.1470   -4.3830    0.6300 ha        1 FTL      0.166000
     56 H181        2.3420   -0.2260   -1.2510 hx        1 FTL      0.112700
     57 H182        3.4910    0.3800    0.0480 hx        1 FTL      0.112700
     58 H21         1.2630    1.4420    0.9160 hn        1 FTL      0.454800
     59 HC10        3.5300    3.2140    0.5270 h4        1 FTL      0.055100
@<TRIPOS>BOND
     1    1    2 1   
     2    1   28 1   
     3    1   36 1   
     4    1   37 1   
     5    2    3 1   
     6    2   35 1   
     7    2   58 1   
     8    3    4 ar  
     9    3    8 ar  
    10    4    5 ar  
    11    4   38 1   
    12    5    6 ar  
    13    5   39 1   
    14    6    7 ar  
    15    6   15 1   
    16    7    8 ar  
    17    7    9 1   
    18    8   40 1   
    19    9   10 ar  
    20    9   14 ar  
    21   10   11 ar  
    22   10   18 ar  
    23   11   12 ar  
    24   11   16 ar  
    25   12   13 ar  
    26   12   41 1   
    27   13   14 ar  
    28   13   42 1   
    29   14   43 1   
    30   15   17 3   
    31   16   19 ar  
    32   16   44 1   
    33   18   20 ar  
    34   18   45 1   
    35   19   20 ar  
    36   19   46 1   
    37   20   47 1   
    38   21   22 1   
    39   21   25 2   
    40   22   23 2   
    41   22   59 1   
    42   23   24 1   
    43   23   35 1   
    44   24   25 1   
    45   24   26 1   
    46   25   48 1   
    47   26   49 1   
    48   26   50 1   
    49   26   51 1   
    50   27   28 ar  
    51   27   32 ar  
    52   27   52 1   
    53   28   29 ar  
    54   29   30 ar  
    55   29   53 1   
    56   30   31 ar  
    57   30   33 1   
    58   31   32 ar  
    59   31   54 1   
    60   32   55 1   
    61   33   34 3   
    62   35   56 1   
    63   35   57 1   
@<TRIPOS>SUBSTRUCTURE
     1 FTL         1 TEMP              0 ****  ****    0 ROOT
