@<TRIPOS>MOLECULE
FTL
   58    47     1     0     0
SMALL
bcc


@<TRIPOS>ATOM
      1 C8         -2.2670   -0.6380   -1.2580 c3        1 FTL     -0.009000
      2 N2         -0.8010   -0.7400   -1.2650 n3        1 FTL     -0.249000
      3 C40        -0.0800   -0.7500   -0.0210 c2        1 FTL      0.083000
      4 C43         0.6830   -1.8670    0.3380 c2        1 FTL     -0.193000
      5 C44         1.3870   -1.8740    1.5520 c1        1 FTL     -0.067000
      6 C45         1.3270   -0.7680    2.3990 c1        1 FTL     -0.035000
      7 C46         0.5610    0.3530    2.0390 c1        1 FTL      0.031000
      8 C47        -0.1390    0.3620    0.8350 c1        1 FTL     -0.164000
      9 C51         0.5720    1.5240    2.8730 c1        1 FTL     -0.051000
     10 C52         1.4660    2.6170    3.0630 c1        1 FTL     -0.017000
     11 C53         1.2950    3.4650    4.1290 c1        1 FTL     -0.039000
     12 C54         0.2300    3.2520    5.0390 c1        1 FTL     -0.111000
     13 C55        -0.6480    2.1780    4.8510 c1        1 FTL     -0.118333
     14 C56        -0.4750    1.3160    3.7690 c1        1 FTL     -0.118333
     15 C65         2.1110   -0.7690    3.7290 c1        1 FTL     -0.090000
     16 C7          2.2140    4.5200    4.3500 c1        1 FTL     -0.111000
     17 N1          2.6880   -0.7690    4.7110 n1        1 FTL     -0.039000
     18 C2          2.5620    2.7990    2.1860 c1        1 FTL     -0.123000
     19 C3          3.2940    4.6980    3.4830 c1        1 FTL     -0.118333
     20 C4          3.4690    3.8410    2.4050 c1        1 FTL     -0.118333
     21 N3          1.4510    2.2900   -3.0200 n2        1 FTL     -0.149000
     22 C10         0.6820    1.4600   -2.3160 c1        1 FTL     -0.144000
     23 C12         0.5900    0.2690   -3.0100 c1        1 FTL     -0.144000
     24 N4          1.3070    0.3900   -4.1320 n2        1 FTL     -0.149000
     25 C5          1.8480    1.6400   -4.1510 c1        1 FTL     -0.094000
     26 C15         1.4290   -0.6040   -5.1760 c2        1 FTL     -0.081000
     27 C16        -3.8040   -2.5130   -0.5230 c1        1 FTL     -0.118333
     28 C11        -2.8670   -2.0240   -1.4420 c1        1 FTL     -0.119000
     29 C13        -2.5090   -2.7870   -2.5380 c1        1 FTL     -0.089000
     30 C14        -3.0810   -4.0390   -2.7300 c1        1 FTL     -0.019000
     31 C17        -4.0110   -4.5250   -1.8190 c1        1 FTL     -0.087000
     32 C6         -4.3720   -3.7570   -0.7130 c1        1 FTL     -0.118333
     33 C9         -2.6520   -4.8990   -3.9120 c1        1 FTL     -0.100000
     34 N5         -2.3280   -5.5510   -4.8090 n1        1 FTL     -0.034000
     35 C18        -0.1020   -1.0190   -2.5080 c2        1 FTL      0.030000
     36 HC81       -2.5570   -0.0610   -1.9850 h1        1 FTL      0.115000
     37 HC82       -2.5660   -0.2620   -0.4040 h1        1 FTL      0.115000
     38 HC43        0.7240   -2.6380   -0.2540 ha        1 FTL      0.140000
     39 HC44        1.9190   -2.6520    1.8030 ha        1 FTL      0.146000
     40 HC47       -0.6650    1.1330    0.5890 ha        1 FTL      0.155000
     41 HC54        0.1080    3.8630    5.8070 ha        1 FTL      0.135000
     42 HC55       -1.3940    2.0300    5.4890 ha        1 FTL      0.139333
     43 HC56       -1.0900    0.5640    3.6380 ha        1 FTL      0.139333
     44 HC7         2.0910    5.1320    5.1190 ha        1 FTL      0.135000
     45 HC2         2.6870    2.1890    1.4160 ha        1 FTL      0.142000
     46 HC3         3.9380    5.4370    3.6380 ha        1 FTL      0.139333
     47 HC4         4.2360    3.9680    1.7910 ha        1 FTL      0.139333
     48 HC10        0.2630    1.6570   -1.4710 DU        1 FTL      0.193000
     49 HC5         2.4270    2.0110   -4.8610 DU        1 FTL      0.193000
     50 H151        2.0930   -0.3030   -5.8400 ha        1 FTL      0.096000
     51 H152        0.5590   -0.7260   -5.6160 ha        1 FTL      0.096000
     52 H153        1.7200   -1.4550   -4.7860 ha        1 FTL      0.096000
     53 HC16       -4.0580   -1.9720    0.2560 ha        1 FTL      0.139333
     54 HC13       -1.8510   -2.4430   -3.1820 ha        1 FTL      0.148000
     55 HC17       -4.4140   -5.4090   -1.9550 ha        1 FTL      0.148000
     56 HC6        -5.0350   -4.1030   -0.0640 ha        1 FTL      0.139333
     57 H181       -0.7440   -1.3290   -3.1810 h4        1 FTL      0.092000
     58 H182        0.5750   -1.7170   -2.3550 h4        1 FTL      0.092000
@<TRIPOS>BOND
     1    1    2 1   
     2    1   28 1   
     3    1   36 1   
     4    1   37 1   
     5    2    3 1   
     6    2   35 1   
     7    3    4 1   
     8    3    8 1   
     9    4    5 1   
    10    4   38 1   
    11    5   39 1   
    12    6    7 1   
    13    6   15 1   
    14    8   40 1   
    15    9   10 1   
    16   10   18 1   
    17   11   12 1   
    18   11   16 1   
    19   12   41 1   
    20   13   14 1   
    21   13   42 1   
    22   14   43 1   
    23   15   17 1   
    24   16   44 1   
    25   18   45 1   
    26   19   20 1   
    27   19   46 1   
    28   20   47 1   
    29   21   22 1   
    30   21   25 1   
    31   22   23 1   
    32   23   24 1   
    33   24   25 1   
    34   26   50 1   
    35   26   51 1   
    36   26   52 1   
    37   27   32 1   
    38   27   53 1   
    39   28   29 1   
    40   29   54 1   
    41   30   31 1   
    42   30   33 1   
    43   31   55 1   
    44   32   56 1   
    45   33   34 1   
    46   35   57 1   
    47   35   58 1   
@<TRIPOS>SUBSTRUCTURE
     1 FTL         1 TEMP              0 ****  ****    0 ROOT
