@<TRIPOS>MOLECULE
FTM
   10     9     1     0     0
SMALL
bcc


@<TRIPOS>ATOM
      1 F          -0.0220   -0.0030   -0.1130 f         1 FTM     -0.152300
      2 C2          1.3440   -0.0010   -0.0280 c3        1 FTM      0.132900
      3 C1          1.7750    0.0000    1.4410 c         1 FTM      0.485100
      4 O           1.0870    0.0010    2.4410 o         1 FTM     -0.340100
      5 N           3.2730    0.0010    1.6800 nz        1 FTM     -0.766400
      6 H1          1.7550   -0.9270   -0.5260 h1        1 FTM      0.108700
      7 H2          1.7520    0.9260   -0.5260 h1        1 FTM      0.108700
      8 H3          3.6980    0.8350    1.2620 hn        1 FTM      0.473467
      9 H4          3.6980   -0.8330    1.2630 hn        1 FTM      0.473467
     10 HN3         3.4680    0.0020    2.6920 hn        1 FTM      0.473467
@<TRIPOS>BOND
     1    1    2 1   
     2    2    3 1   
     3    2    6 1   
     4    2    7 1   
     5    3    4 2   
     6    3    5 1   
     7    5    8 1   
     8    5    9 1   
     9    5   10 1   
@<TRIPOS>SUBSTRUCTURE
     1 FTM         1 TEMP              0 ****  ****    0 ROOT
