@<TRIPOS>MOLECULE
FTN
   39    40     1     0     0
SMALL
bcc


@<TRIPOS>ATOM
      1 N          -0.3450   -0.9340   -0.3420 n         1 FTN     -0.463100
      2 F1         -4.0010    0.7010   -2.4380 f         1 FTN     -0.232633
      3 O1         -0.5050    0.4570    1.5110 o         1 FTN     -0.563100
      4 C2         -3.4120   -0.3490   -0.3130 ca        1 FTN     -0.143300
      5 F2         -2.4110   -0.7650   -2.4920 f         1 FTN     -0.232633
      6 O2          4.1050    0.4030    0.8620 os        1 FTN     -0.328900
      7 C3         -2.5100   -0.5660    0.7340 ca        1 FTN     -0.093600
      8 F3         -2.0550    1.2010   -1.6410 f         1 FTN     -0.232633
      9 C4         -2.9820   -1.0460    1.9630 ca        1 FTN     -0.092000
     10 C5         -4.3350   -1.3240    2.1400 ca        1 FTN     -0.104000
     11 C6         -5.2310   -1.1160    1.0920 ca        1 FTN     -0.117000
     12 C7         -4.7720   -0.6260   -0.1280 ca        1 FTN     -0.092000
     13 C8         -1.0360   -0.2800    0.6630 c         1 FTN      0.673700
     14 C9          1.0350   -0.8680   -0.6060 ca        1 FTN      0.097600
     15 C10         1.9490   -0.2360    0.2520 ca        1 FTN     -0.186000
     16 C11         3.3200   -0.2350   -0.0750 ca        1 FTN      0.158100
     17 C12         3.7880   -0.8490   -1.2400 ca        1 FTN     -0.233000
     18 C13         2.8690   -1.4740   -2.0840 ca        1 FTN     -0.071000
     19 C14         1.5150   -1.4930   -1.7880 ca        1 FTN     -0.213000
     20 C15         5.5180    0.4890    0.6020 c3        1 FTN      0.141100
     21 C16         5.8060    1.5800   -0.4110 c3        1 FTN     -0.111100
     22 C17         6.1410    0.8090    1.9510 c3        1 FTN     -0.111100
     23 HN         -0.8810   -1.4500   -1.0070 hn        1 FTN      0.327500
     24 H4         -2.2690   -1.1880    2.7920 ha        1 FTN      0.162000
     25 H5         -4.6950   -1.7030    3.1100 ha        1 FTN      0.147000
     26 H6         -6.3020   -1.3320    1.2270 ha        1 FTN      0.147000
     27 H7         -5.4820   -0.4490   -0.9530 ha        1 FTN      0.157000
     28 H10         1.6300    0.2700    1.1780 ha        1 FTN      0.186000
     29 H12         4.8530   -0.8450   -1.5060 ha        1 FTN      0.139000
     30 H13         3.2280   -1.9590   -3.0050 ha        1 FTN      0.132000
     31 H14         0.8190   -1.9900   -2.4790 ha        1 FTN      0.134000
     32 H15         5.8960   -0.5050    0.2360 h1        1 FTN      0.046700
     33 H16         6.9040    1.6410   -0.5970 hc        1 FTN      0.048367
     34 H16A        5.2840    1.3660   -1.3750 hc        1 FTN      0.048367
     35 H16B        5.4470    2.5660   -0.0290 hc        1 FTN      0.048367
     36 H17         5.9200   -0.0060    2.6800 hc        1 FTN      0.048367
     37 H17A        7.2450    0.9080    1.8290 hc        1 FTN      0.048367
     38 H17B        5.7280    1.7640    2.3530 hc        1 FTN      0.048367
     39 C1         -2.9790    0.1890   -1.6760 c3        1 FTN      0.683200
@<TRIPOS>BOND
     1    1   13 1   
     2    1   14 1   
     3    1   23 1   
     4    2   39 1   
     5    3   13 2   
     6    4    7 ar  
     7    4   12 ar  
     8    4   39 1   
     9    5   39 1   
    10    6   16 1   
    11    6   20 1   
    12    7    9 ar  
    13    7   13 1   
    14    8   39 1   
    15    9   10 ar  
    16    9   24 1   
    17   10   11 ar  
    18   10   25 1   
    19   11   12 ar  
    20   11   26 1   
    21   12   27 1   
    22   14   15 ar  
    23   14   19 ar  
    24   15   16 ar  
    25   15   28 1   
    26   16   17 ar  
    27   17   18 ar  
    28   17   29 1   
    29   18   19 ar  
    30   18   30 1   
    31   19   31 1   
    32   20   21 1   
    33   20   22 1   
    34   20   32 1   
    35   21   33 1   
    36   21   34 1   
    37   21   35 1   
    38   22   36 1   
    39   22   37 1   
    40   22   38 1   
@<TRIPOS>SUBSTRUCTURE
     1 FTN         1 TEMP              0 ****  ****    0 ROOT
