@<TRIPOS>MOLECULE
FTN
   39    37     1     0     0
SMALL
bcc


@<TRIPOS>ATOM
      1 N           0.2570   -0.2480   -0.9440 n         1 FTN     -0.316000
      2 C1          4.0560   -1.4270   -1.7170 c3        1 FTN      0.462000
      3 F1          5.0770   -0.6790   -2.1530 f         1 FTN     -0.160667
      4 O1          0.3770   -2.5250   -1.0530 o         1 FTN     -0.329000
      5 C2          2.9560   -1.4330   -2.7560 c2        1 FTN     -0.136000
      6 F2          4.4780   -2.6810   -1.5070 f         1 FTN     -0.160667
      7 O2         -1.2550    1.7660    3.1970 os        1 FTN     -0.218000
      8 C3          1.5700   -1.4210   -2.7740 c1        1 FTN     -0.074000
      9 F3          3.5850   -0.9170   -0.5720 f         1 FTN     -0.160667
     10 C4          0.8890   -1.7750   -3.9280 c1        1 FTN     -0.098500
     11 C5          1.5930   -2.1400   -5.0640 c1        1 FTN     -0.098500
     12 C6          2.9790   -2.1510   -5.0460 c1        1 FTN     -0.117000
     13 C7          3.6610   -1.7980   -3.8920 c2        1 FTN     -0.092000
     14 C8          0.7010   -1.4580   -1.5350 c2        1 FTN      0.349000
     15 C9         -0.5650   -0.2830    0.2120 c2        1 FTN      0.107000
     16 C10        -0.5480    0.7750    1.1070 c2        1 FTN     -0.215000
     17 C11        -1.3330    0.7290    2.2490 c2        1 FTN      0.113000
     18 C12        -2.1340   -0.3750    2.4960 c2        1 FTN     -0.229000
     19 C13        -2.1510   -1.4330    1.6010 c1        1 FTN     -0.074000
     20 C14        -1.3670   -1.3870    0.4590 c1        1 FTN     -0.188000
     21 C15        -2.4240    2.5430    3.2880 c3        1 FTN      0.031000
     22 C16        -2.8620    2.6270    4.7350 c3        1 FTN     -0.229500
     23 C17        -2.1470    3.9350    2.7640 c3        1 FTN     -0.229500
     24 HN          0.4860    0.5520   -1.3160 hn        1 FTN      0.242000
     25 H4         -0.0870   -1.7660   -3.9400 ha        1 FTN      0.154000
     26 H5          1.1140   -2.3880   -5.8770 ha        1 FTN      0.154000
     27 H6          3.4760   -2.4080   -5.8470 ha        1 FTN      0.147000
     28 H7          4.6370   -1.8060   -3.8790 ha        1 FTN      0.158000
     29 H10         0.0230    1.5490    0.9380 ha        1 FTN      0.149000
     30 H12        -2.6870   -0.4070    3.3000 ha        1 FTN      0.139000
     31 H13        -2.7150   -2.2100    1.7740 ha        1 FTN      0.135000
     32 H14        -1.3790   -2.1320   -0.1720 ha        1 FTN      0.172000
     33 H15        -3.1330    2.1300    2.7570 h1        1 FTN      0.088000
     34 H16        -2.8640    1.7290    5.1280 hc        1 FTN      0.087500
     35 H16A       -3.7640    3.0060    4.7820 hc        1 FTN      0.087500
     36 H16B       -2.2400    3.2000    5.2320 hc        1 FTN      0.087500
     37 H17        -2.9560    4.4820    2.8460 hc        1 FTN      0.087500
     38 H17A       -1.4230    4.3420    3.2850 hc        1 FTN      0.087500
     39 H17B       -1.8810    3.8820    1.8220 hc        1 FTN      0.087500
@<TRIPOS>BOND
     1    1   14 1   
     2    1   15 1   
     3    1   24 1   
     4    2    3 1   
     5    2    5 1   
     6    2    6 1   
     7    2    9 1   
     8    4   14 1   
     9    5    8 1   
    10    5   13 1   
    11    7   17 1   
    12    7   21 1   
    13    8   14 1   
    14   10   11 1   
    15   10   25 1   
    16   11   26 1   
    17   12   13 1   
    18   12   27 1   
    19   13   28 1   
    20   15   16 1   
    21   15   20 1   
    22   16   17 1   
    23   16   29 1   
    24   17   18 1   
    25   18   19 1   
    26   18   30 1   
    27   19   31 1   
    28   20   32 1   
    29   21   22 1   
    30   21   23 1   
    31   21   33 1   
    32   22   34 1   
    33   22   35 1   
    34   22   36 1   
    35   23   37 1   
    36   23   38 1   
    37   23   39 1   
@<TRIPOS>SUBSTRUCTURE
     1 FTN         1 TEMP              0 ****  ****    0 ROOT
