@<TRIPOS>MOLECULE
FTN
   39    39     1     0     0
SMALL
bcc


@<TRIPOS>ATOM
      1 N           1.3260   -0.1620    0.6970 ns        1 FTN     -0.448100
      2 F1          4.9600   -1.9940   -1.2930 f         1 FTN     -0.229967
      3 O1          1.9630    2.0310    0.2950 o         1 FTN     -0.555100
      4 C2          3.1030   -0.5140   -1.8580 ca        1 FTN     -0.141300
      5 F2          3.0770   -2.3820   -0.3010 f         1 FTN     -0.229967
      6 O2         -0.9710    2.4020    4.0140 os        1 FTN     -0.251200
      7 C3          2.1870    0.4840   -1.5060 ca        1 FTN     -0.095600
      8 F3          4.2870   -0.6730    0.2810 f         1 FTN     -0.229967
      9 C4          1.5600    1.2320   -2.5110 ca        1 FTN     -0.092000
     10 C5          1.8290    0.9750   -3.8540 ca        1 FTN     -0.105000
     11 C6          2.7350   -0.0260   -4.2030 ca        1 FTN     -0.115000
     12 C7          3.3730   -0.7650   -3.2080 ca        1 FTN     -0.091000
     13 C8          1.8410    0.8590   -0.0950 c         1 FTN      0.673700
     14 C9          0.8850   -0.0310    2.0040 ce        1 FTN      0.094500
     15 C10         0.5040    1.2540    2.6160 ce        1 FTN     -0.194000
     16 C11        -0.5190    1.1890    3.5180 c2        1 FTN      0.099900
     17 C12        -1.1370   -0.0890    4.0370 c3        1 FTN     -0.061000
     18 C13        -0.1360   -1.2000    3.8930 c2        1 FTN     -0.157300
     19 C14         0.6560   -1.0740    2.8440 c1        1 FTN     -0.162800
     20 C15        -2.2520    2.3990    4.5690 c2        1 FTN     -0.005900
     21 C16        -1.4470   -0.9180    7.5930 c3        1 FTN     -0.113800
     22 C17        -2.5140    3.2840    5.5340 c2        1 FTN     -0.244000
     23 HN          1.3500   -1.0960    0.3410 hn        1 FTN      0.340500
     24 H4          0.8610    2.0350   -2.2260 ha        1 FTN      0.161000
     25 H5          1.3290    1.5670   -4.6360 ha        1 FTN      0.148000
     26 H6          2.9530   -0.2330   -5.2620 ha        1 FTN      0.148000
     27 H7          4.0980   -1.5480   -3.4830 ha        1 FTN      0.159000
     28 H10         0.9620    2.1990    2.2960 ha        1 FTN      0.189000
     29 H12        -2.0960   -0.2880    3.4900 hc        1 FTN      0.079700
     30 H13        -1.3750    0.0270    5.1310 hc        1 FTN      0.079700
     31 H14        -0.0540   -1.9520    4.6830 ha        1 FTN      0.150000
     32 H15        -2.9750    1.7060    4.1170 h4        1 FTN      0.137000
     33 H16        -0.8500   -1.5180    6.8720 hc        1 FTN      0.028700
     34 H16A       -1.3970   -1.3900    8.5980 hc        1 FTN      0.028700
     35 H16B       -2.5060   -0.8770    7.2550 hc        1 FTN      0.028700
     36 H17        -1.0350    0.1130    7.6470 hc        1 FTN      0.028700
     37 H17A       -1.7500    3.9540    5.9460 ha        1 FTN      0.133500
     38 H17B       -3.5260    3.3880    5.9430 ha        1 FTN      0.133500
     39 C1          3.8380   -1.3590   -0.8180 c3        1 FTN      0.682200
@<TRIPOS>BOND
     1    1   13 1   
     2    1   14 1   
     3    1   23 1   
     4    2   39 1   
     5    3   13 2   
     6    4    7 ar  
     7    4   12 ar  
     8    4   39 1   
     9    5   39 1   
    10    6   16 1   
    11    6   20 1   
    12    7    9 ar  
    13    7   13 1   
    14    8   39 1   
    15    9   10 ar  
    16    9   24 1   
    17   10   11 ar  
    18   10   25 1   
    19   11   12 ar  
    20   11   26 1   
    21   12   27 1   
    22   14   15 1   
    23   14   19 2   
    24   15   16 2   
    25   15   28 1   
    26   16   17 1   
    27   17   18 1   
    28   17   29 1   
    29   17   30 1   
    30   18   19 2   
    31   18   31 1   
    32   20   22 2   
    33   20   32 1   
    34   21   33 1   
    35   21   34 1   
    36   21   35 1   
    37   21   36 1   
    38   22   37 1   
    39   22   38 1   
@<TRIPOS>SUBSTRUCTURE
     1 FTN         1 TEMP              0 ****  ****    0 ROOT
