@<TRIPOS>MOLECULE
FTN
   40    40     1     0     0
SMALL
bcc


@<TRIPOS>ATOM
      1 N          -2.0210   -0.7850    0.9940 n2        1 FTN     -0.456400
      2 F1          4.1760    1.1900    0.5200 f         1 FTN     -0.237633
      3 O1          0.5290   -0.4530   -0.5490 o         1 FTN     -0.595100
      4 C2          3.2800    0.1420   -1.5000 ca        1 FTN     -0.106300
      5 F2          2.7470   -0.3960    0.8280 f         1 FTN     -0.237633
      6 O2          0.0770    1.3420    4.6020 os        1 FTN     -0.267900
      7 C3          2.2490   -0.4770   -2.2270 ca        1 FTN     -0.162600
      8 F3          2.0850    1.5390    0.1160 f         1 FTN     -0.237633
      9 C4          2.5000   -0.8770   -3.5480 ca        1 FTN     -0.083000
     10 C5          3.7470   -0.6650   -4.1340 ca        1 FTN     -0.107000
     11 C6          4.7620   -0.0510   -3.4050 ca        1 FTN     -0.085000
     12 C7          4.5280    0.3530   -2.0880 ca        1 FTN     -0.095000
     13 C8          0.9040   -0.7410   -1.6920 c         1 FTN      0.606500
     14 C9         -1.4250   -0.2200    1.9490 cc        1 FTN      0.070600
     15 C10        -0.1060    0.3930    2.3310 cc        1 FTN      0.052000
     16 C11        -0.5740    0.7090    3.6230 cd        1 FTN      0.081100
     17 C12        -4.1740   -0.6140    3.5300 c2        1 FTN      0.050000
     18 C13        -3.0670   -0.0380    4.0670 cf        1 FTN     -0.228200
     19 C14        -1.8760    0.1410    3.3600 cd        1 FTN      0.155200
     20 C15        -0.6100    1.5010    5.8830 c3        1 FTN      0.144100
     21 C16        -0.6050    0.1880    6.6310 c3        1 FTN     -0.120600
     22 C17         0.1910    2.5740    6.5950 c3        1 FTN     -0.120600
     23 HN          0.2080   -1.2400   -2.4080 h4        1 FTN      0.018200
     24 H4          1.7020   -1.3640   -4.1330 ha        1 FTN      0.150000
     25 H5          3.9270   -0.9850   -5.1730 ha        1 FTN      0.159000
     26 H6          5.7510    0.1200   -3.8600 ha        1 FTN      0.161000
     27 H7          5.3350    0.8400   -1.5140 ha        1 FTN      0.168000
     28 H10         0.8260    0.5140    1.7720 ha        1 FTN      0.244000
     29 H12        -4.2230   -0.9840    2.4910 ha        1 FTN      0.166500
     30 H13        -5.0940   -0.7340    4.1280 ha        1 FTN      0.166500
     31 H14        -3.0850    0.3130    5.1190 ha        1 FTN      0.174000
     32 H15        -1.6570    1.8550    5.6770 h1        1 FTN      0.051700
     33 H16        -1.0830    0.3280    7.6310 hc        1 FTN      0.066367
     34 H16A        0.4420   -0.1730    6.7840 hc        1 FTN      0.066367
     35 H16B       -1.1710   -0.5920    6.0660 hc        1 FTN      0.066367
     36 H17         1.2470    2.2420    6.7410 hc        1 FTN      0.066367
     37 H17A        0.1930    3.5180    6.0000 hc        1 FTN      0.066367
     38 H17B       -0.2750    2.7670    7.5920 hc        1 FTN      0.066367
     39 HN3        -1.5150   -0.9190    0.1380 hn        1 FTN      0.431800
     40 C1          3.0780    0.6030   -0.0580 c3        1 FTN      0.691200
@<TRIPOS>BOND
     1    1   14 1   
     2    1   39 1   
     3    2   40 1   
     4    3   13 2   
     5    4    7 ar  
     6    4   12 ar  
     7    4   40 1   
     8    5   40 1   
     9    6   16 1   
    10    6   20 1   
    11    7    9 ar  
    12    7   13 1   
    13    8   40 1   
    14    9   10 ar  
    15    9   24 1   
    16   10   11 ar  
    17   10   25 1   
    18   11   12 ar  
    19   11   26 1   
    20   12   27 1   
    21   13   23 1   
    22   14   15 1   
    23   14   19 2   
    24   15   16 2   
    25   15   28 1   
    26   16   19 1   
    27   17   18 2   
    28   17   29 1   
    29   17   30 1   
    30   18   19 1   
    31   18   31 1   
    32   20   21 1   
    33   20   22 1   
    34   20   32 1   
    35   21   33 1   
    36   21   34 1   
    37   21   35 1   
    38   22   36 1   
    39   22   37 1   
    40   22   38 1   
@<TRIPOS>SUBSTRUCTURE
     1 FTN         1 TEMP              0 ****  ****    0 ROOT
