@<TRIPOS>MOLECULE
FTN
   39    40     1     0     0
SMALL
bcc


@<TRIPOS>ATOM
      1 N           0.4720   -0.3010    0.2620 n         1 FTN     -0.448100
      2 F1          4.4850   -2.2320   -0.4510 f         1 FTN     -0.231633
      3 O1          1.2400    1.8860    0.2250 o         1 FTN     -0.557100
      4 C2          3.0070   -0.6170   -1.5300 ca        1 FTN     -0.140300
      5 F2          2.3610   -2.5470   -0.1950 f         1 FTN     -0.231633
      6 O2         -0.3270    1.2690    4.6570 os        1 FTN     -0.332900
      7 C3          2.0620    0.4130   -1.4610 ca        1 FTN     -0.095600
      8 F3          3.3650   -0.9430    0.8730 f         1 FTN     -0.231633
      9 C4          1.8600    1.2410   -2.5730 ca        1 FTN     -0.091000
     10 C5          2.5810    1.0350   -3.7470 ca        1 FTN     -0.105000
     11 C6          3.5160    0.0030   -3.8170 ca        1 FTN     -0.115000
     12 C7          3.7310   -0.8170   -2.7110 ca        1 FTN     -0.092000
     13 C8          1.2450    0.7360   -0.2450 c         1 FTN      0.674700
     14 C9         -0.4030   -0.2170    1.3330 ce        1 FTN      0.094500
     15 C10        -0.3400    0.8260    2.3700 ce        1 FTN     -0.196000
     16 C11        -0.6970    0.4300    3.6290 c2        1 FTN      0.107900
     17 C12        -1.3240   -0.9060    3.9570 c3        1 FTN     -0.061000
     18 C13        -1.9840   -1.4520    2.7240 c2        1 FTN     -0.160300
     19 C14        -1.3760   -1.1290    1.5960 c1        1 FTN     -0.168800
     20 C15        -1.2640    1.4260    5.7450 c3        1 FTN      0.140100
     21 C16        -0.8410    0.5360    6.8980 c3        1 FTN     -0.110600
     22 C17        -1.1980    2.8940    6.1280 c3        1 FTN     -0.110600
     23 HN          0.5140   -1.1900   -0.1940 hn        1 FTN      0.339500
     24 H4          1.1330    2.0670   -2.5020 ha        1 FTN      0.162000
     25 H5          2.4130    1.6900   -4.6160 ha        1 FTN      0.148000
     26 H6          4.0890   -0.1650   -4.7420 ha        1 FTN      0.147000
     27 H7          4.4790   -1.6250   -2.7620 ha        1 FTN      0.158000
     28 H10         0.0880    1.8140    2.1560 ha        1 FTN      0.185000
     29 H12        -2.1110   -0.7930    4.7480 hc        1 FTN      0.077700
     30 H13        -0.5220   -1.5770    4.3680 hc        1 FTN      0.077700
     31 H14        -2.9410   -1.9730    2.8140 ha        1 FTN      0.146000
     32 H15        -2.3040    1.1680    5.4050 h1        1 FTN      0.049700
     33 H16        -0.8580   -0.5370    6.5920 hc        1 FTN      0.048033
     34 H16A       -1.5350    0.6810    7.7590 hc        1 FTN      0.048033
     35 H16B        0.1970    0.7920    7.2210 hc        1 FTN      0.048033
     36 H17        -0.1530    3.1770    6.3990 hc        1 FTN      0.048033
     37 H17A       -1.5240    3.5300    5.2710 hc        1 FTN      0.048033
     38 H17B       -1.8670    3.0790    7.0010 hc        1 FTN      0.048033
     39 C1          3.2960   -1.5500   -0.3550 c3        1 FTN      0.683200
@<TRIPOS>BOND
     1    1   13 1   
     2    1   14 1   
     3    1   23 1   
     4    2   39 1   
     5    3   13 2   
     6    4    7 ar  
     7    4   12 ar  
     8    4   39 1   
     9    5   39 1   
    10    6   16 1   
    11    6   20 1   
    12    7    9 ar  
    13    7   13 1   
    14    8   39 1   
    15    9   10 ar  
    16    9   24 1   
    17   10   11 ar  
    18   10   25 1   
    19   11   12 ar  
    20   11   26 1   
    21   12   27 1   
    22   14   15 1   
    23   14   19 2   
    24   15   16 2   
    25   15   28 1   
    26   16   17 1   
    27   17   18 1   
    28   17   29 1   
    29   17   30 1   
    30   18   19 2   
    31   18   31 1   
    32   20   21 1   
    33   20   22 1   
    34   20   32 1   
    35   21   33 1   
    36   21   34 1   
    37   21   35 1   
    38   22   36 1   
    39   22   37 1   
    40   22   38 1   
@<TRIPOS>SUBSTRUCTURE
     1 FTN         1 TEMP              0 ****  ****    0 ROOT
