@<TRIPOS>MOLECULE
FTP
   38    39     1     0     0
SMALL
bcc


@<TRIPOS>ATOM
      1 N1A         0.0000    0.0000    0.0000 nb        1 FTP     -0.573000
      2 C2A         1.3180    0.0000    0.0000 ca        1 FTP      0.507300
      3 CM2         2.0500   -0.0010   -1.3180 c3        1 FTP      0.549600
      4 N3A         2.0130    0.0000    1.1190 nb        1 FTP     -0.590000
      5 C4A         1.4000    0.0060    2.2990 ca        1 FTP      0.547200
      6 N4A         2.1340    0.0060    3.4740 nv        1 FTP     -0.628500
      7 C5A         0.0040    0.0000    2.3350 ca        1 FTP     -0.347900
      8 C6A        -0.6820    0.0000    1.1370 ca        1 FTP      0.450200
      9 C7A        -0.7340    0.0000    3.6490 c3        1 FTP     -0.041400
     10 N3         -0.8700    1.3770    4.1330 na        1 FTP      0.621900
     11 C2          0.0170    1.8490    4.9780 cc        1 FTP     -0.428400
     12 S1         -0.5570    3.4660    5.2450 ss        1 FTP     -0.261800
     13 C5         -1.9790    3.3860    4.1650 cc        1 FTP      0.035600
     14 C4         -1.8720    2.1150    3.7040 cd        1 FTP     -0.336600
     15 CM4        -2.8770    1.5600    2.7290 c3        1 FTP      0.063200
     16 C6         -3.0120    4.4390    3.8550 c3        1 FTP      0.071900
     17 C7         -4.1690    4.3280    4.8490 c3        1 FTP      0.232400
     18 O7         -5.1490    5.3260    4.5550 os        1 FTP     -0.446200
     19 P1         -6.3310    5.1510    5.6340 p5        1 FTP      0.776900
     20 O1         -5.7820    5.4730    7.0660 o         1 FTP     -0.544500
     21 O2         -7.5010    6.1340    5.2900 o         1 FTP     -0.544500
     22 O3         -6.8590    3.6770    5.5950 o         1 FTP     -0.544500
     23 F1          1.1620    0.3410   -2.3440 f         1 FTP     -0.200300
     24 F2          3.0910    0.9320   -1.2720 f         1 FTP     -0.200300
     25 F3          2.5740   -1.2740   -1.5590 f         1 FTP     -0.200300
     26 H4A1        2.1620   -0.8160    4.0450 hn        1 FTP      0.288300
     27 H4A2        2.6840    0.8050    3.7200 hn        1 FTP      0.288300
     28 H6A1       -1.7650   -0.0020    1.1260 h4        1 FTP      0.010100
     29 H7A1       -1.7180   -0.4320    3.5100 h1        1 FTP      0.055700
     30 H7A2       -0.1820   -0.5850    4.3740 h1        1 FTP      0.055700
     31 H21         0.8820    1.3550    5.4040 h5        1 FTP      0.198000
     32 HM41       -2.5530    1.7710    1.7170 hc        1 FTP      0.024033
     33 HM42       -3.8420    2.0210    2.9020 hc        1 FTP      0.024033
     34 HM43       -2.9590    0.4880    2.8650 hc        1 FTP      0.024033
     35 H61        -3.3860    4.2930    2.8490 hc        1 FTP      0.024200
     36 H62        -2.5620    5.4210    3.9340 hc        1 FTP      0.024200
     37 H71        -3.7960    4.4750    5.8550 h1        1 FTP      0.007700
     38 H72        -4.6190    3.3460    4.7710 h1        1 FTP      0.007700
@<TRIPOS>BOND
     1    1    2 ar  
     2    1    8 ar  
     3    2    3 1   
     4    2    4 ar  
     5    3   23 1   
     6    3   24 1   
     7    3   25 1   
     8    4    5 ar  
     9    5    6 1   
    10    5    7 ar  
    11    6   26 1   
    12    6   27 1   
    13    7    8 ar  
    14    7    9 1   
    15    8   28 1   
    16    9   10 1   
    17    9   29 1   
    18    9   30 1   
    19   10   11 2   
    20   10   14 1   
    21   11   12 1   
    22   11   31 1   
    23   12   13 1   
    24   13   14 2   
    25   13   16 1   
    26   14   15 1   
    27   15   32 1   
    28   15   33 1   
    29   15   34 1   
    30   16   17 1   
    31   16   35 1   
    32   16   36 1   
    33   17   18 1   
    34   17   37 1   
    35   17   38 1   
    36   18   19 1   
    37   19   20 1   
    38   19   21 1   
    39   19   22 1   
@<TRIPOS>SUBSTRUCTURE
     1 FTP         1 TEMP              0 ****  ****    0 ROOT
