@<TRIPOS>MOLECULE
FTR
   26    27     1     0     0
SMALL
bcc


@<TRIPOS>ATOM
      1 N           1.8270   -0.2690    2.8700 n3        1 FTR     -0.902800
      2 CA          0.5470    0.3630    2.5710 c3        1 FTR      0.016500
      3 CB         -0.1260   -0.1760    1.3060 c3        1 FTR     -0.013200
      4 CG          0.5970    0.1040    0.0580 cc        1 FTR     -0.095400
      5 CD2         0.0820   -0.1410   -1.2790 ca        1 FTR     -0.072800
      6 CE2         1.1150    0.2800   -2.2050 ca        1 FTR     -0.065200
      7 CE3        -1.1130   -0.6580   -1.7660 ca        1 FTR     -0.106000
      8 CD1         1.8710    0.6440   -0.0980 cd        1 FTR     -0.097100
      9 NE1         2.2070    0.7250   -1.4590 na        1 FTR     -0.207400
     10 CZ2         0.9290    0.1770   -3.5910 ca        1 FTR     -0.138000
     11 CZ3        -1.2800   -0.7540   -3.1530 ca        1 FTR      0.068900
     12 F          -2.4380   -1.2560   -3.6600 f         1 FTR     -0.162900
     13 CH2        -0.2700   -0.3400   -4.0550 ca        1 FTR     -0.160000
     14 C          -0.4930    0.2950    3.7420 c         1 FTR      0.889600
     15 O          -0.1020   -0.1670    4.8520 o         1 FTR     -0.839800
     16 OXT        -1.6560    0.7270    3.5150 o         1 FTR     -0.839800
     17 H           1.7230   -1.2640    2.7830 hn        1 FTR      0.334300
     18 H2          2.0260   -0.0890    3.8420 hn        1 FTR      0.334300
     19 HA          0.7670    1.4600    2.4120 h1        1 FTR      0.041700
     20 HB2        -0.2770   -1.2870    1.4000 hc        1 FTR      0.064700
     21 HB3        -1.1500    0.2920    1.2600 hc        1 FTR      0.064700
     22 HE3        -1.9070   -0.9800   -1.0770 ha        1 FTR      0.157000
     23 HD1         2.5830    0.9550    0.6720 h4        1 FTR      0.191000
     24 HE1         2.9820    1.2030   -1.8270 hn        1 FTR      0.283700
     25 HZ2         1.7100    0.4970   -4.2930 ha        1 FTR      0.122000
     26 HH2        -0.4530   -0.4340   -5.1340 ha        1 FTR      0.129000
@<TRIPOS>BOND
     1    1    2 1   
     2    1   17 1   
     3    1   18 1   
     4    2    3 1   
     5    2   14 1   
     6    2   19 1   
     7    3    4 1   
     8    3   20 1   
     9    3   21 1   
    10    4    5 1   
    11    4    8 2   
    12    5    6 ar  
    13    5    7 ar  
    14    6    9 1   
    15    6   10 ar  
    16    7   11 ar  
    17    7   22 1   
    18    8    9 1   
    19    8   23 1   
    20    9   24 1   
    21   10   13 ar  
    22   10   25 1   
    23   11   12 1   
    24   11   13 ar  
    25   13   26 1   
    26   14   15 1   
    27   14   16 1   
@<TRIPOS>SUBSTRUCTURE
     1 FTR         1 TEMP              0 ****  ****    0 ROOT
