@<TRIPOS>MOLECULE
FTR
   26    21     1     0     0
SMALL
bcc


@<TRIPOS>ATOM
      1 N          -0.4710   -2.3070   -2.6010 n3        1 FTR     -0.323000
      2 CA          0.4970   -1.6310   -1.7590 c3        1 FTR     -0.122000
      3 CB          0.0010   -1.6260   -0.3500 c3        1 FTR     -0.076000
      4 CG          0.2700   -0.2980    0.2710 c2        1 FTR     -0.144000
      5 CD2        -0.5010    0.7840    0.6620 c1        1 FTR     -0.049000
      6 CE2         0.2670    1.5610    1.5680 c1        1 FTR     -0.029000
      7 CE3        -1.7710    1.1760    0.3320 c1        1 FTR     -0.118000
      8 CD1         1.5030   -0.2050    0.9180 c1        1 FTR     -0.050000
      9 NE1         1.4880    0.9530    1.7200 n1        1 FTR     -0.224000
     10 CZ2        -0.2700    2.7210    2.1220 c1        1 FTR     -0.132000
     11 CZ3        -2.3200    2.3630    0.8990 c1        1 FTR      0.034000
     12 F          -3.4740    2.7920    0.6830 f         1 FTR     -0.132000
     13 CH2        -1.5690    3.1220    1.7850 c1        1 FTR     -0.169000
     14 C           1.8260   -2.3580   -1.8300 c2        1 FTR      0.304000
     15 O           2.7380   -1.8640   -2.4070 o         1 FTR     -0.579500
     16 OXT         1.8950   -3.5290   -1.4760 o         1 FTR     -0.579500
     17 H          -0.3980   -2.0090   -3.4420 hn        1 FTR      0.127000
     18 H2         -0.3210   -3.1740   -2.5820 hn        1 FTR      0.127000
     19 HA          0.6130   -0.7140   -2.0670 h1        1 FTR      0.086000
     20 HB2        -0.9150   -1.7890   -0.3460 hc        1 FTR      0.083500
     21 HB3         0.4620   -2.3280    0.1660 hc        1 FTR      0.083500
     22 HE3        -2.2820    0.6590   -0.2780 ha        1 FTR      0.148000
     23 HD1         2.2320   -0.7650    0.7830 DU        1 FTR      0.242500
     24 HE1         2.1930    1.2570    2.2670 DU        1 FTR      0.242500
     25 HZ2         0.2680    3.2650    2.7570 ha        1 FTR      0.121000
     26 HH2        -1.9640    3.9460    2.2020 ha        1 FTR      0.127000
@<TRIPOS>BOND
     1    1    2 1   
     2    1   17 1   
     3    1   18 1   
     4    2    3 1   
     5    2   14 1   
     6    2   19 1   
     7    3    4 1   
     8    3   20 1   
     9    3   21 1   
    10    4    5 1   
    11    4    8 1   
    12    5    7 1   
    13    6   10 1   
    14    7   22 1   
    15    8    9 1   
    16   10   25 1   
    17   11   12 1   
    18   11   13 1   
    19   13   26 1   
    20   14   15 1   
    21   14   16 1   
@<TRIPOS>SUBSTRUCTURE
     1 FTR         1 TEMP              0 ****  ****    0 ROOT
