@<TRIPOS>MOLECULE
FTS
   39    39     1     0     0
SMALL
bcc


@<TRIPOS>ATOM
      1 C7          0.1050    0.1070    0.0910 ca        1 FTS      0.021000
      2 C8          1.4890    0.1070    0.0270 ca        1 FTS     -0.097300
      3 C1          2.2870   -0.0140    1.2970 c3        1 FTS      0.205100
      4 N1          3.6580   -0.4110    1.0630 n7        1 FTS     -0.822200
      5 C2          4.3070    0.3900    0.0340 c3        1 FTS      0.134500
      6 C10         5.8040    0.0100   -0.1230 c3        1 FTS      0.162900
      7 F4          6.5100    0.3040    1.0240 f         1 FTS     -0.230300
      8 C3          3.6150    0.2050   -1.3250 c3        1 FTS     -0.070100
      9 C9          2.1360    0.2330   -1.2220 ca        1 FTS      0.101700
     10 C4          1.3570    0.3680   -2.3850 ca        1 FTS     -0.162000
     11 C5         -0.0220    0.3710   -2.3130 ca        1 FTS      0.023000
     12 C6         -0.6970    0.2380   -1.0720 ca        1 FTS     -0.609500
     13 S1         -2.2590    0.2850   -0.9830 s4        1 FTS      1.665300
     14 O1         -2.9400    0.5900   -2.1230 o         1 FTS     -0.439400
     15 O2         -2.8150    0.3760    0.2560 o         1 FTS     -0.439400
     16 N2         -2.5670   -1.9450   -1.2180 n8        1 FTS     -1.004800
     17 C11        -3.0760   -2.5570    0.0040 c3        1 FTS      0.113800
     18 C12        -3.4540   -4.0260   -0.1230 c3        1 FTS     -0.162400
     19 C13        -3.8910   -4.5760    1.2640 c3        1 FTS      0.640900
     20 F1         -4.9700   -3.9230    1.8000 f         1 FTS     -0.222633
     21 F2         -4.2450   -5.8970    1.2220 f         1 FTS     -0.222633
     22 F3         -2.9100   -4.4910    2.2190 f         1 FTS     -0.222633
     23 H7         -0.3930    0.0140    1.0760 ha        1 FTS      0.170000
     24 H11         2.2010    0.9780    1.8390 h1        1 FTS      0.063700
     25 H12         1.8240   -0.8040    1.9580 h1        1 FTS      0.063700
     26 HN1         4.1910   -0.3940    1.9140 hn        1 FTS      0.406800
     27 H2          4.2700    1.4940    0.2940 h1        1 FTS      0.047700
     28 H101        6.2290    0.6040   -0.9780 h1        1 FTS      0.062200
     29 H102        5.9070   -1.0880   -0.3450 h1        1 FTS      0.062200
     30 H31         3.9690    1.0100   -2.0250 hc        1 FTS      0.094700
     31 H32         3.9150   -0.7860   -1.7700 hc        1 FTS      0.094700
     32 H4          1.8590    0.4760   -3.3630 ha        1 FTS      0.177000
     33 H5         -0.6190    0.4910   -3.2380 ha        1 FTS      0.171000
     34 HN2        -3.2350   -2.0590   -1.9690 hn        1 FTS      0.410300
     35 H111       -3.9840   -1.9720    0.3410 h1        1 FTS      0.101700
     36 H112       -2.2880   -2.4520    0.8070 h1        1 FTS      0.101700
     37 H121       -4.3110   -4.1680   -0.8310 hc        1 FTS      0.098700
     38 H122       -2.5900   -4.6460   -0.4750 hc        1 FTS      0.098700
     39 H22        -1.7040   -2.3870   -1.4970 hn        1 FTS      0.410300
@<TRIPOS>BOND
     1    1    2 ar  
     2    1   12 ar  
     3    1   23 1   
     4    2    3 1   
     5    2    9 ar  
     6    3    4 1   
     7    3   24 1   
     8    3   25 1   
     9    4    5 1   
    10    4   26 1   
    11    5    6 1   
    12    5    8 1   
    13    5   27 1   
    14    6    7 1   
    15    6   28 1   
    16    6   29 1   
    17    8    9 1   
    18    8   30 1   
    19    8   31 1   
    20    9   10 ar  
    21   10   11 ar  
    22   10   32 1   
    23   11   12 ar  
    24   11   33 1   
    25   12   13 1   
    26   13   14 1   
    27   13   15 1   
    28   16   17 1   
    29   16   34 1   
    30   16   39 1   
    31   17   18 1   
    32   17   35 1   
    33   17   36 1   
    34   18   19 1   
    35   18   37 1   
    36   18   38 1   
    37   19   20 1   
    38   19   21 1   
    39   19   22 1   
@<TRIPOS>SUBSTRUCTURE
     1 FTS         1 TEMP              0 ****  ****    0 ROOT
