@<TRIPOS>MOLECULE
FTS
   38    35     1     0     0
SMALL
bcc


@<TRIPOS>ATOM
      1 C7          0.3320    0.5600    1.1650 c1        1 FTS     -0.009000
      2 C8          1.7510    0.5800    1.1790 c1        1 FTS     -0.102000
      3 C1          2.6110    0.5570    2.5430 c2        1 FTS     -0.038000
      4 N1          3.9230    0.8580    2.4300 n3        1 FTS     -0.288000
      5 C2          4.6010    0.4050    1.2830 c3        1 FTS     -0.052000
      6 C10         4.7010   -1.2820    1.3790 c3        1 FTS     -0.031000
      7 F4          5.8550   -1.7070    0.7950 f         1 FTS     -0.169000
      8 C3          4.0260    0.7290    0.0250 c3        1 FTS     -0.133000
      9 C9          2.4630    0.7580   -0.0380 c2        1 FTS      0.011000
     10 C4          1.7640    0.9150   -1.2450 c1        1 FTS     -0.154000
     11 C5          0.3490    0.8950   -1.2540 c1        1 FTS     -0.017000
     12 C6         -0.3650    0.7170   -0.0480 c1        1 FTS     -0.836000
     13 S1         -2.1710    0.8640   -0.0390 s4        1 FTS      2.072800
     14 O1         -2.5870    2.1030   -0.5800 o         1 FTS     -0.540900
     15 O2         -2.6690    0.9580    1.2770 o         1 FTS     -0.540900
     16 N2         -2.8730   -0.4420   -0.8720 n2        1 FTS     -0.884000
     17 C11        -4.0660   -0.2410   -1.6090 c3        1 FTS     -0.003000
     18 C12        -5.0790   -1.2610   -1.2100 c3        1 FTS     -0.236000
     19 C13        -6.1460   -1.2850   -2.1860 c3        1 FTS      0.416000
     20 F1         -6.6910   -0.0240   -2.2920 f         1 FTS     -0.168667
     21 F2         -5.6780   -1.6540   -3.3410 f         1 FTS     -0.168667
     22 F3         -7.0850   -2.1450   -1.7930 f         1 FTS     -0.168667
     23 H7         -0.1810    0.4340    2.0270 ha        1 FTS      0.155000
     24 H11         2.1840    1.2190    3.1970 h4        1 FTS      0.086500
     25 H12         2.5380   -0.3920    2.9540 h4        1 FTS      0.086500
     26 HN1         4.3740    0.5600    3.1910 hn        1 FTS      0.169000
     27 H2          5.5740    0.7960    1.3040 h1        1 FTS      0.117000
     28 H101        4.6880   -1.5570    2.3210 h1        1 FTS      0.084000
     29 H102        3.9280   -1.6840    0.9090 h1        1 FTS      0.084000
     30 H31         4.3720    1.6760   -0.2450 hc        1 FTS      0.116000
     31 H32         4.3410    0.0330   -0.6350 hc        1 FTS      0.116000
     32 H4          2.2230    1.0290   -2.0300 ha        1 FTS      0.146000
     33 H5         -0.1630    1.0120   -2.1430 ha        1 FTS      0.154000
     34 HN2        -2.3900   -1.2230   -0.9880 hn        1 FTS      0.247000
     35 H111       -3.8670   -0.3300   -2.6130 h1        1 FTS      0.101000
     36 H112       -4.4310    0.6910   -1.4150 h1        1 FTS      0.101000
     37 H121       -4.6670   -2.1180   -1.1620 hc        1 FTS      0.139000
     38 H122       -5.4880   -1.0010   -0.2390 hc        1 FTS      0.139000
@<TRIPOS>BOND
     1    1    2 1   
     2    1   23 1   
     3    2    9 1   
     4    3    4 1   
     5    3   24 1   
     6    3   25 1   
     7    4    5 1   
     8    4   26 1   
     9    5    6 1   
    10    5    8 1   
    11    5   27 1   
    12    6    7 1   
    13    6   28 1   
    14    6   29 1   
    15    8    9 1   
    16    8   30 1   
    17    8   31 1   
    18    9   10 1   
    19   10   32 1   
    20   11   12 1   
    21   11   33 1   
    22   12   13 1   
    23   13   14 1   
    24   13   15 1   
    25   16   17 1   
    26   16   34 1   
    27   17   18 1   
    28   17   35 1   
    29   17   36 1   
    30   18   19 1   
    31   18   37 1   
    32   18   38 1   
    33   19   20 1   
    34   19   21 1   
    35   19   22 1   
@<TRIPOS>SUBSTRUCTURE
     1 FTS         1 TEMP              0 ****  ****    0 ROOT
