@<TRIPOS>MOLECULE
FTS
   38    39     1     0     0
SMALL
bcc


@<TRIPOS>ATOM
      1 C7         -0.6090   -0.5150    0.4960 ca        1 FTS     -0.014000
      2 C8         -1.9150   -0.0720    0.2870 ca        1 FTS     -0.102300
      3 C1         -2.4380    1.0620    1.1190 c3        1 FTS      0.209100
      4 N1         -3.6890    1.6230    0.6460 n3        1 FTS     -0.817200
      5 C2         -4.6490    0.6130    0.2220 c3        1 FTS      0.141500
      6 C10        -5.9810    1.2600   -0.2350 c3        1 FTS      0.157900
      7 F4         -6.6220    1.8890    0.8130 f         1 FTS     -0.245300
      8 C3         -4.1030   -0.2310   -0.9380 c3        1 FTS     -0.044100
      9 C9         -2.7180   -0.7030   -0.6770 ca        1 FTS      0.002700
     10 C4         -2.1970   -1.7770   -1.4090 ca        1 FTS     -0.157000
     11 C5         -0.8950   -2.2100   -1.1900 ca        1 FTS     -0.014000
     12 C6         -0.0800   -1.5820   -0.2380 ca        1 FTS     -0.389500
     13 S1          1.4860   -2.1300    0.0420 sy        1 FTS      1.516200
     14 O1          1.5830   -3.4840   -0.3450 o         1 FTS     -0.654300
     15 O2          1.8470   -1.8050    1.3660 o         1 FTS     -0.654300
     16 N2          2.3810   -1.2560   -0.9940 n3        1 FTS     -0.911100
     17 C11         2.7180    0.1200   -0.8090 c3        1 FTS      0.233800
     18 C12         3.9520    0.3460    0.0690 c3        1 FTS     -0.157400
     19 C13         4.2440    1.8610    0.1920 c3        1 FTS      0.629900
     20 F1          3.2190    2.5950    0.7370 f         1 FTS     -0.240300
     21 F2          5.3300    2.1430    0.9810 f         1 FTS     -0.240300
     22 F3          4.5150    2.4840   -1.0020 f         1 FTS     -0.240300
     23 H7          0.0150   -0.0270    1.2660 ha        1 FTS      0.154000
     24 H11        -2.5130    0.6890    2.1860 h1        1 FTS      0.049700
     25 H12        -1.6860    1.9050    1.1070 h1        1 FTS      0.049700
     26 HN1        -4.0990    2.2070    1.3520 hn        1 FTS      0.381800
     27 H2         -4.8990   -0.0930    1.0750 h1        1 FTS      0.036700
     28 H101       -6.6500    0.4480   -0.6330 h1        1 FTS      0.053200
     29 H102       -5.7910    2.0130   -1.0490 h1        1 FTS      0.053200
     30 H31        -4.7870   -1.1060   -1.0980 hc        1 FTS      0.067700
     31 H32        -4.1000    0.3800   -1.8820 hc        1 FTS      0.067700
     32 H4         -2.8260   -2.2810   -2.1590 ha        1 FTS      0.143000
     33 H5         -0.4980   -3.0700   -1.7570 ha        1 FTS      0.155000
     34 HN2         2.7790   -1.6690   -1.8040 hn        1 FTS      0.452800
     35 H111        2.9000    0.6080   -1.8100 h1        1 FTS      0.062200
     36 H112        1.8430    0.6500   -0.3260 h1        1 FTS      0.062200
     37 H121        3.7860   -0.0620    1.1010 hc        1 FTS      0.099700
     38 H122        4.8580   -0.1420   -0.3700 hc        1 FTS      0.099700
@<TRIPOS>BOND
     1    1    2 ar  
     2    1   12 ar  
     3    1   23 1   
     4    2    3 1   
     5    2    9 ar  
     6    3    4 1   
     7    3   24 1   
     8    3   25 1   
     9    4    5 1   
    10    4   26 1   
    11    5    6 1   
    12    5    8 1   
    13    5   27 1   
    14    6    7 1   
    15    6   28 1   
    16    6   29 1   
    17    8    9 1   
    18    8   30 1   
    19    8   31 1   
    20    9   10 ar  
    21   10   11 ar  
    22   10   32 1   
    23   11   12 ar  
    24   11   33 1   
    25   12   13 1   
    26   13   14 2   
    27   13   15 2   
    28   13   16 1   
    29   16   17 1   
    30   16   34 1   
    31   17   18 1   
    32   17   35 1   
    33   17   36 1   
    34   18   19 1   
    35   18   37 1   
    36   18   38 1   
    37   19   20 1   
    38   19   21 1   
    39   19   22 1   
@<TRIPOS>SUBSTRUCTURE
     1 FTS         1 TEMP              0 ****  ****    0 ROOT
