@<TRIPOS>MOLECULE
FTS
   39    39     1     0     0
SMALL
bcc


@<TRIPOS>ATOM
      1 C7          0.1020    0.1050    0.0980 ca        1 FTS      0.021000
      2 C8          1.4860    0.1080    0.0290 ca        1 FTS     -0.097300
      3 C1          2.2880   -0.0180    1.2960 c3        1 FTS      0.205100
      4 N1          3.6600   -0.4110    1.0540 n3        1 FTS     -0.822200
      5 C2          4.3040    0.3970    0.0270 c3        1 FTS      0.134500
      6 C10         5.8000    0.0200   -0.1370 c3        1 FTS      0.162900
      7 F4          6.5100    0.3090    1.0080 f         1 FTS     -0.230300
      8 C3          3.6080    0.2180   -1.3300 c3        1 FTS     -0.070100
      9 C9          2.1280    0.2430   -1.2210 ca        1 FTS      0.101700
     10 C4          1.3450    0.3830   -2.3810 ca        1 FTS     -0.162000
     11 C5         -0.0330    0.3830   -2.3050 ca        1 FTS      0.023000
     12 C6         -0.7040    0.2410   -1.0620 ca        1 FTS     -0.609500
     13 S1         -2.2650    0.2840   -0.9670 s4        1 FTS      1.665300
     14 O1         -2.9510    0.5940   -2.1020 o         1 FTS     -0.439400
     15 O2         -2.8180    0.3670    0.2750 o         1 FTS     -0.439400
     16 N2         -2.5700   -1.9460   -1.2140 n3        1 FTS     -1.004800
     17 C11        -3.0690   -2.5660    0.0090 c3        1 FTS      0.113800
     18 C12        -3.4460   -4.0350   -0.1260 c3        1 FTS     -0.162400
     19 C13        -3.8720   -4.5950    1.2610 c3        1 FTS      0.640900
     20 F1         -4.9470   -3.9470    1.8100 f         1 FTS     -0.222633
     21 F2         -4.2240   -5.9160    1.2120 f         1 FTS     -0.222633
     22 F3         -2.8830   -4.5160    2.2080 f         1 FTS     -0.222633
     23 H7         -0.3920    0.0050    1.0840 ha        1 FTS      0.170000
     24 H11         1.8290   -0.8130    1.9530 h1        1 FTS      0.063700
     25 H12         2.2030    0.9700    1.8430 h1        1 FTS      0.063700
     26 HN1         4.1960   -0.3980    1.9030 hn        1 FTS      0.406800
     27 H2          4.2660    1.4990    0.2940 h1        1 FTS      0.047700
     28 H101        6.2220    0.6200   -0.9900 h1        1 FTS      0.062200
     29 H102        5.9050   -1.0760   -0.3660 h1        1 FTS      0.062200
     30 H31         3.9070   -0.7700   -1.7820 hc        1 FTS      0.094700
     31 H32         3.9570    1.0270   -2.0270 hc        1 FTS      0.094700
     32 H4          1.8430    0.4980   -3.3600 ha        1 FTS      0.177000
     33 H5         -0.6340    0.5070   -3.2270 ha        1 FTS      0.171000
     34 HN2        -1.7090   -2.3840   -1.5010 hn        1 FTS      0.410300
     35 H111       -2.2760   -2.4660    0.8060 h1        1 FTS      0.101700
     36 H112       -3.9750   -1.9840    0.3560 h1        1 FTS      0.101700
     37 H121       -2.5850   -4.6520   -0.4900 hc        1 FTS      0.098700
     38 H122       -4.3090   -4.1730   -0.8280 hc        1 FTS      0.098700
     39 H22        -3.2430   -2.0560   -1.9610 hn        1 FTS      0.410300
@<TRIPOS>BOND
     1    1    2 ar  
     2    1   12 ar  
     3    1   23 1   
     4    2    3 1   
     5    2    9 ar  
     6    3    4 1   
     7    3   24 1   
     8    3   25 1   
     9    4    5 1   
    10    4   26 1   
    11    5    6 1   
    12    5    8 1   
    13    5   27 1   
    14    6    7 1   
    15    6   28 1   
    16    6   29 1   
    17    8    9 1   
    18    8   30 1   
    19    8   31 1   
    20    9   10 ar  
    21   10   11 ar  
    22   10   32 1   
    23   11   12 ar  
    24   11   33 1   
    25   12   13 1   
    26   13   14 1   
    27   13   15 1   
    28   16   17 1   
    29   16   34 1   
    30   16   39 1   
    31   17   18 1   
    32   17   35 1   
    33   17   36 1   
    34   18   19 1   
    35   18   37 1   
    36   18   38 1   
    37   19   20 1   
    38   19   21 1   
    39   19   22 1   
@<TRIPOS>SUBSTRUCTURE
     1 FTS         1 TEMP              0 ****  ****    0 ROOT
