@<TRIPOS>MOLECULE
FTS
   39    39     1     0     0
SMALL
bcc


@<TRIPOS>ATOM
      1 C7          0.1030    0.0980    0.1050 ca        1 FTS      0.021000
      2 C8          1.4860    0.1040    0.0360 ca        1 FTS     -0.097300
      3 C1          2.2900   -0.0280    1.3010 c3        1 FTS      0.205100
      4 N1          3.6620   -0.4160    1.0570 n3        1 FTS     -0.822200
      5 C2          4.3040    0.4000    0.0340 c3        1 FTS      0.134500
      6 C10         5.8010    0.0270   -0.1330 c3        1 FTS      0.162900
      7 F4          6.5100    0.3120    1.0140 f         1 FTS     -0.230300
      8 C3          3.6070    0.2270   -1.3230 c3        1 FTS     -0.070100
      9 C9          2.1280    0.2480   -1.2140 ca        1 FTS      0.101700
     10 C4          1.3440    0.3920   -2.3730 ca        1 FTS     -0.162000
     11 C5         -0.0340    0.3880   -2.2960 ca        1 FTS      0.023000
     12 C6         -0.7040    0.2390   -1.0540 ca        1 FTS     -0.609500
     13 S1         -2.2660    0.2780   -0.9580 s4        1 FTS      1.665300
     14 O1         -2.9530    0.5930   -2.0910 o         1 FTS     -0.439400
     15 O2         -2.8170    0.3530    0.2840 o         1 FTS     -0.439400
     16 N2         -2.5650   -1.9510   -1.2170 n3        1 FTS     -1.004800
     17 C11        -3.0710   -2.5780   -0.0010 c3        1 FTS      0.113800
     18 C12        -3.4420   -4.0470   -0.1440 c3        1 FTS     -0.162400
     19 C13        -3.8770   -4.6130    1.2370 c3        1 FTS      0.640900
     20 F1         -4.9600   -3.9720    1.7780 f         1 FTS     -0.222633
     21 F2         -4.2240   -5.9360    1.1820 f         1 FTS     -0.222633
     22 F3         -2.8970   -4.5340    2.1940 f         1 FTS     -0.222633
     23 H7         -0.3910   -0.0090    1.0900 ha        1 FTS      0.170000
     24 H11         2.2030    0.9580    1.8540 h1        1 FTS      0.063700
     25 H12         1.8330   -0.8270    1.9540 h1        1 FTS      0.063700
     26 HN1         4.1980   -0.4060    1.9060 hn        1 FTS      0.406800
     27 H2          4.2630    1.5000    0.3070 h1        1 FTS      0.047700
     28 H101        6.2210    0.6330   -0.9820 h1        1 FTS      0.062200
     29 H102        5.9080   -1.0670   -0.3670 h1        1 FTS      0.062200
     30 H31         3.9090   -0.7580   -1.7810 hc        1 FTS      0.094700
     31 H32         3.9550    1.0410   -2.0160 hc        1 FTS      0.094700
     32 H4          1.8410    0.5140   -3.3520 ha        1 FTS      0.177000
     33 H5         -0.6350    0.5160   -3.2170 ha        1 FTS      0.171000
     34 HN2        -1.7010   -2.3860   -1.5010 hn        1 FTS      0.410300
     35 H111       -2.2840   -2.4770    0.8030 h1        1 FTS      0.101700
     36 H112       -3.9830   -2.0010    0.3410 h1        1 FTS      0.101700
     37 H121       -4.2970   -4.1870   -0.8540 hc        1 FTS      0.098700
     38 H122       -2.5740   -4.6600   -0.5010 hc        1 FTS      0.098700
     39 H22        -3.2320   -2.0590   -1.9690 hn        1 FTS      0.410300
@<TRIPOS>BOND
     1    1    2 ar  
     2    1   12 ar  
     3    1   23 1   
     4    2    3 1   
     5    2    9 ar  
     6    3    4 1   
     7    3   24 1   
     8    3   25 1   
     9    4    5 1   
    10    4   26 1   
    11    5    6 1   
    12    5    8 1   
    13    5   27 1   
    14    6    7 1   
    15    6   28 1   
    16    6   29 1   
    17    8    9 1   
    18    8   30 1   
    19    8   31 1   
    20    9   10 ar  
    21   10   11 ar  
    22   10   32 1   
    23   11   12 ar  
    24   11   33 1   
    25   12   13 1   
    26   13   14 1   
    27   13   15 1   
    28   16   17 1   
    29   16   34 1   
    30   16   39 1   
    31   17   18 1   
    32   17   35 1   
    33   17   36 1   
    34   18   19 1   
    35   18   37 1   
    36   18   38 1   
    37   19   20 1   
    38   19   21 1   
    39   19   22 1   
@<TRIPOS>SUBSTRUCTURE
     1 FTS         1 TEMP              0 ****  ****    0 ROOT
