@<TRIPOS>MOLECULE
FTT
   44    43     1     0     0
SMALL
bcc


@<TRIPOS>ATOM
      1 C1         -0.0680   -0.0690    0.0200 c         1 FTT      0.908600
      2 C2          1.4660    0.0150    0.0600 c3        1 FTT     -0.233400
      3 C3          1.9970    0.0260    1.4850 c3        1 FTT      0.172100
      4 C4          3.5220   -0.0960    1.5010 c3        1 FTT     -0.079400
      5 C5          4.0470   -0.2870    2.9060 c3        1 FTT     -0.077400
      6 C6          5.5600   -0.3450    2.9290 c3        1 FTT     -0.077400
      7 C7          6.0820   -0.5460    4.3360 c3        1 FTT     -0.078400
      8 C8          7.5940   -0.6010    4.3610 c3        1 FTT     -0.078400
      9 C9          8.1160   -0.8000    5.7680 c3        1 FTT     -0.079400
     10 C10         9.6280   -0.8560    5.7930 c3        1 FTT     -0.078400
     11 C11        10.1490   -1.0540    7.2010 c3        1 FTT     -0.079400
     12 C12        11.6610   -1.1110    7.2250 c3        1 FTT     -0.079400
     13 C13        12.1830   -1.3080    8.6330 c3        1 FTT     -0.080400
     14 C14        13.6880   -1.3670    8.6620 c3        1 FTT     -0.092100
     15 O2         -0.7280    0.6240    0.8540 o         1 FTT     -0.849300
     16 O3          1.6700    1.2310    2.1640 oh        1 FTT     -0.658800
     17 O1         -0.6010   -0.8100   -0.8510 o         1 FTT     -0.849300
     18 H21         1.7730    0.9560   -0.4610 hc        1 FTT      0.033700
     19 H22         1.8950   -0.8540   -0.4970 hc        1 FTT      0.033700
     20 H3          1.5460   -0.8360    2.0560 h1        1 FTT      0.024700
     21 H41         3.8190   -0.9640    0.8590 hc        1 FTT      0.033700
     22 H42         3.9650    0.8320    1.0540 hc        1 FTT      0.033700
     23 H51         3.6850    0.5600    3.5460 hc        1 FTT      0.045200
     24 H52         3.6270   -1.2330    3.3390 hc        1 FTT      0.045200
     25 H61         5.9150   -1.1840    2.2740 hc        1 FTT      0.032200
     26 H62         5.9780    0.6050    2.5050 hc        1 FTT      0.032200
     27 H71         5.6640   -1.4970    4.7600 hc        1 FTT      0.038200
     28 H72         5.7240    0.2920    4.9910 hc        1 FTT      0.038200
     29 H81         8.0120    0.3500    3.9370 hc        1 FTT      0.036200
     30 H82         7.9510   -1.4390    3.7060 hc        1 FTT      0.036200
     31 H91         7.6970   -1.7500    6.1930 hc        1 FTT      0.038200
     32 H92         7.7590    0.0390    6.4230 hc        1 FTT      0.038200
     33 H101        9.9840   -1.6950    5.1390 hc        1 FTT      0.037700
     34 H102       10.0460    0.0940    5.3670 hc        1 FTT      0.037700
     35 H111        9.7930   -0.2130    7.8540 hc        1 FTT      0.038700
     36 H112        9.7290   -2.0030    7.6270 hc        1 FTT      0.038700
     37 H121       12.0160   -1.9520    6.5730 hc        1 FTT      0.038700
     38 H122       12.0810   -0.1630    6.7990 hc        1 FTT      0.038700
     39 H131       11.7600   -2.2560    9.0590 hc        1 FTT      0.037700
     40 H132       11.8260   -0.4670    9.2840 hc        1 FTT      0.037700
     41 H141       14.0620   -2.2150    8.0390 hc        1 FTT      0.030367
     42 H142       14.0510   -1.5120    9.7080 hc        1 FTT      0.030367
     43 H143       14.1280   -0.4200    8.2640 hc        1 FTT      0.030367
     44 HO3         0.7280    1.3990    1.9800 ho        1 FTT      0.455000
@<TRIPOS>BOND
     1    1    2 1   
     2    1   15 1   
     3    1   17 1   
     4    2    3 1   
     5    2   18 1   
     6    2   19 1   
     7    3    4 1   
     8    3   16 1   
     9    3   20 1   
    10    4    5 1   
    11    4   21 1   
    12    4   22 1   
    13    5    6 1   
    14    5   23 1   
    15    5   24 1   
    16    6    7 1   
    17    6   25 1   
    18    6   26 1   
    19    7    8 1   
    20    7   27 1   
    21    7   28 1   
    22    8    9 1   
    23    8   29 1   
    24    8   30 1   
    25    9   10 1   
    26    9   31 1   
    27    9   32 1   
    28   10   11 1   
    29   10   33 1   
    30   10   34 1   
    31   11   12 1   
    32   11   35 1   
    33   11   36 1   
    34   12   13 1   
    35   12   37 1   
    36   12   38 1   
    37   13   14 1   
    38   13   39 1   
    39   13   40 1   
    40   14   41 1   
    41   14   42 1   
    42   14   43 1   
    43   16   44 1   
@<TRIPOS>SUBSTRUCTURE
     1 FTT         1 TEMP              0 ****  ****    0 ROOT
