@<TRIPOS>MOLECULE
FTT
   44    43     1     0     0
SMALL
bcc


@<TRIPOS>ATOM
      1 C1         -0.0670   -0.0640    0.0200 c         1 FTT      0.908600
      2 C2          1.4680    0.0010    0.0560 c3        1 FTT     -0.233400
      3 C3          2.0010    0.0320    1.4800 c3        1 FTT      0.172100
      4 C4          3.5240   -0.1080    1.4960 c3        1 FTT     -0.079400
      5 C5          4.0490   -0.2800    2.9040 c3        1 FTT     -0.077400
      6 C6          5.5610   -0.3560    2.9270 c3        1 FTT     -0.077400
      7 C7          6.0820   -0.5390    4.3360 c3        1 FTT     -0.078400
      8 C8          7.5940   -0.6090    4.3610 c3        1 FTT     -0.078400
      9 C9          8.1140   -0.7920    5.7710 c3        1 FTT     -0.079400
     10 C10         9.6260   -0.8620    5.7950 c3        1 FTT     -0.078400
     11 C11        10.1460   -1.0460    7.2050 c3        1 FTT     -0.079400
     12 C12        11.6580   -1.1160    7.2300 c3        1 FTT     -0.079400
     13 C13        12.1790   -1.2990    8.6400 c3        1 FTT     -0.080400
     14 C14        13.6840   -1.3690    8.6690 c3        1 FTT     -0.092100
     15 O2         -0.7180    0.6530    0.8410 o         1 FTT     -0.849300
     16 O3          1.6900    1.2550    2.1350 oh        1 FTT     -0.658800
     17 O1         -0.6110   -0.8160   -0.8350 o         1 FTT     -0.849300
     18 H21         1.8840   -0.8850   -0.4840 hc        1 FTT      0.033700
     19 H22         1.7860    0.9270   -0.4830 hc        1 FTT      0.033700
     20 H3          1.5400   -0.8130    2.0680 h1        1 FTT      0.024700
     21 H41         3.9780    0.8050    1.0320 hc        1 FTT      0.033700
     22 H42         3.8090   -0.9930    0.8700 hc        1 FTT      0.033700
     23 H51         3.6980    0.5830    3.5290 hc        1 FTT      0.045200
     24 H52         3.6190   -1.2130    3.3550 hc        1 FTT      0.045200
     25 H61         5.9050   -1.2090    2.2850 hc        1 FTT      0.032200
     26 H62         5.9900    0.5820    2.4860 hc        1 FTT      0.032200
     27 H71         5.7340    0.3140    4.9770 hc        1 FTT      0.038200
     28 H72         5.6550   -1.4780    4.7760 hc        1 FTT      0.038200
     29 H81         8.0210    0.3310    3.9220 hc        1 FTT      0.036200
     30 H82         7.9410   -1.4600    3.7180 hc        1 FTT      0.036200
     31 H91         7.7670    0.0590    6.4130 hc        1 FTT      0.038200
     32 H92         7.6870   -1.7320    6.2090 hc        1 FTT      0.038200
     33 H101        9.9730   -1.7140    5.1530 hc        1 FTT      0.037700
     34 H102       10.0530    0.0780    5.3570 hc        1 FTT      0.037700
     35 H111        9.7190   -1.9860    7.6440 hc        1 FTT      0.038700
     36 H112        9.7980   -0.1940    7.8480 hc        1 FTT      0.038700
     37 H121       12.0050   -1.9670    6.5880 hc        1 FTT      0.038700
     38 H122       12.0850   -0.1760    6.7920 hc        1 FTT      0.038700
     39 H131       11.8280   -0.4480    9.2810 hc        1 FTT      0.037700
     40 H132       11.7490   -2.2390    9.0770 hc        1 FTT      0.037700
     41 H141       14.0460   -1.5050    9.7170 hc        1 FTT      0.030367
     42 H142       14.1300   -0.4310    8.2600 hc        1 FTT      0.030367
     43 H143       14.0500   -2.2270    8.0550 hc        1 FTT      0.030367
     44 HO3         0.7500    1.4310    1.9500 ho        1 FTT      0.455000
@<TRIPOS>BOND
     1    1    2 1   
     2    1   15 1   
     3    1   17 1   
     4    2    3 1   
     5    2   18 1   
     6    2   19 1   
     7    3    4 1   
     8    3   16 1   
     9    3   20 1   
    10    4    5 1   
    11    4   21 1   
    12    4   22 1   
    13    5    6 1   
    14    5   23 1   
    15    5   24 1   
    16    6    7 1   
    17    6   25 1   
    18    6   26 1   
    19    7    8 1   
    20    7   27 1   
    21    7   28 1   
    22    8    9 1   
    23    8   29 1   
    24    8   30 1   
    25    9   10 1   
    26    9   31 1   
    27    9   32 1   
    28   10   11 1   
    29   10   33 1   
    30   10   34 1   
    31   11   12 1   
    32   11   35 1   
    33   11   36 1   
    34   12   13 1   
    35   12   37 1   
    36   12   38 1   
    37   13   14 1   
    38   13   39 1   
    39   13   40 1   
    40   14   41 1   
    41   14   42 1   
    42   14   43 1   
    43   16   44 1   
@<TRIPOS>SUBSTRUCTURE
     1 FTT         1 TEMP              0 ****  ****    0 ROOT
