@<TRIPOS>MOLECULE
FTT
   44    43     1     0     0
SMALL
bcc


@<TRIPOS>ATOM
      1 C1          6.6970   -0.0960   -0.2240 c         1 FTT      0.908600
      2 C2          5.3970   -0.8400    0.1210 c3        1 FTT     -0.233400
      3 C3          4.1870    0.0790    0.0720 c3        1 FTT      0.172100
      4 C4          2.8890   -0.7180    0.2170 c3        1 FTT     -0.079400
      5 C5          1.6760    0.1510   -0.0300 c3        1 FTT     -0.077400
      6 C6          0.3900   -0.6210    0.1750 c3        1 FTT     -0.077400
      7 C7         -0.8220    0.2480   -0.0830 c3        1 FTT     -0.078400
      8 C8         -2.1090   -0.5210    0.1270 c3        1 FTT     -0.078400
      9 C9         -3.3200    0.3490   -0.1310 c3        1 FTT     -0.079400
     10 C10        -4.6060   -0.4200    0.0790 c3        1 FTT     -0.078400
     11 C11        -5.8170    0.4500   -0.1800 c3        1 FTT     -0.079400
     12 C12        -7.1040   -0.3190    0.0310 c3        1 FTT     -0.079400
     13 C13        -8.3160    0.5510   -0.2280 c3        1 FTT     -0.080400
     14 C14        -9.5990   -0.2110   -0.0200 c3        1 FTT     -0.092100
     15 O2          6.8650    1.0690    0.2510 o         1 FTT     -0.849300
     16 O3          4.2050    1.0370    1.1230 oh        1 FTT     -0.658800
     17 O1          7.5440   -0.6850   -0.9500 o         1 FTT     -0.849300
     18 H21         5.2580   -1.6860   -0.5960 hc        1 FTT      0.033700
     19 H22         5.5040   -1.2620    1.1510 hc        1 FTT      0.033700
     20 H3          4.1790    0.6320   -0.9110 h1        1 FTT      0.024700
     21 H41         2.9060   -1.5680   -0.5130 hc        1 FTT      0.033700
     22 H42         2.8410   -1.1490    1.2500 hc        1 FTT      0.033700
     23 H51         1.7120    1.0300    0.6670 hc        1 FTT      0.045200
     24 H52         1.7090    0.5550   -1.0760 hc        1 FTT      0.045200
     25 H61         0.3690   -1.5080   -0.5110 hc        1 FTT      0.032200
     26 H62         0.3530   -1.0150    1.2250 hc        1 FTT      0.032200
     27 H71        -0.7980    1.1370    0.6020 hc        1 FTT      0.038200
     28 H72        -0.7860    0.6400   -1.1330 hc        1 FTT      0.038200
     29 H81        -2.1310   -1.4100   -0.5570 hc        1 FTT      0.036200
     30 H82        -2.1450   -0.9130    1.1780 hc        1 FTT      0.036200
     31 H91        -3.2970    1.2380    0.5530 hc        1 FTT      0.038200
     32 H92        -3.2840    0.7400   -1.1820 hc        1 FTT      0.038200
     33 H101       -4.6290   -1.3090   -0.6050 hc        1 FTT      0.037700
     34 H102       -4.6420   -0.8120    1.1300 hc        1 FTT      0.037700
     35 H111       -5.7940    1.3390    0.5040 hc        1 FTT      0.038700
     36 H112       -5.7810    0.8420   -1.2310 hc        1 FTT      0.038700
     37 H121       -7.1270   -1.2080   -0.6530 hc        1 FTT      0.038700
     38 H122       -7.1400   -0.7110    1.0820 hc        1 FTT      0.038700
     39 H131       -8.2900    1.4400    0.4560 hc        1 FTT      0.037700
     40 H132       -8.2760    0.9420   -1.2790 hc        1 FTT      0.037700
     41 H141       -9.6540   -1.0870   -0.7100 hc        1 FTT      0.030367
     42 H142       -9.6670   -0.5890    1.0290 hc        1 FTT      0.030367
     43 H143      -10.4790    0.4480   -0.2150 hc        1 FTT      0.030367
     44 HO3         5.1090    1.4010    1.1430 ho        1 FTT      0.455000
@<TRIPOS>BOND
     1    1    2 1   
     2    1   15 1   
     3    1   17 1   
     4    2    3 1   
     5    2   18 1   
     6    2   19 1   
     7    3    4 1   
     8    3   16 1   
     9    3   20 1   
    10    4    5 1   
    11    4   21 1   
    12    4   22 1   
    13    5    6 1   
    14    5   23 1   
    15    5   24 1   
    16    6    7 1   
    17    6   25 1   
    18    6   26 1   
    19    7    8 1   
    20    7   27 1   
    21    7   28 1   
    22    8    9 1   
    23    8   29 1   
    24    8   30 1   
    25    9   10 1   
    26    9   31 1   
    27    9   32 1   
    28   10   11 1   
    29   10   33 1   
    30   10   34 1   
    31   11   12 1   
    32   11   35 1   
    33   11   36 1   
    34   12   13 1   
    35   12   37 1   
    36   12   38 1   
    37   13   14 1   
    38   13   39 1   
    39   13   40 1   
    40   14   41 1   
    41   14   42 1   
    42   14   43 1   
    43   16   44 1   
@<TRIPOS>SUBSTRUCTURE
     1 FTT         1 TEMP              0 ****  ****    0 ROOT
