@<TRIPOS>MOLECULE
FTT
   44    42     1     0     0
SMALL
bcc


@<TRIPOS>ATOM
      1 C1         -7.1860    0.2210   -3.6250 c1        1 FTT      0.328000
      2 C2         -5.7580    0.7110   -3.5310 c2        1 FTT     -0.262000
      3 C3         -5.1300    0.1930   -2.2560 c3        1 FTT      0.061000
      4 C4         -3.7870    0.8570   -2.0500 c3        1 FTT     -0.158000
      5 C5         -2.8600   -0.0960   -1.3280 c3        1 FTT     -0.156000
      6 C6         -1.6140    0.6450   -0.8950 c3        1 FTT     -0.156000
      7 C7         -0.6210   -0.3360   -0.3110 c3        1 FTT     -0.157000
      8 C8          0.5240    0.4220    0.3230 c3        1 FTT     -0.157000
      9 C9          1.6510   -0.5370    0.6370 c3        1 FTT     -0.158000
     10 C10         2.6880    0.1650    1.4860 c3        1 FTT     -0.157000
     11 C11         3.9170   -0.7090    1.6050 c3        1 FTT     -0.158000
     12 C12         4.8700   -0.1050    2.6140 c3        1 FTT     -0.158000
     13 C13         6.1750   -0.8700    2.5950 c3        1 FTT     -0.159000
     14 C14         7.0750   -0.3570    3.6980 c3        1 FTT     -0.210000
     15 O2         -7.4240   -0.9580   -3.9980 o         1 FTT     -0.584000
     16 O3         -5.9710    0.4880   -1.1660 oh        1 FTT     -0.386000
     17 O1         -8.1370    0.9920   -3.3300 o         1 FTT     -0.584000
     18 H21        -5.2500    0.3850   -4.3000 ha        1 FTT      0.073000
     19 H22        -5.7480    1.6890   -3.5250 ha        1 FTT      0.073000
     20 H3         -5.0090   -0.7740   -2.3220 h1        1 FTT      0.064000
     21 H41        -3.4030    1.0900   -2.9190 hc        1 FTT      0.073000
     22 H42        -3.9030    1.6680   -1.5160 hc        1 FTT      0.073000
     23 H51        -2.6120   -0.8280   -1.9270 hc        1 FTT      0.084500
     24 H52        -3.3140   -0.4580   -0.5410 hc        1 FTT      0.084500
     25 H61        -1.8490    1.3120   -0.2190 hc        1 FTT      0.071500
     26 H62        -1.2150    1.0920   -1.6680 hc        1 FTT      0.071500
     27 H71        -1.0650   -0.8840    0.3670 hc        1 FTT      0.077500
     28 H72        -0.2770   -0.9130   -1.0220 hc        1 FTT      0.077500
     29 H81         0.8440    1.1080   -0.2970 hc        1 FTT      0.075500
     30 H82         0.2170    0.8470    1.1490 hc        1 FTT      0.075500
     31 H91         1.2970   -1.3070    1.1250 hc        1 FTT      0.077500
     32 H92         2.0630   -0.8410   -0.1960 hc        1 FTT      0.077500
     33 H101        2.9320    1.0140    1.0680 hc        1 FTT      0.077000
     34 H102        2.3210    0.3330    2.3770 hc        1 FTT      0.077000
     35 H111        4.3600   -0.7700    0.7350 hc        1 FTT      0.078000
     36 H112        3.6540   -1.6040    1.9010 hc        1 FTT      0.078000
     37 H121        5.0370    0.8310    2.3850 hc        1 FTT      0.078000
     38 H122        4.4740   -0.1570    3.5070 hc        1 FTT      0.078000
     39 H131        5.9980   -1.8210    2.7350 hc        1 FTT      0.077000
     40 H132        6.6150   -0.7430    1.7310 hc        1 FTT      0.077000
     41 H141        6.6300   -0.4740    4.5640 hc        1 FTT      0.069667
     42 H142        7.2620    0.5940    3.5530 hc        1 FTT      0.069667
     43 H143        7.9160   -0.8600    3.6940 hc        1 FTT      0.069667
     44 HO3        -6.3870   -0.2530   -0.9050 ho        1 FTT      0.254000
@<TRIPOS>BOND
     1    1   15 1   
     2    1   17 1   
     3    2    3 1   
     4    2   18 1   
     5    2   19 1   
     6    3    4 1   
     7    3   16 1   
     8    3   20 1   
     9    4    5 1   
    10    4   21 1   
    11    4   22 1   
    12    5    6 1   
    13    5   23 1   
    14    5   24 1   
    15    6    7 1   
    16    6   25 1   
    17    6   26 1   
    18    7    8 1   
    19    7   27 1   
    20    7   28 1   
    21    8    9 1   
    22    8   29 1   
    23    8   30 1   
    24    9   10 1   
    25    9   31 1   
    26    9   32 1   
    27   10   11 1   
    28   10   33 1   
    29   10   34 1   
    30   11   12 1   
    31   11   35 1   
    32   11   36 1   
    33   12   13 1   
    34   12   37 1   
    35   12   38 1   
    36   13   14 1   
    37   13   39 1   
    38   13   40 1   
    39   14   41 1   
    40   14   42 1   
    41   14   43 1   
    42   16   44 1   
@<TRIPOS>SUBSTRUCTURE
     1 FTT         1 TEMP              0 ****  ****    0 ROOT
