@<TRIPOS>MOLECULE
FTY
   28    27     1     0     0
SMALL
bcc


@<TRIPOS>ATOM
      1 N           1.5930    0.5580    3.9520 n3        1 FTY     -0.337000
      2 CA          0.1630    0.3980    4.1440 c3        1 FTY     -0.099000
      3 C          -0.1850   -0.0800    5.5880 c2        1 FTY      0.331000
      4 O           0.5250   -0.9840    6.1230 o         1 FTY     -0.602000
      5 OXT        -1.1740    0.4550    6.1680 o         1 FTY     -0.602000
      6 CB         -0.5240   -0.5720    3.1620 c3        1 FTY     -0.129000
      7 CG         -0.2860   -0.2740    1.7230 ca        1 FTY     -0.132000
      8 CD1         0.7650   -0.8850    1.0260 ca        1 FTY     -0.138500
      9 CD2        -1.1300    0.5900    1.0140 ca        1 FTY     -0.138500
     10 CE1         0.9770   -0.6300   -0.3250 ca        1 FTY     -0.156000
     11 CE2        -0.9230    0.8470   -0.3380 ca        1 FTY     -0.156000
     12 CZ          0.1440    0.2540   -1.0340 ca        1 FTY      0.008000
     13 C1          0.3290    0.4760   -2.5000 c2        1 FTY     -0.258000
     14 F1         -0.0690    1.7230   -2.9270 f         1 FTY     -0.216000
     15 F2          1.6430    0.4200   -2.9070 f         1 FTY     -0.216000
     16 P          -0.3920   -0.5020   -4.3250 p3        1 FTY      2.529000
     17 O1P         0.2740    0.3580   -5.3460 o         1 FTY     -1.208333
     18 O2P         0.1530   -1.8820   -4.1650 o         1 FTY     -1.208333
     19 O3P        -1.8700   -0.3470   -4.1900 o         1 FTY     -1.208333
     20 H           1.8160    0.4310    2.9810 hn        1 FTY      0.129000
     21 H2          2.0710   -0.1550    4.4760 hn        1 FTY      0.129000
     22 HA         -0.2960    1.4180    3.9960 h1        1 FTY      0.084000
     23 HB2        -0.1750   -1.6140    3.3930 hc        1 FTY      0.074000
     24 HB3        -1.6250   -0.5320    3.3780 hc        1 FTY      0.074000
     25 HD1         1.4290   -1.5820    1.5580 ha        1 FTY      0.094000
     26 HD2        -1.9680    1.0710    1.5400 ha        1 FTY      0.094000
     27 HE1         1.7960   -1.1240   -0.8670 ha        1 FTY      0.129500
     28 HE2        -1.5990    1.5170   -0.8890 ha        1 FTY      0.129500
@<TRIPOS>BOND
     1    1    2 1   
     2    1   20 1   
     3    1   21 1   
     4    2    3 1   
     5    2    6 1   
     6    2   22 1   
     7    3    4 1   
     8    3    5 1   
     9    6    7 1   
    10    6   23 1   
    11    6   24 1   
    12    7    8 1   
    13    7    9 1   
    14    8   10 1   
    15    8   25 1   
    16    9   11 1   
    17    9   26 1   
    18   10   12 1   
    19   10   27 1   
    20   11   12 1   
    21   11   28 1   
    22   12   13 1   
    23   13   14 1   
    24   13   15 1   
    25   16   17 1   
    26   16   18 1   
    27   16   19 1   
@<TRIPOS>SUBSTRUCTURE
     1 FTY         1 TEMP              0 ****  ****    0 ROOT
