@<TRIPOS>MOLECULE
FU0
   19    19     1     0     0
SMALL
bcc


@<TRIPOS>ATOM
      1 C          -0.0540    0.1510   -0.0430 c         1 FU0      0.764200
      2 C1         -2.7060   -0.2160    2.3790 c3        1 FU0     -0.115700
      3 OXT         1.2660    0.2120    0.2370 oh        1 FU0     -0.554100
      4 C2         -4.1750   -0.2270    2.3780 cc        1 FU0      0.234000
      5 O2         -0.7310    0.0200    1.1190 os        1 FU0     -0.392900
      6 C3         -5.1230   -1.2000    2.6360 cd        1 FU0     -0.244300
      7 C4         -6.4170   -0.5690    2.4980 cd        1 FU0     -0.264300
      8 C5         -6.1810    0.7490    2.1650 cc        1 FU0      0.244600
      9 C1'        -2.1690   -0.0490    0.9660 c3        1 FU0      0.144400
     10 O41        -4.8100    0.9900    2.0850 os        1 FU0     -0.364800
     11 O1         -0.5320    0.2070   -1.1740 o         1 FU0     -0.586000
     12 H5         -6.8000    1.6160    1.9550 h4        1 FU0      0.055100
     13 H1'        -2.5300    0.9010    0.4930 h1        1 FU0      0.068700
     14 H1'A       -2.4220   -0.9200    0.3100 h1        1 FU0      0.068700
     15 H1         -2.3290    0.6270    3.0200 hc        1 FU0      0.079700
     16 H1A        -2.3280   -1.1770    2.8190 hc        1 FU0      0.079700
     17 H3         -4.9480   -2.2400    2.8940 ha        1 FU0      0.163000
     18 H4         -7.3770   -1.0580    2.6360 ha        1 FU0      0.163000
     19 HXT         1.7390    0.3080   -0.6090 ho        1 FU0      0.458000
@<TRIPOS>BOND
     1    1    3 1   
     2    1    5 1   
     3    1   11 2   
     4    2    4 1   
     5    2    9 1   
     6    2   15 1   
     7    2   16 1   
     8    3   19 1   
     9    4    6 2   
    10    4   10 1   
    11    5    9 1   
    12    6    7 1   
    13    6   17 1   
    14    7    8 2   
    15    7   18 1   
    16    8   10 1   
    17    8   12 1   
    18    9   13 1   
    19    9   14 1   
@<TRIPOS>SUBSTRUCTURE
     1 FU0         1 TEMP              0 ****  ****    0 ROOT
