@<TRIPOS>MOLECULE
FU0
   18    18     1     0     0
SMALL
bcc


@<TRIPOS>ATOM
      1 C          -0.0920   -0.1790    0.4030 c         1 FU0      0.497100
      2 C1         -2.7570    0.5010    1.8440 c3        1 FU0     -0.171700
      3 OXT         1.1460   -0.0200    0.4180 o         1 FU0     -0.555500
      4 C2         -4.1970    0.2450    1.9780 cc        1 FU0      0.304000
      5 O2         -0.5750   -0.5220    1.6940 os        1 FU0     -0.522900
      6 C3         -5.1160   -0.4840    1.2430 cd        1 FU0     -0.291300
      7 C4         -6.3960   -0.3260    1.8940 cd        1 FU0     -0.262300
      8 C5         -6.1870    0.4890    2.9870 cc        1 FU0      0.195600
      9 C1'        -1.9480   -0.7960    1.8130 c3        1 FU0      0.182400
     10 O41        -4.8430    0.8550    3.0640 os        1 FU0     -0.375800
     11 O1         -0.9570   -0.0900   -0.5010 o         1 FU0     -0.555500
     12 H5         -6.8090    0.8970    3.7750 h4        1 FU0      0.033100
     13 H1'        -2.3060   -1.4380    0.9640 h1        1 FU0      0.024200
     14 H1'A       -2.0570   -1.3480    2.7850 h1        1 FU0      0.024200
     15 H1         -2.5620    1.0400    0.8730 hc        1 FU0      0.083200
     16 H1A        -2.3950    1.1510    2.6820 hc        1 FU0      0.083200
     17 H3         -4.9170   -1.0620    0.3450 ha        1 FU0      0.166000
     18 H4         -7.3310   -0.7720    1.5690 ha        1 FU0      0.142000
@<TRIPOS>BOND
     1    1    3 1   
     2    1    5 1   
     3    1   11 1   
     4    2    4 1   
     5    2    9 1   
     6    2   15 1   
     7    2   16 1   
     8    4    6 2   
     9    4   10 1   
    10    5    9 1   
    11    6    7 1   
    12    6   17 1   
    13    7    8 2   
    14    7   18 1   
    15    8   10 1   
    16    8   12 1   
    17    9   13 1   
    18    9   14 1   
@<TRIPOS>SUBSTRUCTURE
     1 FU0         1 TEMP              0 ****  ****    0 ROOT
