@<TRIPOS>MOLECULE
FU1
   13    13     1     0     0
SMALL
bcc


@<TRIPOS>ATOM
      1 O1          0.0170   -0.1690   -0.0600 os        1 FU1     -0.427600
      2 C2          1.8990   -0.2070    1.4400 c3        1 FU1     -0.106400
      3 C3          0.6800   -0.7360    2.1830 c3        1 FU1     -0.106400
      4 C4          1.4130    0.1320    0.0350 c3        1 FU1      0.127400
      5 C5         -0.4700   -0.6860    1.1820 c3        1 FU1      0.127400
      6 H2          2.3130    0.7010    1.9440 hc        1 FU1      0.051700
      7 H2A         2.7110   -0.9730    1.4030 hc        1 FU1      0.051700
      8 H3          0.8490   -1.7820    2.5380 hc        1 FU1      0.051700
      9 H3A         0.4520   -0.1080    3.0790 hc        1 FU1      0.051700
     10 H4          1.5260    1.2210   -0.2020 h1        1 FU1      0.044700
     11 H4A         1.9290   -0.4780   -0.7500 h1        1 FU1      0.044700
     12 H5         -1.2930   -0.0040    1.5170 h1        1 FU1      0.044700
     13 H5A        -0.8890   -1.7020    0.9680 h1        1 FU1      0.044700
@<TRIPOS>BOND
     1    1    4 1   
     2    1    5 1   
     3    2    3 1   
     4    2    4 1   
     5    2    6 1   
     6    2    7 1   
     7    3    5 1   
     8    3    8 1   
     9    3    9 1   
    10    4   10 1   
    11    4   11 1   
    12    5   12 1   
    13    5   13 1   
@<TRIPOS>SUBSTRUCTURE
     1 FU1         1 TEMP              0 ****  ****    0 ROOT
