@<TRIPOS>MOLECULE
FU1
   13    13     1     0     0
SMALL
bcc


@<TRIPOS>ATOM
      1 O1          0.0210   -0.1610   -0.0610 os        1 FU1     -0.427600
      2 C2          1.9010   -0.2220    1.4390 c3        1 FU1     -0.106400
      3 C3          0.6740   -0.7300    2.1840 c3        1 FU1     -0.106400
      4 C4          1.4200    0.1190    0.0330 c3        1 FU1      0.127400
      5 C5         -0.4750   -0.6650    1.1830 c3        1 FU1      0.127400
      6 H2          2.3290    0.6810    1.9400 hc        1 FU1      0.051700
      7 H2A         2.7010   -1.0010    1.4050 hc        1 FU1      0.051700
      8 H3          0.8270   -1.7780    2.5420 hc        1 FU1      0.051700
      9 H3A         0.4550   -0.0960    3.0780 hc        1 FU1      0.051700
     10 H4          1.9280   -0.5000   -0.7500 h1        1 FU1      0.044700
     11 H4A         1.5500    1.2060   -0.2070 h1        1 FU1      0.044700
     12 H5         -0.9110   -1.6760    0.9720 h1        1 FU1      0.044700
     13 H5A        -1.2870    0.0310    1.5150 h1        1 FU1      0.044700
@<TRIPOS>BOND
     1    1    4 1   
     2    1    5 1   
     3    2    3 1   
     4    2    4 1   
     5    2    6 1   
     6    2    7 1   
     7    3    5 1   
     8    3    8 1   
     9    3    9 1   
    10    4   10 1   
    11    4   11 1   
    12    5   12 1   
    13    5   13 1   
@<TRIPOS>SUBSTRUCTURE
     1 FU1         1 TEMP              0 ****  ****    0 ROOT
