@<TRIPOS>MOLECULE
FU1
   13    13     1     0     0
SMALL
bcc


@<TRIPOS>ATOM
      1 O1         -1.2150    0.0120   -0.1020 os        1 FU1     -0.427600
      2 C2          1.0750    0.7390    0.0150 c3        1 FU1     -0.106400
      3 C3          1.0530   -0.7840    0.0070 c3        1 FU1     -0.106400
      4 C4         -0.3840    1.1750   -0.0540 c3        1 FU1      0.127400
      5 C5         -0.4190   -1.1760   -0.0680 c3        1 FU1      0.127400
      6 H2          1.5610    1.1280    0.9440 hc        1 FU1      0.051700
      7 H2A         1.6490    1.1360   -0.8580 hc        1 FU1      0.051700
      8 H3          1.6150   -1.1890   -0.8700 hc        1 FU1      0.051700
      9 H3A         1.5250   -1.1970    0.9310 hc        1 FU1      0.051700
     10 H4         -0.6050    1.7690   -0.9780 h1        1 FU1      0.044700
     11 H4A        -0.6950    1.7590    0.8500 h1        1 FU1      0.044700
     12 H5         -0.7470   -1.7610    0.8290 h1        1 FU1      0.044700
     13 H5A        -0.6570   -1.7520   -0.9990 h1        1 FU1      0.044700
@<TRIPOS>BOND
     1    1    4 1   
     2    1    5 1   
     3    2    3 1   
     4    2    4 1   
     5    2    6 1   
     6    2    7 1   
     7    3    5 1   
     8    3    8 1   
     9    3    9 1   
    10    4   10 1   
    11    4   11 1   
    12    5   12 1   
    13    5   13 1   
@<TRIPOS>SUBSTRUCTURE
     1 FU1         1 TEMP              0 ****  ****    0 ROOT
