@<TRIPOS>MOLECULE
FU1
   13    13     1     0     0
SMALL
bcc


@<TRIPOS>ATOM
      1 O1         -0.8780   -0.3600   -1.2230 os        1 FU1     -0.427600
      2 C2          0.8740   -0.3600    0.3260 c3        1 FU1     -0.106400
      3 C3          0.0390    0.3920    0.9440 c3        1 FU1     -0.106400
      4 C4          0.4190   -0.3600   -1.2230 c3        1 FU1      0.127400
      5 C5         -1.2730    0.3150    0.1010 c3        1 FU1      0.127400
      6 H2          1.7770    0.0010    0.4100 hc        1 FU1      0.051700
      7 H2A         0.8400   -1.2660    0.6860 hc        1 FU1      0.051700
      8 H3          0.3690    1.3100    0.9760 hc        1 FU1      0.051700
      9 H3A        -0.1170    0.0550    1.8460 hc        1 FU1      0.051700
     10 H4          0.7550    0.4400   -1.6710 h1        1 FU1      0.044700
     11 H4A         0.7550   -1.1600   -1.6710 h1        1 FU1      0.044700
     12 H5         -1.9420   -0.2210    0.5670 h1        1 FU1      0.044700
     13 H5A        -1.6180    1.2130   -0.0680 h1        1 FU1      0.044700
@<TRIPOS>BOND
     1    1    4 1   
     2    1    5 1   
     3    2    3 1   
     4    2    4 1   
     5    2    6 1   
     6    2    7 1   
     7    3    5 1   
     8    3    8 1   
     9    3    9 1   
    10    4   10 1   
    11    4   11 1   
    12    5   12 1   
    13    5   13 1   
@<TRIPOS>SUBSTRUCTURE
     1 FU1         1 TEMP              0 ****  ****    0 ROOT
