@<TRIPOS>MOLECULE
FU2
   11     7     1     0     0
SMALL
bcc


@<TRIPOS>ATOM
      1 C1         -2.1090   -0.0770    0.0740 c1        1 FU2      0.249000
      2 C2         -0.5990   -0.0150    0.1420 c1        1 FU2     -0.105000
      3 O3          0.1550    0.0130    1.2860 os        1 FU2     -0.063000
      4 C4          1.4760    0.0550    0.9230 c1        1 FU2     -0.105000
      5 C5          1.5400    0.0540   -0.4550 c1        1 FU2     -0.173500
      6 C6          0.2620    0.0110   -0.9370 c1        1 FU2     -0.173500
      7 OXT        -2.7640   -0.1060    1.0990 o         1 FU2     -0.262000
      8 H1         -2.5580   -0.0980   -0.7950 ha        1 FU2      0.104000
      9 H4          2.2380    0.0820    1.5330 DU        1 FU2      0.176333
     10 H5          2.3550    0.0800   -0.9920 DU        1 FU2      0.176333
     11 H6          0.0030    0.0000   -1.8780 DU        1 FU2      0.176333
@<TRIPOS>BOND
     1    1    7 1   
     2    1    8 1   
     3    2    3 1   
     4    2    6 1   
     5    3    4 1   
     6    4    5 1   
     7    5    6 1   
@<TRIPOS>SUBSTRUCTURE
     1 FU2         1 TEMP              0 ****  ****    0 ROOT
