@<TRIPOS>MOLECULE
FU2
   11    11     1     0     0
SMALL
bcc


@<TRIPOS>ATOM
      1 C1         -0.7640   -2.8770    0.4150 c         1 FU2      0.495400
      2 C2         -0.2320   -2.0530   -0.6610 cc        1 FU2      0.128200
      3 O3          0.0210   -2.7140   -1.8770 os        1 FU2     -0.354800
      4 C4          0.5150   -1.7540   -2.7490 cc        1 FU2      0.275600
      5 C5          0.5820   -0.5200   -2.1260 cd        1 FU2     -0.284300
      6 C6          0.0990   -0.7130   -0.7790 cd        1 FU2     -0.166300
      7 OXT        -1.0290   -2.4220    1.5300 o         1 FU2     -0.518100
      8 H1         -0.9140   -3.9480    0.1570 h4        1 FU2      0.020200
      9 H4          0.7580   -2.1280   -3.7400 h4        1 FU2      0.058100
     10 H5          0.9260    0.4190   -2.5500 ha        1 FU2      0.168000
     11 H6          0.0150    0.0510   -0.0090 ha        1 FU2      0.176000
@<TRIPOS>BOND
     1    1    2 1   
     2    1    7 2   
     3    1    8 1   
     4    2    3 1   
     5    2    6 2   
     6    3    4 1   
     7    4    5 2   
     8    4    9 1   
     9    5    6 1   
    10    5   10 1   
    11    6   11 1   
@<TRIPOS>SUBSTRUCTURE
     1 FU2         1 TEMP              0 ****  ****    0 ROOT
