@<TRIPOS>MOLECULE
FU3
   57    56     1     0     0
SMALL
bcc


@<TRIPOS>ATOM
      1 C1        105.8350  213.8130    3.3110 c2        1 FU3     -0.255000
      2 C2        105.0870  215.6390    4.6270 c1        1 FU3      0.247000
      3 C3         -7.3300  -30.7990    3.1860 c2        1 FU3     -0.218000
      4 C4         -7.2040  -29.5140    2.8810 c2        1 FU3     -0.218000
      5 C5       -318.3100 -615.2350   -3.4160 c2        1 FU3     -0.104000
      6 C6        104.3490  214.1210    8.2880 c1        1 FU3     -0.058000
      7 C7        103.9400  211.9890   10.1580 c2        1 FU3     -0.191000
      8 C8        107.5080  210.9100    3.1950 c3        1 FU3     -0.198000
      9 C9        108.2480  210.2740    2.0450 c3        1 FU3     -0.202000
     10 C10       106.0410  211.0820    2.8510 c3        1 FU3     -0.025000
     11 C11       105.0690  214.5500    2.4770 c2        1 FU3     -0.039000
     12 C12       105.2660  212.8540    4.2690 c2        1 FU3      0.205000
     13 C13       104.8450  214.7760    5.6230 c2        1 FU3     -0.496000
     14 C14       104.0450  212.8820    7.8570 c2        1 FU3     -0.288000
     15 C15       103.6630  211.8590    8.8450 c2        1 FU3      0.046000
     16 C16       104.7250  213.3290    5.4490 c2        1 FU3     -0.157000
     17 C17       104.0490  212.4910    6.4400 c2        1 FU3      0.251000
     18 C18       102.8320  210.5370    6.9820 c2        1 FU3      0.337000
     19 C19      -317.7150 -614.0380   -3.3750 c2        1 FU3     -0.232000
     20 C21       109.7570  210.1300    2.3830 c3        1 FU3      0.417000
     21 N22       102.1090  209.4810    6.5020 nh        1 FU3     -0.321000
     22 N23       102.9710  210.7230    8.3410 na        1 FU3     -0.260000
     23 N24       103.4300  211.3900    6.0280 n2        1 FU3     -0.228000
     24 N25      -318.2240 -612.8510   -4.0420 n4        1 FU3     -0.062000
     25 N26      -318.8670 -611.8070   -1.8750 n         1 FU3     -0.368000
     26 O27      -317.9170 -610.5860   -3.6200 o         1 FU3     -0.236000
     27 O28       105.3100  211.5220    4.0130 os        1 FU3     -0.165000
     28 F29       110.3850  211.3230    2.6390 f         1 FU3     -0.159667
     29 F30       110.0100  209.3540    3.4850 f         1 FU3     -0.159667
     30 F31       110.4810  209.5570    1.3700 f         1 FU3     -0.159667
     31 CL32      105.7100  215.6040    1.3460 cl        1 FU3      0.081000
     32 CL33      104.7560  215.3890    7.2470 cl        1 FU3      0.550000
     33 H1        106.9390  213.8800    3.3100 ha        1 FU3      0.192000
     34 H2        103.9670  214.4860    2.4490 h4        1 FU3      0.176000
     35 H4         -7.3020  -29.1360    1.8550 ha        1 FU3      0.109000
     36 H4A        -6.9930  -28.7430    3.6340 ha        1 FU3      0.109000
     37 H5       -319.2540 -615.4550   -3.9390 ha        1 FU3      0.173500
     38 H5A      -317.8480 -616.0970   -2.9020 ha        1 FU3      0.173500
     39 H6       -318.9360 -611.0020   -1.2860 hn        1 FU3      0.283500
     40 H7        104.4770  212.8770   10.5240 ha        1 FU3      0.157500
     41 H8        107.9660  211.9060    3.4370 hc        1 FU3      0.114000
     42 H8A       107.6080  210.2680    4.1120 hc        1 FU3      0.114000
     43 H9        108.1670  210.8960    1.1170 hc        1 FU3      0.128500
     44 H9A       107.8510  209.2500    1.8260 hc        1 FU3      0.128500
     45 H10       105.8920  211.7830    1.9910 h1        1 FU3      0.119000
     46 H10A      105.5550  210.0910    2.6280 h1        1 FU3      0.119000
     47 H19      -316.7530 -613.8500   -2.8550 hx        1 FU3      0.206000
     48 HN22      102.5970  210.0800    9.0060 hn        1 FU3      0.270000
     49 HN2A      102.0200  209.3540    5.5170 hn        1 FU3      0.274500
     50 HN25     -317.5710 -612.5780   -4.7970 hn        1 FU3      0.268000
     51 H21      -319.1130 -612.6970   -1.5120 hn        1 FU3      0.283500
     52 H22       103.6500  211.2550   10.9210 ha        1 FU3      0.157500
     53 C20      -318.3290 -611.6290   -3.1060 c2        1 FU3      0.345000
     54 H3         -7.2310  -31.1770    4.2120 ha        1 FU3      0.109000
     55 H223      101.6780  208.8230    7.1090 hn        1 FU3      0.274500
     56 H252     -319.1450 -613.0250   -4.4610 hn        1 FU3      0.268000
     57 H3A        -7.5400  -31.5700    2.4330 ha        1 FU3      0.109000
@<TRIPOS>BOND
     1    1   11 1   
     2    1   12 1   
     3    1   33 1   
     4    2   13 1   
     5    3    4 1   
     6    3   54 1   
     7    3   57 1   
     8    4   35 1   
     9    4   36 1   
    10    5   19 1   
    11    5   37 1   
    12    5   38 1   
    13    6   14 1   
    14    6   32 1   
    15    7   15 1   
    16    7   40 1   
    17    7   52 1   
    18    8    9 1   
    19    8   10 1   
    20    8   41 1   
    21    8   42 1   
    22    9   20 1   
    23    9   43 1   
    24    9   44 1   
    25   10   27 1   
    26   10   45 1   
    27   10   46 1   
    28   11   31 1   
    29   11   34 1   
    30   12   16 1   
    31   12   27 1   
    32   13   16 1   
    33   13   32 1   
    34   14   15 1   
    35   14   17 1   
    36   15   22 1   
    37   16   17 1   
    38   17   23 1   
    39   18   21 1   
    40   18   22 1   
    41   18   23 1   
    42   19   24 1   
    43   19   47 1   
    44   20   28 1   
    45   20   29 1   
    46   20   30 1   
    47   21   49 1   
    48   21   55 1   
    49   22   48 1   
    50   24   50 1   
    51   24   53 1   
    52   24   56 1   
    53   25   39 1   
    54   25   51 1   
    55   25   53 1   
    56   26   53 1   
@<TRIPOS>SUBSTRUCTURE
     1 FU3         1 TEMP              0 ****  ****    0 ROOT
