@<TRIPOS>MOLECULE
FU3
   55    51     1     0     0
SMALL
bcc


@<TRIPOS>ATOM
      1 C1          2.3520    1.5420   -3.3070 c1        1 FU3     -0.180000
      2 C2          3.6860   -0.2170   -2.4170 c1        1 FU3     -0.145000
      3 C3         -4.1000   -6.5160    2.4520 cy        1 FU3     -0.175000
      4 C4         -4.6040   -5.4220    1.5760 cy        1 FU3     -0.188000
      5 C5         -2.7350   -6.3760    1.8430 cy        1 FU3     -0.188000
      6 C6         -0.2120   -1.4670   -0.3230 c3        1 FU3      0.012000
      7 C7         -1.2780   -1.4410    1.7140 c3        1 FU3     -0.015000
      8 C8          0.7120    4.9620   -1.4530 c3        1 FU3     -0.207000
      9 C9          1.7120    6.1040   -1.5920 c3        1 FU3     -0.192000
     10 C10         1.0330    3.8790   -2.4760 c3        1 FU3     -0.013000
     11 C11         3.3990    0.6380   -3.4340 c2        1 FU3     -0.022000
     12 C12         1.5860    1.5760   -2.1270 c1        1 FU3      0.110000
     13 C13         2.9210   -0.1870   -1.2300 c1        1 FU3     -0.014000
     14 C14         0.2810   -0.2400    0.4360 c2        1 FU3     -0.232000
     15 C15        -0.3000   -0.2470    1.6540 c2        1 FU3      0.029000
     16 C16         1.8750    0.7150   -1.1020 c1        1 FU3     -0.053000
     17 C17         1.1610    0.7870    0.0920 c1        1 FU3      0.132000
     18 C18         0.8310    1.7320    2.1870 c1        1 FU3      0.152000
     19 C19        -3.2370   -5.2770    0.9700 cy        1 FU3      0.001000
     20 C20        -1.7960   -3.4430    0.2500 c1        1 FU3      0.366000
     21 C21         2.0020    6.6940   -0.2100 c3        1 FU3      0.414000
     22 N22         0.9290    2.6650    3.1920 n3        1 FU3     -0.323000
     23 N23        -0.0360    0.7200    2.5230 n1        1 FU3     -0.194000
     24 N24         1.4220    1.7470    0.9580 n1        1 FU3     -0.216000
     25 N25        -2.6540   -4.0610    1.2410 n2        1 FU3     -0.341000
     26 N26        -1.1340   -2.1790    0.5460 n3        1 FU3     -0.294000
     27 O27        -1.5890   -4.0200   -0.8440 o         1 FU3     -0.383000
     28 O28         0.6180    2.5740   -1.9550 o         1 FU3     -0.204000
     29 F29         0.8530    6.9170    0.4280 f         1 FU3     -0.168333
     30 F30         2.7390    5.8360    0.4920 f         1 FU3     -0.168333
     31 F31         2.6440    7.8050   -0.3400 f         1 FU3     -0.168333
     32 CL32        4.3450    0.5770   -4.9490 cl        1 FU3      0.004000
     33 CL33        3.8940   -1.1110   -0.2030 cl        1 FU3      0.012000
     34 H1          2.1530    2.1390   -4.0200 DU        1 FU3      0.159000
     35 H2          4.4500   -0.8760   -2.5100 ha        1 FU3      0.167000
     36 H3         -4.5290   -7.4060    2.2490 hc        1 FU3      0.090000
     37 H3A        -4.1140   -6.2870    3.3640 hc        1 FU3      0.090000
     38 H4         -5.2500   -5.7220    0.9500 hc        1 FU3      0.095500
     39 H4A        -4.8780   -4.6420    2.0710 hc        1 FU3      0.095500
     40 H5         -2.4550   -7.1940    1.3190 hc        1 FU3      0.095500
     41 H5A        -2.0710   -6.0770    2.4820 hc        1 FU3      0.095500
     42 H6         -0.6840   -1.1780   -1.1260 h1        1 FU3      0.123000
     43 H7         -1.0660   -2.0020    2.4880 h1        1 FU3      0.117000
     44 H8         -0.2660    5.3250   -1.6220 hc        1 FU3      0.120500
     45 H8A         0.7750    4.5520   -0.4680 hc        1 FU3      0.120500
     46 H9          1.3270    6.8150   -2.1860 hc        1 FU3      0.120500
     47 H9A         2.5490    5.7620   -1.9880 hc        1 FU3      0.120500
     48 H10         0.5350    4.0730   -3.3430 h1        1 FU3      0.098000
     49 H10A        1.9980    3.8680   -2.6480 h1        1 FU3      0.098000
     50 H19        -3.2180   -5.5210   -0.0170 h1        1 FU3      0.142000
     51 HN22        0.2990    2.6370    3.9610 hn        1 FU3      0.226000
     52 HN2A        1.5310    3.3100    3.1370 hn        1 FU3      0.226000
     53 HN25       -2.7520   -3.6790    2.0600 hn        1 FU3      0.212000
     54 H21         0.5590   -2.0540   -0.5350 h1        1 FU3      0.123000
     55 H22        -2.2140   -1.1060    1.7890 h1        1 FU3      0.117000
@<TRIPOS>BOND
     1    1   11 1   
     2    1   12 1   
     3    2   11 1   
     4    2   35 1   
     5    3    4 1   
     6    3    5 1   
     7    3   36 1   
     8    3   37 1   
     9    4   19 1   
    10    4   38 1   
    11    4   39 1   
    12    5   19 1   
    13    5   40 1   
    14    5   41 1   
    15    6   14 1   
    16    6   26 1   
    17    6   42 1   
    18    6   54 1   
    19    7   15 1   
    20    7   26 1   
    21    7   43 1   
    22    7   55 1   
    23    8    9 1   
    24    8   10 1   
    25    8   44 1   
    26    8   45 1   
    27    9   21 1   
    28    9   46 1   
    29    9   47 1   
    30   10   28 1   
    31   10   48 1   
    32   10   49 1   
    33   11   32 1   
    34   12   16 1   
    35   13   16 1   
    36   13   33 1   
    37   14   15 1   
    38   14   17 1   
    39   15   23 1   
    40   18   22 1   
    41   18   24 1   
    42   19   25 1   
    43   19   50 1   
    44   20   26 1   
    45   20   27 1   
    46   21   29 1   
    47   21   30 1   
    48   21   31 1   
    49   22   51 1   
    50   22   52 1   
    51   25   53 1   
@<TRIPOS>SUBSTRUCTURE
     1 FU3         1 TEMP              0 ****  ****    0 ROOT
