@<TRIPOS>MOLECULE
FU3
   56    56     1     0     0
SMALL
bcc


@<TRIPOS>ATOM
      1 C1          0.1860    0.5670   -0.2350 c2        1 FU3     -0.223000
      2 C2          2.1880   -0.1910    1.0710 c1        1 FU3      0.219000
      3 C3         -6.6300   -5.8400    6.2720 c3        1 FU3     -0.179000
      4 C4         -6.3330   -4.6110    5.4090 c3        1 FU3     -0.120000
      5 C5         -5.5190   -6.8460    6.0010 c3        1 FU3     -0.179000
      6 C6         -1.4350   -2.6580    2.6730 c2        1 FU3     -0.098000
      7 C7         -3.9440   -2.1050    4.4060 c2        1 FU3     -0.238000
      8 C8         -3.8870    1.6320    0.0850 c3        1 FU3     -0.196000
      9 C9         -5.0330   -0.3970   -1.0520 c1        1 FU3      0.068000
     10 C10        -2.4610    1.2370   -0.2170 c3        1 FU3     -0.025000
     11 C11         1.1650    1.4830   -0.3480 c2        1 FU3     -0.057000
     12 C12        -0.5960    0.3850    0.9890 c2        1 FU3      0.113000
     13 C13         1.3630   -0.5530    2.0680 c2        1 FU3     -0.327000
     14 C14        -1.6820   -1.5800    3.4290 c2        1 FU3     -0.165000
     15 C15        -2.7220   -1.4730    4.4750 c2        1 FU3      0.113000
     16 C16        -0.0430   -0.1820    2.0990 c2        1 FU3     -0.114000
     17 C17        -0.8060   -0.3780    3.3490 c2        1 FU3      0.167000
     18 C18        -1.4650    0.2150    5.5160 c2        1 FU3      0.226000
     19 C19        -4.5620   -6.1970    4.9970 c3        1 FU3     -0.120000
     20 C21        -5.2970   -1.5830   -0.1090 c3        1 FU3      0.321000
     21 N22        -1.1390    0.9630    6.6190 nv        1 FU3     -0.322000
     22 N23        -2.4820   -0.6760    5.5920 n2        1 FU3     -0.311000
     23 N24        -0.6770    0.4730    4.3260 n2        1 FU3     -0.171000
     24 N25        -4.9180   -4.7370    4.9110 nx        1 FU3     -0.059000
     25 N26        -4.4000   -2.8860    3.3360 ns        1 FU3     -0.245000
     26 O27        -5.1590   -4.9480    2.5760 o         1 FU3     -0.280000
     27 O28        -1.9200    0.7500    1.0270 os        1 FU3     -0.209000
     28 F29        -4.1630   -2.2620    0.2730 f         1 FU3     -0.168000
     29 F30        -5.8760   -1.2670    1.1030 f         1 FU3     -0.168000
     30 F31        -6.1060   -2.5520   -0.6500 f         1 FU3     -0.168000
     31 Cl32        2.0470    1.7020   -1.7610 cl        1 FU3      0.044000
     32 Cl33        2.0020   -1.4810    3.3440 cl        1 FU3      0.036000
     33 H1         -0.0870   -0.1070   -1.0680 ha        1 FU3      0.173000
     34 H2          1.4450    2.1860    0.4560 h4        1 FU3      0.176000
     35 H4         -4.6830   -6.6640    3.9770 hx        1 FU3      0.150500
     36 H4A        -7.0220   -4.5770    4.5190 hx        1 FU3      0.150500
     37 H5         -5.9280   -7.7960    5.5720 hc        1 FU3      0.129750
     38 H5A        -4.9770   -7.1070    6.9460 hc        1 FU3      0.129750
     39 H6         -0.6210   -2.6610    1.9290 ha        1 FU3      0.134500
     40 H7         -4.2170   -2.5880    2.3910 hn        1 FU3      0.290000
     41 H8         -3.9270    2.4250    0.8730 hc        1 FU3      0.093667
     42 H8A        -4.4600    0.7500    0.4920 hc        1 FU3      0.093667
     43 H9         -4.3670    2.0130   -0.8480 hc        1 FU3      0.093667
     44 H9A        -5.9630    0.1630   -1.2530 ha        1 FU3      0.072000
     45 H10        -2.4260    0.4130   -0.9800 h1        1 FU3      0.103500
     46 H10A       -1.8600    2.1150   -0.5680 h1        1 FU3      0.103500
     47 H19        -3.4890   -6.2870    5.3160 hx        1 FU3      0.150500
     48 HN22       -1.6850    0.8910    7.4440 hn        1 FU3      0.257000
     49 HN2A       -0.4570    1.6800    6.5470 hn        1 FU3      0.257000
     50 HN25       -4.2970   -4.2100    5.5370 hn        1 FU3      0.254000
     51 H21        -1.9850   -3.6030    2.7520 ha        1 FU3      0.134500
     52 H22        -4.7130   -1.9140    5.1800 h4        1 FU3      0.161000
     53 C20        -4.7980   -4.1870    3.4850 c2        1 FU3      0.319000
     54 H3         -6.6620   -5.5600    7.3550 hc        1 FU3      0.129750
     55 H252       -6.4310   -3.6520    5.9870 hx        1 FU3      0.150500
     56 H3A        -7.6320   -6.2600    6.0000 hc        1 FU3      0.129750
@<TRIPOS>BOND
     1    1   11 1   
     2    1   12 1   
     3    1   33 1   
     4    2   13 1   
     5    3    4 1   
     6    3    5 1   
     7    3   54 1   
     8    3   56 1   
     9    4   24 1   
    10    4   36 1   
    11    4   55 1   
    12    5   19 1   
    13    5   37 1   
    14    5   38 1   
    15    6   14 1   
    16    6   39 1   
    17    6   51 1   
    18    7   15 1   
    19    7   25 1   
    20    7   52 1   
    21    8   10 1   
    22    8   41 1   
    23    8   42 1   
    24    8   43 1   
    25    9   20 1   
    26    9   44 1   
    27   10   27 1   
    28   10   45 1   
    29   10   46 1   
    30   11   31 1   
    31   11   34 1   
    32   12   16 1   
    33   12   27 1   
    34   13   16 1   
    35   13   32 1   
    36   14   15 1   
    37   14   17 1   
    38   15   22 1   
    39   16   17 1   
    40   17   23 1   
    41   18   21 1   
    42   18   22 1   
    43   18   23 1   
    44   19   24 1   
    45   19   35 1   
    46   19   47 1   
    47   20   28 1   
    48   20   29 1   
    49   20   30 1   
    50   21   48 1   
    51   21   49 1   
    52   24   50 1   
    53   24   53 1   
    54   25   40 1   
    55   25   53 1   
    56   26   53 1   
@<TRIPOS>SUBSTRUCTURE
     1 FU3         1 TEMP              0 ****  ****    0 ROOT
