@<TRIPOS>MOLECULE
FU3
   55    58     1     0     0
SMALL
bcc


@<TRIPOS>ATOM
      1 C1          3.2300    1.4810   -1.0030 ca        1 FU3     -0.208000
      2 C2          4.8290   -0.3440   -1.1470 ca        1 FU3     -0.162000
      3 C3         -7.0980   -1.7370   -1.3370 cy        1 FU3     -0.095400
      4 C4         -6.3400   -1.0790   -0.1700 cy        1 FU3     -0.108900
      5 C5         -5.8150   -1.7600   -2.1870 cy        1 FU3     -0.108900
      6 C6         -0.1660   -1.5440   -0.6870 c3        1 FU3      0.126300
      7 C7         -1.5310   -2.8650    0.7950 c3        1 FU3      0.001700
      8 C8         -0.7720    2.3920    0.2410 c3        1 FU3     -0.104400
      9 C9         -1.4000    3.6900   -0.2050 c3        1 FU3     -0.111400
     10 C10         0.6520    2.3020   -0.2830 c3        1 FU3      0.132400
     11 C11         4.4390    0.9560   -1.4660 ca        1 FU3      0.068400
     12 C12         2.4020    0.6810   -0.2060 ca        1 FU3      0.168100
     13 C13         3.9950   -1.1320   -0.3450 ca        1 FU3      0.084400
     14 C14         0.6190   -1.8450    0.5500 ca        1 FU3     -0.372900
     15 C15        -0.1730   -2.6340    1.4390 ca        1 FU3      0.446600
     16 C16         2.7730   -0.6410    0.1340 cp        1 FU3     -0.174500
     17 C17         1.8960   -1.4730    0.9800 cp        1 FU3      0.569800
     18 C18         1.5400   -2.6660    2.9690 ca        1 FU3      0.871900
     19 C19        -5.0360   -1.0400   -1.0350 cy        1 FU3      0.080700
     20 C21        -2.7730    3.9120    0.4800 c3        1 FU3      0.627900
     21 N22         2.0650   -3.1710    4.1610 nh        1 FU3     -0.925500
     22 N23         0.2310   -3.0570    2.6340 nb        1 FU3     -0.720000
     23 N24         2.3660   -1.8710    2.1920 nb        1 FU3     -0.736000
     24 N25        -3.9010   -1.7080   -0.4740 n         1 FU3     -0.532900
     25 N26        -1.5050   -2.1310   -0.4790 n         1 FU3     -0.423800
     26 O27        -2.4170   -0.1760   -1.3670 o         1 FU3     -0.641100
     27 O28         1.2090    1.1250    0.3230 os        1 FU3     -0.319900
     28 F29        -3.7110    2.9470    0.2160 f         1 FU3     -0.239633
     29 F30        -2.7180    3.9800    1.8500 f         1 FU3     -0.239633
     30 F31        -3.3750    5.0880    0.1040 f         1 FU3     -0.239633
     31 CL32        5.4480    1.9210   -2.4330 cl        1 FU3     -0.076400
     32 CL33        4.4940   -2.7140    0.0100 cl        1 FU3     -0.056400
     33 H1          2.9450    2.5120   -1.2590 ha        1 FU3      0.158000
     34 H2          5.7840   -0.7490   -1.5190 ha        1 FU3      0.166000
     35 H3A        -7.9080   -1.1070   -1.7600 hc        1 FU3      0.051200
     36 H4         -6.7010   -0.0640    0.1010 hc        1 FU3      0.056950
     37 H4A        -6.2810   -1.7070    0.7430 hc        1 FU3      0.056950
     38 H5         -5.4530   -2.7800   -2.4300 hc        1 FU3      0.056950
     39 H5A        -5.8680   -1.1540   -3.1160 hc        1 FU3      0.056950
     40 H6         -0.2120   -0.4320   -0.8750 h1        1 FU3      0.082700
     41 H7         -1.6690   -3.9580    0.5650 h1        1 FU3      0.080700
     42 H8         -0.7630    2.3300    1.3610 hc        1 FU3      0.088200
     43 H8A        -1.3720    1.5210   -0.1430 hc        1 FU3      0.088200
     44 H9         -0.7520    4.5640    0.0600 hc        1 FU3      0.081700
     45 H9A        -1.5710    3.6890   -1.3120 hc        1 FU3      0.081700
     46 H10         0.6650    2.2030   -1.4000 h1        1 FU3      0.046700
     47 H10A        1.2600    3.1910    0.0310 h1        1 FU3      0.046700
     48 H19        -4.7460    0.0080   -1.3160 h1        1 FU3      0.102700
     49 HN22        1.4130   -3.5070    4.8300 hn        1 FU3      0.429800
     50 HN2A        2.8760   -2.7210    4.5180 hn        1 FU3      0.429800
     51 HN25       -4.0340   -2.6640   -0.2340 hn        1 FU3      0.303500
     52 H21         0.2800   -2.0470   -1.5890 h1        1 FU3      0.082700
     53 H22        -2.3480   -2.5300    1.4900 h1        1 FU3      0.080700
     54 C20        -2.6080   -1.2750   -0.7890 c         1 FU3      0.739100
     55 H3         -7.5010   -2.7450   -1.1010 hc        1 FU3      0.051200
@<TRIPOS>BOND
     1    1   11 ar  
     2    1   12 ar  
     3    1   33 1   
     4    2   11 ar  
     5    2   13 ar  
     6    2   34 1   
     7    3    4 1   
     8    3    5 1   
     9    3   35 1   
    10    3   55 1   
    11    4   19 1   
    12    4   36 1   
    13    4   37 1   
    14    5   19 1   
    15    5   38 1   
    16    5   39 1   
    17    6   14 1   
    18    6   25 1   
    19    6   40 1   
    20    6   52 1   
    21    7   15 1   
    22    7   25 1   
    23    7   41 1   
    24    7   53 1   
    25    8    9 1   
    26    8   10 1   
    27    8   42 1   
    28    8   43 1   
    29    9   20 1   
    30    9   44 1   
    31    9   45 1   
    32   10   27 1   
    33   10   46 1   
    34   10   47 1   
    35   11   31 1   
    36   12   16 ar  
    37   12   27 1   
    38   13   16 ar  
    39   13   32 1   
    40   14   15 ar  
    41   14   17 ar  
    42   15   22 ar  
    43   16   17 1   
    44   17   23 ar  
    45   18   21 1   
    46   18   22 ar  
    47   18   23 ar  
    48   19   24 1   
    49   19   48 1   
    50   20   28 1   
    51   20   29 1   
    52   20   30 1   
    53   21   49 1   
    54   21   50 1   
    55   24   51 1   
    56   24   54 1   
    57   25   54 1   
    58   26   54 2   
@<TRIPOS>SUBSTRUCTURE
     1 FU3         1 TEMP              0 ****  ****    0 ROOT
