@<TRIPOS>MOLECULE
FU4
   22    22     1     0     0
SMALL
bcc


@<TRIPOS>ATOM
      1 C1         -1.0450    0.7380   -1.3670 c3        1 FU4      0.100400
      2 C2          0.4760    0.7380   -1.3670 c3        1 FU4      0.069100
      3 C3          1.0370    0.7380    0.0010 c3        1 FU4      0.111100
      4 C4          0.4620   -0.3430    0.8440 c3        1 FU4      0.121100
      5 C5         -1.0580   -0.3370    0.8330 c3        1 FU4      0.144100
      6 C6         -1.5520   -1.5560    1.5510 c3        1 FU4     -0.087100
      7 O2          0.9410    1.9100   -2.0610 oh        1 FU4     -0.606800
      8 O3          2.4800    0.5530   -0.0830 oh        1 FU4     -0.609800
      9 O4          0.9250   -1.6090    0.3550 oh        1 FU4     -0.589800
     10 O5         -1.6090   -0.3310   -0.5240 os        1 FU4     -0.396600
     11 H1C1       -1.3600    1.6000   -1.0360 h1        1 FU4      0.054200
     12 H1C2       -1.3600    0.6170   -2.2820 h1        1 FU4      0.054200
     13 H2          0.7920   -0.0560   -1.8390 h1        1 FU4      0.070700
     14 H3          0.8520    1.6000    0.4200 h1        1 FU4      0.056700
     15 H4          0.7720   -0.2260    1.7630 h1        1 FU4      0.051700
     16 H5         -1.3730    0.4560    1.3050 h1        1 FU4      0.037700
     17 H6C1       -1.3680   -2.3480    1.0110 hc        1 FU4      0.052700
     18 H6C2       -2.5140   -1.4790    1.6980 hc        1 FU4      0.052700
     19 H6C3       -1.0960   -1.6350    2.4100 hc        1 FU4      0.052700
     20 HA          1.1720    1.6920   -2.8900 ho        1 FU4      0.410000
     21 HB          2.8880    1.2150    0.3450 ho        1 FU4      0.427000
     22 HC          1.5340   -1.9370    0.9110 ho        1 FU4      0.421000
@<TRIPOS>BOND
     1    1    2 1   
     2    1   10 1   
     3    1   11 1   
     4    1   12 1   
     5    2    3 1   
     6    2    7 1   
     7    2   13 1   
     8    3    4 1   
     9    3    8 1   
    10    3   14 1   
    11    4    5 1   
    12    4    9 1   
    13    4   15 1   
    14    5    6 1   
    15    5   10 1   
    16    5   16 1   
    17    6   17 1   
    18    6   18 1   
    19    6   19 1   
    20    7   20 1   
    21    8   21 1   
    22    9   22 1   
@<TRIPOS>SUBSTRUCTURE
     1 FU4         1 TEMP              0 ****  ****    0 ROOT
