@<TRIPOS>MOLECULE
FU4
   22    22     1     0     0
SMALL
bcc


@<TRIPOS>ATOM
      1 C1         -0.3210    1.7270    0.0540 c3        1 FU4      0.101400
      2 C2         -1.2420    0.5310    0.3120 c3        1 FU4      0.067100
      3 C3         -0.8280   -0.6390   -0.5970 c3        1 FU4      0.158100
      4 C4          0.6510   -0.9640   -0.3240 c3        1 FU4      0.116100
      5 C5          1.4780    0.3080   -0.5910 c3        1 FU4      0.100100
      6 C6          2.9510    0.1110   -0.2920 c3        1 FU4     -0.099100
      7 O2         -2.5840    0.8470   -0.0280 oh        1 FU4     -0.604800
      8 O3         -1.5920   -1.8020   -0.3560 oh        1 FU4     -0.581800
      9 O4          0.7460   -1.3980    1.0210 oh        1 FU4     -0.574800
     10 O5          1.0440    1.3880    0.2430 os        1 FU4     -0.401600
     11 H1C1       -0.5050    2.5420    0.8030 h1        1 FU4      0.054700
     12 H1C2       -0.4830    2.1200   -0.9840 h1        1 FU4      0.054700
     13 H2         -1.1720    0.2040    1.3860 h1        1 FU4      0.080700
     14 H3         -0.9470   -0.3380   -1.6760 h1        1 FU4      0.046700
     15 H4          0.9890   -1.7880   -1.0110 h1        1 FU4      0.055700
     16 H5          1.3350    0.6010   -1.6700 h1        1 FU4      0.045700
     17 H6C1        3.1210    0.0400    0.8090 hc        1 FU4      0.050367
     18 H6C2        3.3110   -0.8230   -0.7850 hc        1 FU4      0.050367
     19 H6C3        3.5360    0.9800   -0.6770 hc        1 FU4      0.050367
     20 HA         -2.8860    1.5000    0.6130 ho        1 FU4      0.409000
     21 HB         -2.5130   -1.5160   -0.2900 ho        1 FU4      0.419000
     22 HC          1.6840   -1.5290    1.2040 ho        1 FU4      0.402000
@<TRIPOS>BOND
     1    1    2 1   
     2    1   10 1   
     3    1   11 1   
     4    1   12 1   
     5    2    3 1   
     6    2    7 1   
     7    2   13 1   
     8    3    4 1   
     9    3    8 1   
    10    3   14 1   
    11    4    5 1   
    12    4    9 1   
    13    4   15 1   
    14    5    6 1   
    15    5   10 1   
    16    5   16 1   
    17    6   17 1   
    18    6   18 1   
    19    6   19 1   
    20    7   20 1   
    21    8   21 1   
    22    9   22 1   
@<TRIPOS>SUBSTRUCTURE
     1 FU4         1 TEMP              0 ****  ****    0 ROOT
