@<TRIPOS>MOLECULE
FU5
   39    40     1     0     0
SMALL
bcc


@<TRIPOS>ATOM
      1 C1         -0.0050    0.0600    0.0720 cp        1 FU5     -0.231500
      2 C2         -0.6560    0.0320   -1.2450 cp        1 FU5      0.566800
      3 C3          1.4060    0.1340    0.1550 ca        1 FU5      0.173100
      4 C4         -0.7450    0.0200    1.2660 ca        1 FU5      0.089400
      5 C5         -0.3790    1.0480   -2.1920 ca        1 FU5     -0.283600
      6 N6         -1.5180   -0.9830   -1.5320 nb        1 FU5     -0.665000
      7 C7          2.0490    0.1540    1.4000 ca        1 FU5     -0.201000
      8 O8          2.0650    0.1970   -1.0520 os        1 FU5     -0.347900
      9 C9         -0.1030    0.0450    2.5060 ca        1 FU5     -0.154000
     10 CL10       -2.4430   -0.0240    1.2360 cl        1 FU5     -0.069400
     11 C11        -1.0240    1.0060   -3.4480 ca        1 FU5      0.484600
     12 C12        -2.0860   -0.9230   -2.7750 ca        1 FU5      0.692900
     13 C13         1.2890    0.1070    2.5650 ca        1 FU5     -0.046000
     14 C14         3.4970    0.0650   -1.0040 c3        1 FU5      0.132400
     15 N15        -1.8990    0.0090   -3.7560 nb        1 FU5     -0.681000
     16 C16        -0.7450    2.0630   -4.4640 c3        1 FU5     -0.169400
     17 N17        -3.0400   -2.0290   -3.1000 n4        1 FU5     -0.814300
     18 C18         3.9360   -0.0150   -2.4560 c3        1 FU5     -0.093400
     19 C19         5.4380   -0.1400   -2.5420 c3        1 FU5     -0.122400
     20 C20         5.8870   -0.2480   -4.0240 c3        1 FU5      0.629900
     21 F21         5.5350    0.8310   -4.7950 f         1 FU5     -0.233633
     22 F22         7.2450   -0.3600   -4.1700 f         1 FU5     -0.233633
     23 F23         5.3690   -1.3330   -4.6880 f         1 FU5     -0.233633
     24 H5          0.3430    1.8440   -1.9480 ha        1 FU5      0.198000
     25 H7          3.1450    0.2100    1.4680 ha        1 FU5      0.159000
     26 H9         -0.6940    0.0170    3.4360 ha        1 FU5      0.170000
     27 H13         1.7920    0.1230    3.5460 ha        1 FU5      0.161000
     28 H14         3.9300    0.9650   -0.4950 h1        1 FU5      0.056700
     29 H14A        3.7730   -0.8660   -0.4430 h1        1 FU5      0.056700
     30 H16        -0.1750    2.9030   -3.9950 hc        1 FU5      0.083700
     31 H16A       -1.6940    2.4680   -4.8970 hc        1 FU5      0.083700
     32 H16B       -0.1340    1.6350   -5.3000 hc        1 FU5      0.083700
     33 HN17       -3.8040   -2.0230   -2.4150 hn        1 FU5      0.478800
     34 HN1A       -2.5420   -2.9250   -3.0490 hn        1 FU5      0.478800
     35 H18         3.5980    0.9030   -3.0050 hc        1 FU5      0.072200
     36 H18A        3.4500   -0.8980   -2.9490 hc        1 FU5      0.072200
     37 H19         5.7980   -1.0580   -2.0110 hc        1 FU5      0.089200
     38 H19A        5.9440    0.7540   -2.0980 hc        1 FU5      0.089200
     39 H173       -3.4200   -1.8980   -4.0470 hn        1 FU5      0.478800
@<TRIPOS>BOND
     1    1    2 1   
     2    1    3 ar  
     3    1    4 ar  
     4    2    5 ar  
     5    2    6 ar  
     6    3    7 ar  
     7    3    8 1   
     8    4    9 ar  
     9    4   10 1   
    10    5   11 ar  
    11    5   24 1   
    12    6   12 ar  
    13    7   13 ar  
    14    7   25 1   
    15    8   14 1   
    16    9   13 ar  
    17    9   26 1   
    18   11   15 ar  
    19   11   16 1   
    20   12   15 ar  
    21   12   17 1   
    22   13   27 1   
    23   14   18 1   
    24   14   28 1   
    25   14   29 1   
    26   16   30 1   
    27   16   31 1   
    28   16   32 1   
    29   17   33 1   
    30   17   34 1   
    31   17   39 1   
    32   18   19 1   
    33   18   35 1   
    34   18   36 1   
    35   19   20 1   
    36   19   37 1   
    37   19   38 1   
    38   20   21 1   
    39   20   22 1   
    40   20   23 1   
@<TRIPOS>SUBSTRUCTURE
     1 FU5         1 TEMP              0 ****  ****    0 ROOT
