@<TRIPOS>MOLECULE
FU5
   38    39     1     0     0
SMALL
bcc


@<TRIPOS>ATOM
      1 C1          0.0790    0.3250   -0.0180 cp        1 FU5     -0.168500
      2 C2         -0.5620    0.2520   -1.3480 cp        1 FU5      0.543800
      3 C3          1.4870    0.2820    0.0930 ca        1 FU5      0.159100
      4 C4         -0.6790    0.4330    1.1540 ca        1 FU5      0.067400
      5 C5         -1.0240    1.4420   -1.9500 ca        1 FU5     -0.399600
      6 N6         -0.6650   -0.9550   -1.9420 nb        1 FU5     -0.732000
      7 C7          2.1110    0.3550    1.3450 ca        1 FU5     -0.208000
      8 O8          2.1710    0.2070   -1.1040 os        1 FU5     -0.316900
      9 C9         -0.0580    0.5070    2.4070 ca        1 FU5     -0.161000
     10 Cl10       -2.3760    0.4700    1.0830 cl        1 FU5     -0.072400
     11 C11        -1.6030    1.3380   -3.2320 ca        1 FU5      0.481600
     12 C12        -1.2750   -0.9680   -3.1930 ca        1 FU5      0.865900
     13 C13         1.3290    0.4660    2.4930 ca        1 FU5     -0.080000
     14 C14         3.5590   -0.1380   -1.0070 c3        1 FU5      0.133400
     15 N15        -1.7300    0.1550   -3.8720 nb        1 FU5     -0.752000
     16 C16        -2.0950    2.5790   -3.9070 c3        1 FU5     -0.154400
     17 N17        -1.5040   -2.2180   -3.7840 nv        1 FU5     -0.923500
     18 C18         4.0070   -0.4070   -2.4340 c3        1 FU5     -0.094400
     19 C19         5.4730   -0.7620   -2.4540 c3        1 FU5     -0.116400
     20 C20         5.9570   -1.0430   -3.9000 c3        1 FU5      0.627900
     21 F21         5.8230    0.0180   -4.7590 f         1 FU5     -0.238967
     22 F22         7.2880   -1.3750   -3.9670 f         1 FU5     -0.238967
     23 F23         5.3120   -2.0810   -4.5230 f         1 FU5     -0.238967
     24 H5         -0.9290    2.4070   -1.4420 ha        1 FU5      0.156000
     25 H7          3.2050    0.3260    1.4320 ha        1 FU5      0.141000
     26 H9         -0.6680    0.5910    3.3190 ha        1 FU5      0.152000
     27 H13         1.8170    0.5220    3.4780 ha        1 FU5      0.140000
     28 H14         3.6860   -1.0480   -0.3640 h1        1 FU5      0.043200
     29 H14A        4.1220    0.7240   -0.5630 h1        1 FU5      0.043200
     30 H16        -3.2120    2.5650   -3.9600 hc        1 FU5      0.057367
     31 H16A       -1.6940    2.6520   -4.9490 hc        1 FU5      0.057367
     32 H16B       -1.7730    3.4810   -3.3330 hc        1 FU5      0.057367
     33 HN17       -0.9550   -2.9720   -3.4430 hn        1 FU5      0.423300
     34 HN1A       -1.6780   -2.2150   -4.7630 hn        1 FU5      0.423300
     35 H18         3.8200    0.5010   -3.0660 hc        1 FU5      0.078200
     36 H18A        3.4000   -1.2450   -2.8680 hc        1 FU5      0.078200
     37 H19         6.0950    0.0760   -2.0480 hc        1 FU5      0.082200
     38 H19A        5.6720   -1.6830   -1.8480 hc        1 FU5      0.082200
@<TRIPOS>BOND
     1    1    2 1   
     2    1    3 ar  
     3    1    4 ar  
     4    2    5 ar  
     5    2    6 ar  
     6    3    7 ar  
     7    3    8 1   
     8    4    9 ar  
     9    4   10 1   
    10    5   11 ar  
    11    5   24 1   
    12    6   12 ar  
    13    7   13 ar  
    14    7   25 1   
    15    8   14 1   
    16    9   13 ar  
    17    9   26 1   
    18   11   15 ar  
    19   11   16 1   
    20   12   15 ar  
    21   12   17 1   
    22   13   27 1   
    23   14   18 1   
    24   14   28 1   
    25   14   29 1   
    26   16   30 1   
    27   16   31 1   
    28   16   32 1   
    29   17   33 1   
    30   17   34 1   
    31   18   19 1   
    32   18   35 1   
    33   18   36 1   
    34   19   20 1   
    35   19   37 1   
    36   19   38 1   
    37   20   21 1   
    38   20   22 1   
    39   20   23 1   
@<TRIPOS>SUBSTRUCTURE
     1 FU5         1 TEMP              0 ****  ****    0 ROOT
