@<TRIPOS>MOLECULE
FU5
   38    39     1     0     0
SMALL
bcc


@<TRIPOS>ATOM
      1 C1          1.7260   -1.0080   -0.3950 cp        1 FU5     -0.168500
      2 C2          1.8170    0.4640   -0.2880 cp        1 FU5      0.543800
      3 C3          0.4670   -1.6460   -0.3380 ca        1 FU5      0.159100
      4 C4          2.8690   -1.8020   -0.5500 ca        1 FU5      0.067400
      5 C5          1.9890    1.2250   -1.4630 ca        1 FU5     -0.399600
      6 N6          1.7150    1.0230    0.9360 nb        1 FU5     -0.732000
      7 C7          0.3620   -3.0380   -0.4430 ca        1 FU5     -0.208000
      8 O8         -0.6180   -0.8000   -0.2170 os        1 FU5     -0.316900
      9 C9          2.7680   -3.1940   -0.6550 ca        1 FU5     -0.161000
     10 CL10        4.4110   -1.0910   -0.6050 cl        1 FU5     -0.072400
     11 C11         2.0410    2.6280   -1.3260 ca        1 FU5      0.481600
     12 C12         1.8060    2.4100    0.9810 ca        1 FU5      0.865900
     13 C13         1.5170   -3.8010   -0.6000 ca        1 FU5     -0.080000
     14 C14        -1.8570   -1.4250    0.1430 c3        1 FU5      0.133400
     15 N15         1.9440    3.2390   -0.1250 nb        1 FU5     -0.752000
     16 C16         2.2110    3.4700   -2.5510 c3        1 FU5     -0.154400
     17 N17         1.8220    3.0140    2.2460 nh        1 FU5     -0.923500
     18 C18        -2.8060   -0.2820    0.4630 c3        1 FU5     -0.094400
     19 C19        -4.1620   -0.8280    0.8370 c3        1 FU5     -0.116400
     20 C20        -5.1500    0.3190    1.1690 c3        1 FU5      0.627900
     21 F21        -5.3770    1.1910    0.1340 f         1 FU5     -0.238967
     22 F22        -6.3990   -0.1320    1.5200 f         1 FU5     -0.238967
     23 F23        -4.7640    1.1150    2.2180 f         1 FU5     -0.238967
     24 H5          2.0710    0.7430   -2.4430 ha        1 FU5      0.156000
     25 H7         -0.6170   -3.5350   -0.4040 ha        1 FU5      0.141000
     26 H9          3.6750   -3.8050   -0.7760 ha        1 FU5      0.152000
     27 H13         1.4380   -4.8960   -0.6810 ha        1 FU5      0.140000
     28 H14        -2.2300   -2.0280   -0.7260 h1        1 FU5      0.043200
     29 H14A       -1.7090   -2.0900    1.0340 h1        1 FU5      0.043200
     30 H16         1.4410    4.2790   -2.5890 hc        1 FU5      0.057367
     31 H16A        3.2230    3.9470   -2.5460 hc        1 FU5      0.057367
     32 H16B        2.1160    2.8380   -3.4670 hc        1 FU5      0.057367
     33 HN17        1.4610    2.4700    2.9960 hn        1 FU5      0.423300
     34 HN1A        1.6120    3.9850    2.2720 hn        1 FU5      0.423300
     35 H18        -2.3880    0.3300    1.3060 hc        1 FU5      0.078200
     36 H18A       -2.8930    0.3960   -0.4280 hc        1 FU5      0.078200
     37 H19        -4.6030   -1.4190   -0.0060 hc        1 FU5      0.082200
     38 H19A       -4.0930   -1.4860    1.7400 hc        1 FU5      0.082200
@<TRIPOS>BOND
     1    1    2 1   
     2    1    3 ar  
     3    1    4 ar  
     4    2    5 ar  
     5    2    6 ar  
     6    3    7 ar  
     7    3    8 1   
     8    4    9 ar  
     9    4   10 1   
    10    5   11 ar  
    11    5   24 1   
    12    6   12 ar  
    13    7   13 ar  
    14    7   25 1   
    15    8   14 1   
    16    9   13 ar  
    17    9   26 1   
    18   11   15 ar  
    19   11   16 1   
    20   12   15 ar  
    21   12   17 1   
    22   13   27 1   
    23   14   18 1   
    24   14   28 1   
    25   14   29 1   
    26   16   30 1   
    27   16   31 1   
    28   16   32 1   
    29   17   33 1   
    30   17   34 1   
    31   18   19 1   
    32   18   35 1   
    33   18   36 1   
    34   19   20 1   
    35   19   37 1   
    36   19   38 1   
    37   20   21 1   
    38   20   22 1   
    39   20   23 1   
@<TRIPOS>SUBSTRUCTURE
     1 FU5         1 TEMP              0 ****  ****    0 ROOT
