@<TRIPOS>MOLECULE
FU5
   38    39     1     0     0
SMALL
bcc


@<TRIPOS>ATOM
      1 C1          0.0780    0.3060   -0.0160 cp        1 FU5     -0.168500
      2 C2         -0.5650    0.2160   -1.3440 cp        1 FU5      0.543800
      3 C3          1.4870    0.2880    0.0920 ca        1 FU5      0.160100
      4 C4         -0.6790    0.4040    1.1570 ca        1 FU5      0.067400
      5 C5         -1.0470    1.3950   -1.9500 ca        1 FU5     -0.399600
      6 N6         -0.6490   -0.9950   -1.9330 nb        1 FU5     -0.732000
      7 C7          2.1120    0.3770    1.3420 ca        1 FU5     -0.208000
      8 O8          2.1690    0.2200   -1.1060 os        1 FU5     -0.316900
      9 C9         -0.0570    0.4930    2.4090 ca        1 FU5     -0.161000
     10 CL10       -2.3770    0.4100    1.0900 cl        1 FU5     -0.072400
     11 C11        -1.6270    1.2760   -3.2310 ca        1 FU5      0.481600
     12 C12        -1.2610   -1.0240   -3.1820 ca        1 FU5      0.865900
     13 C13         1.3320    0.4780    2.4920 ca        1 FU5     -0.080000
     14 C14         3.5640   -0.0960   -1.0110 c3        1 FU5      0.133400
     15 N15        -1.7360    0.0880   -3.8650 nb        1 FU5     -0.752000
     16 C16        -2.1410    2.5060   -3.9100 c3        1 FU5     -0.154400
     17 N17        -1.4700   -2.2800   -3.7680 nh        1 FU5     -0.923500
     18 C18         4.0150   -0.3610   -2.4380 c3        1 FU5     -0.094400
     19 C19         5.4880   -0.6850   -2.4610 c3        1 FU5     -0.116400
     20 C20         5.9740   -0.9610   -3.9080 c3        1 FU5      0.627900
     21 F21         5.8150    0.0940   -4.7700 f         1 FU5     -0.238967
     22 F22         7.3110   -1.2640   -3.9770 f         1 FU5     -0.238967
     23 F23         5.3490   -2.0150   -4.5240 f         1 FU5     -0.238967
     24 H5         -0.9670    2.3640   -1.4470 ha        1 FU5      0.156000
     25 H7          3.2070    0.3680    1.4270 ha        1 FU5      0.141000
     26 H9         -0.6660    0.5700    3.3220 ha        1 FU5      0.152000
     27 H13         1.8200    0.5470    3.4760 ha        1 FU5      0.140000
     28 H14         4.1110    0.7790   -0.5710 h1        1 FU5      0.043200
     29 H14A        3.7110   -1.0010   -0.3660 h1        1 FU5      0.043200
     30 H16        -1.8240    3.4160   -3.3460 hc        1 FU5      0.057367
     31 H16A       -1.7540    2.5770   -4.9560 hc        1 FU5      0.057367
     32 H16B       -3.2590    2.4770   -3.9500 hc        1 FU5      0.057367
     33 HN17       -0.9080   -3.0240   -3.4240 hn        1 FU5      0.423300
     34 HN1A       -1.6460   -2.2840   -4.7460 hn        1 FU5      0.423300
     35 H18         3.4240   -1.2130   -2.8670 hc        1 FU5      0.078200
     36 H18A        3.8060    0.5410   -3.0730 hc        1 FU5      0.078200
     37 H19         5.7070   -1.5990   -1.8520 hc        1 FU5      0.082200
     38 H19A        6.0930    0.1680   -2.0600 hc        1 FU5      0.082200
@<TRIPOS>BOND
     1    1    2 1   
     2    1    3 ar  
     3    1    4 ar  
     4    2    5 ar  
     5    2    6 ar  
     6    3    7 ar  
     7    3    8 1   
     8    4    9 ar  
     9    4   10 1   
    10    5   11 ar  
    11    5   24 1   
    12    6   12 ar  
    13    7   13 ar  
    14    7   25 1   
    15    8   14 1   
    16    9   13 ar  
    17    9   26 1   
    18   11   15 ar  
    19   11   16 1   
    20   12   15 ar  
    21   12   17 1   
    22   13   27 1   
    23   14   18 1   
    24   14   28 1   
    25   14   29 1   
    26   16   30 1   
    27   16   31 1   
    28   16   32 1   
    29   17   33 1   
    30   17   34 1   
    31   18   19 1   
    32   18   35 1   
    33   18   36 1   
    34   19   20 1   
    35   19   37 1   
    36   19   38 1   
    37   20   21 1   
    38   20   22 1   
    39   20   23 1   
@<TRIPOS>SUBSTRUCTURE
     1 FU5         1 TEMP              0 ****  ****    0 ROOT
