@<TRIPOS>MOLECULE
FU7
   55    58     1     0     0
SMALL
bcc


@<TRIPOS>ATOM
      1 C1         -2.5640   -1.3910    0.0480 cp        1 FU7     -0.178500
      2 F1          5.4730    0.5030    2.3150 f         1 FU7     -0.241800
      3 N1          2.0020   -1.0980    0.2220 n         1 FU7     -0.419800
      4 O1          2.2140    1.2000    0.5570 o         1 FU7     -0.652100
      5 CL1        -3.3220   -3.8570    0.8380 cl        1 FU7     -0.058400
      6 C2         -2.7170    0.0150    0.0680 ca        1 FU7      0.169100
      7 F2          6.7900   -0.1870    0.7730 f         1 FU7     -0.241800
      8 N2          0.4940   -3.2820   -2.3250 nb        1 FU7     -0.721000
      9 O2         -1.8260    0.7300   -0.7050 os        1 FU7     -0.327900
     10 CL2        -5.8540    0.5440    2.4450 cl        1 FU7     -0.073400
     11 C3         -3.7390    0.6210    0.8090 ca        1 FU7     -0.204000
     12 N3         -1.8870   -2.8350   -1.7830 nb        1 FU7     -0.737000
     13 C4         -4.6120   -0.1830    1.5450 ca        1 FU7      0.068400
     14 C5         -4.4800   -1.5720    1.5510 ca        1 FU7     -0.161000
     15 N5          4.0690    0.0970   -0.2670 n         1 FU7     -0.530900
     16 C6         -3.4610   -2.1660    0.7980 ca        1 FU7      0.084400
     17 N6         -0.0250    3.9190   -0.7390 na        1 FU7      0.077400
     18 C7         -0.1510   -1.8200   -0.4770 ca        1 FU7     -0.379900
     19 N7         -0.7080    5.0140   -1.1190 nc        1 FU7     -0.521800
     20 C8          0.5630   -0.9850    0.5370 c3        1 FU7      0.130300
     21 C9          2.1990   -2.0750   -0.8590 c3        1 FU7      0.002700
     22 C10         0.8040   -2.4770   -1.3130 ca        1 FU7      0.446600
     23 C11        -0.8900   -3.4540   -2.5180 ca        1 FU7      0.876900
     24 C12        -1.5040   -2.0280   -0.7580 cp        1 FU7      0.575800
     25 C14        -1.7190    2.1290   -0.3970 c3        1 FU7      0.106400
     26 C15        -0.4100    2.5680   -1.0780 c3        1 FU7      0.045300
     27 C16         1.0510    4.2410    0.1040 cc        1 FU7     -0.130300
     28 C17         1.0500    5.6350    0.2320 cd        1 FU7     -0.313300
     29 C18        -0.0790    6.0760   -0.5590 cd        1 FU7      0.296200
     30 C19         4.9290    1.2040    0.0320 c3        1 FU7      0.041000
     31 C20         6.0260    0.9140    1.1190 c3        1 FU7      0.371600
     32 C21         6.8870    2.1770    1.2890 c3        1 FU7     -0.140100
     33 H3         -3.8660    1.7140    0.8060 ha        1 FU7      0.163000
     34 HN4        -0.6060   -4.6170   -4.1800 hn        1 FU7      0.433300
     35 HN4A       -2.2300   -4.3310   -3.7940 hn        1 FU7      0.433300
     36 H5         -5.1710   -2.1970    2.1380 ha        1 FU7      0.167000
     37 HN5         4.5270   -0.7890   -0.3070 hn        1 FU7      0.313500
     38 H8          0.4200   -1.3890    1.5780 h1        1 FU7      0.084200
     39 H9          2.7860   -1.6720   -1.7280 h1        1 FU7      0.083700
     40 H14        -2.6030    2.6660   -0.8280 h1        1 FU7      0.062200
     41 H14A       -1.6730    2.2800    0.7120 h1        1 FU7      0.062200
     42 H15        -0.5390    2.4830   -2.1940 h1        1 FU7      0.086700
     43 H15A        0.4250    1.8810   -0.7520 h1        1 FU7      0.086700
     44 H16         1.7060    3.4690    0.5160 h4        1 FU7      0.200000
     45 H17         1.7360    6.2580    0.7930 ha        1 FU7      0.163000
     46 H18        -0.4200    7.0990   -0.7190 h4        1 FU7      0.040100
     47 H19         5.4780    1.4760   -0.9130 h1        1 FU7      0.089700
     48 H19A        4.3250    2.0870    0.3840 h1        1 FU7      0.089700
     49 H21         7.3630    2.4340    0.3150 hc        1 FU7      0.067033
     50 H21A        6.2410    3.0190    1.6300 hc        1 FU7      0.067033
     51 H21B        7.6810    1.9900    2.0490 hc        1 FU7      0.067033
     52 H20         0.2040    0.0840    0.5100 h1        1 FU7      0.084200
     53 H211        2.7380   -2.9660   -0.4310 h1        1 FU7      0.083700
     54 C13         2.7350    0.1200    0.1810 c         1 FU7      0.742100
     55 N4         -1.2820   -4.3660   -3.4980 nh        1 FU7     -0.928500
@<TRIPOS>BOND
     1    1    6 ar  
     2    1   16 ar  
     3    1   24 1   
     4    2   31 1   
     5    3   20 1   
     6    3   21 1   
     7    3   54 1   
     8    4   54 2   
     9    5   16 1   
    10    6    9 1   
    11    6   11 ar  
    12    7   31 1   
    13    8   22 ar  
    14    8   23 ar  
    15    9   25 1   
    16   10   13 1   
    17   11   13 ar  
    18   11   33 1   
    19   12   23 ar  
    20   12   24 ar  
    21   13   14 ar  
    22   14   16 ar  
    23   14   36 1   
    24   15   30 1   
    25   15   37 1   
    26   15   54 1   
    27   17   19 1   
    28   17   26 1   
    29   17   27 1   
    30   18   20 1   
    31   18   22 ar  
    32   18   24 ar  
    33   19   29 2   
    34   20   38 1   
    35   20   52 1   
    36   21   22 1   
    37   21   39 1   
    38   21   53 1   
    39   23   55 1   
    40   25   26 1   
    41   25   40 1   
    42   25   41 1   
    43   26   42 1   
    44   26   43 1   
    45   27   28 2   
    46   27   44 1   
    47   28   29 1   
    48   28   45 1   
    49   29   46 1   
    50   30   31 1   
    51   30   47 1   
    52   30   48 1   
    53   31   32 1   
    54   32   49 1   
    55   32   50 1   
    56   32   51 1   
    57   34   55 1   
    58   35   55 1   
@<TRIPOS>SUBSTRUCTURE
     1 FU7         1 TEMP              0 ****  ****    0 ROOT
