@<TRIPOS>MOLECULE
FU7
   55    48     1     0     0
SMALL
bcc


@<TRIPOS>ATOM
      1 C1          0.6450    2.6380    1.1660 c1        1 FU7     -0.077000
      2 F1         -3.5630   -3.1800   -4.7610 f         1 FU7     -0.171000
      3 N1         -0.8400   -0.4740   -2.0710 n         1 FU7     -0.278000
      4 O1          0.2010   -2.6010   -2.1790 o         1 FU7     -0.414000
      5 CL1         1.6830    3.9450   -1.3530 cl        1 FU7      0.010000
      6 C2          1.0550    2.4910    2.4750 c1        1 FU7      0.129000
      7 F2         -2.1670   -3.2010   -6.4630 f         1 FU7     -0.171000
      8 N2         -2.1870    2.9720   -1.6610 n1        1 FU7     -0.196000
      9 O2          0.2690    1.5640    3.2300 os        1 FU7     -0.213000
     10 CL2         4.6100    4.2060    2.4340 cl        1 FU7      0.004000
     11 C3          2.2800    2.9890    2.8760 c1        1 FU7     -0.200000
     12 N3         -1.0250    3.5770    0.3150 n1        1 FU7     -0.209000
     13 C4          3.0990    3.6380    1.9580 c2        1 FU7     -0.007000
     14 N4         -2.5800    5.1400   -0.6780 n3        1 FU7     -0.325000
     15 C5          2.6920    3.7850    0.6550 c2        1 FU7     -0.164000
     16 N5         -1.2880   -2.1770   -3.9020 n         1 FU7     -0.339000
     17 C6          1.4620    3.2850    0.2530 c1        1 FU7      0.006000
     18 N6          1.5210   -1.2970    4.6290 n2        1 FU7     -0.122500
     19 C7         -0.6720    1.4700   -0.6730 c1        1 FU7     -0.238000
     20 N7          2.1650   -1.4770    5.8310 n2        1 FU7     -0.122500
     21 C8         -0.1980    0.0300   -0.8880 c2        1 FU7      0.005000
     22 C9         -1.7370    0.5290   -2.5480 c3        1 FU7     -0.018000
     23 C10        -1.5660    1.7740   -1.6610 c1        1 FU7      0.022000
     24 C11        -1.9220    3.8810   -0.6760 c1        1 FU7      0.154000
     25 C12        -0.4060    2.3860    0.3190 c1        1 FU7      0.142000
     26 C13        -0.6080   -1.8160   -2.6910 c2        1 FU7      0.369000
     27 C14         0.9390    1.0180    4.3710 c3        1 FU7     -0.037000
     28 C15         0.4270   -0.3940    4.6290 c2        1 FU7     -0.035000
     29 C16         2.0160   -2.1840    3.7590 c1        1 FU7     -0.134500
     30 C17         2.9710   -2.9260    4.4040 c1        1 FU7     -0.246000
     31 C18         3.0550   -2.4810    5.6800 c1        1 FU7     -0.134500
     32 C19        -1.2860   -3.5120   -4.3270 c3        1 FU7     -0.075000
     33 C20        -2.4430   -3.7470   -5.2650 c3        1 FU7      0.229000
     34 C21        -2.6650   -5.2410   -5.4210 c3        1 FU7     -0.258000
     35 H3          2.5700    2.8830    3.8080 ha        1 FU7      0.176000
     36 HN4        -2.3740    5.7720   -0.0340 hn        1 FU7      0.226500
     37 HN4A       -3.2880    5.3140   -1.3150 hn        1 FU7      0.226500
     38 H5          3.2770    4.2470    0.0020 ha        1 FU7      0.165000
     39 HN5        -1.6350   -1.5380   -4.4300 hn        1 FU7      0.226000
     40 H8         -0.4770   -0.5360   -0.0890 h4        1 FU7      0.125000
     41 H9         -2.6600    0.1990   -2.4690 h1        1 FU7      0.122000
     42 H14         0.7480    1.6130    5.2090 h1        1 FU7      0.115500
     43 H14A        1.9480    0.9900    4.1940 h1        1 FU7      0.115500
     44 H15        -0.2280   -0.6550    3.9030 ha        1 FU7      0.124000
     45 H15A       -0.0060   -0.4230    5.4660 ha        1 FU7      0.124000
     46 H16         1.7460   -2.2850    2.8330 DU        1 FU7      0.181667
     47 H17         3.4910   -3.6370    4.0170 DU        1 FU7      0.181667
     48 H18         3.6410   -2.8200    6.3540 DU        1 FU7      0.181667
     49 H19        -1.3740   -4.0990   -3.5510 h1        1 FU7      0.130000
     50 H19A       -0.4470   -3.7060   -4.7890 h1        1 FU7      0.130000
     51 H21        -1.7830   -5.6960   -5.6070 hc        1 FU7      0.106333
     52 H21A       -3.3000   -5.4100   -6.1850 hc        1 FU7      0.106333
     53 H21B       -3.0670   -5.6140   -4.5540 hc        1 FU7      0.106333
     54 H20         0.7760    0.0260   -1.0250 h4        1 FU7      0.125000
     55 H211       -1.4960    0.7670   -3.5040 h1        1 FU7      0.122000
@<TRIPOS>BOND
     1    1    6 1   
     2    2   33 1   
     3    3   21 1   
     4    3   22 1   
     5    3   26 1   
     6    4   26 1   
     7    5   17 1   
     8    6    9 1   
     9    7   33 1   
    10    8   24 1   
    11    9   27 1   
    12   10   13 1   
    13   11   13 1   
    14   11   35 1   
    15   12   25 1   
    16   13   15 1   
    17   14   24 1   
    18   14   36 1   
    19   14   37 1   
    20   15   17 1   
    21   15   38 1   
    22   16   26 1   
    23   16   32 1   
    24   16   39 1   
    25   18   20 1   
    26   18   29 1   
    27   19   23 1   
    28   19   25 1   
    29   20   31 1   
    30   21   40 1   
    31   21   54 1   
    32   22   23 1   
    33   22   41 1   
    34   22   55 1   
    35   27   28 1   
    36   27   42 1   
    37   27   43 1   
    38   28   44 1   
    39   28   45 1   
    40   29   30 1   
    41   30   31 1   
    42   32   33 1   
    43   32   49 1   
    44   32   50 1   
    45   33   34 1   
    46   34   51 1   
    47   34   52 1   
    48   34   53 1   
@<TRIPOS>SUBSTRUCTURE
     1 FU7         1 TEMP              0 ****  ****    0 ROOT
