@<TRIPOS>MOLECULE
FU7
   56    56     1     0     0
SMALL
bcc


@<TRIPOS>ATOM
      1 C1         -1.3460   -0.8680    1.3830 c2        1 FU7     -0.067000
      2 F1          2.2910   -3.1330   -6.7120 f         1 FU7     -0.156500
      3 N1          0.9470   -2.3850   -2.2460 n         1 FU7     -0.283000
      4 O1          2.5750   -3.9280   -1.6020 o         1 FU7     -0.262000
      5 Cl1        -2.9680   -2.8180    0.4810 cl        1 FU7     -0.045000
      6 C2         -0.4200   -0.6840    2.3530 c2        1 FU7     -0.122000
      7 F2          3.8250   -4.5330   -6.1690 f         1 FU7     -0.156500
      8 N2         -0.9050    0.7440   -2.5900 n2        1 FU7     -0.198000
      9 O2          3.4340   -0.5420   -4.5460 oh        1 FU7     -0.388000
     10 Cl2        -2.0800   -2.3630    5.5860 cl        1 FU7      0.047000
     11 C3         -0.6260   -1.1900    3.6870 c2        1 FU7     -0.040000
     12 N3         -1.8240    0.8380   -0.2770 n2        1 FU7     -0.219000
     13 C4         -1.7880   -1.8360    4.0060 c2        1 FU7     -0.151000
     14 C5         -2.7630   -2.1690    3.0170 c1        1 FU7      0.005000
     15 N5          2.6600   -3.2580   -3.8280 ny        1 FU7     -0.102000
     16 C6         -2.6260   -1.5730    1.6850 c3        1 FU7     -0.098000
     17 N6          5.9280   -0.4480   -7.1840 n7        1 FU7      0.021000
     18 C7         -0.3810   -0.9650   -0.9240 c2        1 FU7     -0.289000
     19 N7          5.5810    0.0890   -8.3610 n2        1 FU7     -0.366000
     20 C8          0.3940   -2.2390   -0.8750 c3        1 FU7      0.046000
     21 C9          0.5710   -1.2570   -3.1070 c3        1 FU7     -0.016000
     22 C10        -0.3010   -0.3800   -2.2220 c2        1 FU7      0.045000
     23 C11        -1.6730    1.3440   -1.5670 c2        1 FU7      0.204000
     24 C12        -1.1760   -0.3090    0.0270 c2        1 FU7      0.148000
     25 C14         3.8120   -0.1840   -5.8730 c3        1 FU7     -0.036000
     26 C15         5.2180   -0.5910   -6.1040 c1        1 FU7     -0.203000
     27 C16         5.8190   -2.6680   -3.6110 c1        1 FU7     -0.242000
     28 C17         5.8830   -3.4740   -2.7270 c1        1 FU7     -0.242000
     29 C18         5.2840    0.5670   -9.4100 c1        1 FU7      0.224000
     30 C19         1.9710   -4.3080   -4.6160 c3        1 FU7     -0.192000
     31 C20         2.4570   -4.3660   -6.1090 c3        1 FU7      0.263000
     32 C21         1.6860   -5.4860   -6.8200 c3        1 FU7     -0.259000
     33 H3          0.5080   -0.1190    2.1650 ha        1 FU7      0.152000
     34 HN4        -2.2630    2.8930   -2.7880 hn        1 FU7      0.259500
     35 HN4A       -2.8910    2.9590   -1.1940 hn        1 FU7      0.259500
     36 H5         -3.4790   -0.8240    1.5990 h1        1 FU7      0.204000
     37 HN5         3.6630   -3.5050   -3.7110 hn        1 FU7      0.282500
     38 H8         -0.2680   -3.1280   -0.6700 h1        1 FU7      0.133500
     39 H9          1.4660   -0.6750   -3.4710 h1        1 FU7      0.136000
     40 H14         0.1780   -1.0260    4.4250 ha        1 FU7      0.164000
     41 H14A        4.1500   -0.2660   -3.9570 ho        1 FU7      0.236000
     42 H15         3.6620    0.9250   -6.0020 h1        1 FU7      0.121500
     43 H15A        3.0870   -0.7420   -6.5320 h1        1 FU7      0.121500
     44 H16         5.8090   -1.9460   -4.4040 ha        1 FU7      0.246000
     45 H17         6.8890   -0.7730   -7.1720 hn        1 FU7      0.292000
     46 H18         5.9580   -4.1820   -1.9360 ha        1 FU7      0.246000
     47 H19         2.1660   -5.3090   -4.1350 hx        1 FU7      0.168500
     48 H19A        0.8640   -4.1000   -4.6190 hx        1 FU7      0.168500
     49 H21         0.5930   -5.2700   -6.7870 hc        1 FU7      0.128000
     50 H21A        1.9010   -6.4620   -6.3240 hc        1 FU7      0.128000
     51 H21B        2.0160   -5.5390   -7.8870 hc        1 FU7      0.128000
     52 H20         1.2240   -2.2140   -0.1150 h1        1 FU7      0.133500
     53 H211       -0.0180   -1.6430   -3.9860 h1        1 FU7      0.136000
     54 N4         -2.3110    2.5230   -1.8690 nv        1 FU7     -0.331000
     55 H52         2.6120   -2.3550   -4.3300 hn        1 FU7      0.282500
     56 C13         2.0500   -3.1700   -2.4270 c2        1 FU7      0.334000
@<TRIPOS>BOND
     1    1    6 1   
     2    1   16 1   
     3    1   24 1   
     4    2   31 1   
     5    3   20 1   
     6    3   21 1   
     7    3   56 1   
     8    4   56 1   
     9    5   16 1   
    10    6   11 1   
    11    6   33 1   
    12    7   31 1   
    13    8   22 1   
    14    8   23 1   
    15    9   25 1   
    16    9   41 1   
    17   10   13 1   
    18   11   13 1   
    19   11   40 1   
    20   12   23 1   
    21   12   24 1   
    22   13   14 1   
    23   14   16 1   
    24   15   30 1   
    25   15   37 1   
    26   15   55 1   
    27   15   56 1   
    28   16   36 1   
    29   17   19 1   
    30   17   26 1   
    31   17   45 1   
    32   18   20 1   
    33   18   22 1   
    34   18   24 1   
    35   19   29 1   
    36   20   38 1   
    37   20   52 1   
    38   21   22 1   
    39   21   39 1   
    40   21   53 1   
    41   23   54 1   
    42   25   26 1   
    43   25   42 1   
    44   25   43 1   
    45   27   28 1   
    46   27   44 1   
    47   28   46 1   
    48   30   31 1   
    49   30   47 1   
    50   30   48 1   
    51   31   32 1   
    52   32   49 1   
    53   32   50 1   
    54   32   51 1   
    55   34   54 1   
    56   35   54 1   
@<TRIPOS>SUBSTRUCTURE
     1 FU7         1 TEMP              0 ****  ****    0 ROOT
