@<TRIPOS>MOLECULE
FU7
   57    55     1     0     0
SMALL
bcc


@<TRIPOS>ATOM
      1 C1        -34.0640  202.5510   82.7230 c2        1 FU7     -0.115000
      2 F1         75.4140 -443.5420 -193.1410 f         1 FU7     -0.117000
      3 N1        -30.9570  204.7970   80.2870 n2        1 FU7     -0.082000
      4 O1         77.1780 -446.3200 -189.6450 o         1 FU7     -0.148000
      5 CL1       -34.5620  202.3970   80.0740 cl        1 FU7     -0.013000
      6 C2        -33.6370  201.7190   83.7140 c2        1 FU7      0.082000
      7 F2         74.8290 -443.2570 -191.0890 f         1 FU7     -0.117000
      8 N2        -32.8510  206.6980   82.8190 n2        1 FU7     -0.116000
      9 O2        -32.6640  202.1500   84.6080 os        1 FU7     -0.209000
     10 CL2       -35.5230  198.2650   82.9960 cl        1 FU7      0.072000
     11 C3        -34.0720  200.3390   83.8070 c2        1 FU7     -0.071000
     12 N3        -34.2570  204.8050   83.5730 n2        1 FU7     -0.140000
     13 C4        -34.9680  199.8560   82.9000 c2        1 FU7     -0.136000
     14 C5        -35.4440  200.6390   81.7960 c1        1 FU7      0.032000
     15 N5         76.4280 -446.0520 -192.4080 n3        1 FU7     -0.097000
     16 C6        -35.0590  202.0540   81.7280 c3        1 FU7     -0.102000
     17 N6        -33.8540  204.6630   86.4990 n1        1 FU7     -0.127000
     18 C7        -32.6440  204.4520   81.8410 c2        1 FU7     -0.125000
     19 N7        -32.7890  199.2040   87.2620 n1        1 FU7     -0.127000
     20 C8        -31.7550  203.8980   80.7960 c2        1 FU7     -0.041000
     21 C9        -31.1890  206.0970   80.9200 c3        1 FU7     -0.099000
     22 C10       -32.2920  205.8570   81.9470 c2        1 FU7      0.004000
     23 C11       -33.8200  206.0930   83.6070 c2        1 FU7     -0.016000
     24 C12       -33.6440  203.9610   82.6830 c2        1 FU7      0.130000
     25 C14       -33.0780  202.2140   85.9780 c3        1 FU7      0.059000
     26 C15       -33.5210  203.5700   86.2840 c1        1 FU7     -0.095000
     27 C16       -31.2920  196.2890   88.5070 c2        1 FU7     -0.128000
     28 C17       -32.2840  197.1500   88.7450 c2        1 FU7     -0.126000
     29 C18       -32.5520  198.2750   87.9240 c1        1 FU7     -0.051000
     30 C19        76.2740 -445.1310 -191.5050 c2        1 FU7      0.017000
     31 C20        75.9000 -443.6450 -191.8580 c3        1 FU7      0.302000
     32 C21        77.1640 -442.8020 -191.6200 c3        1 FU7     -0.273000
     33 H3        -33.6420  199.7250   84.6200 ha        1 FU7      0.190000
     34 HN4       -35.2650  206.4990   85.0530 hn        1 FU7      0.280000
     35 HN4A      -33.7450  207.1150   85.3980 hn        1 FU7      0.280000
     36 H5        -36.0320  202.6250   81.8770 h1        1 FU7      0.193000
     37 HN5        76.7210 -446.9890 -192.1600 hn        1 FU7      0.302000
     38 H8        -31.7700  202.8450   80.4800 h4        1 FU7      0.214000
     39 H9        -31.5060  206.8490   80.1450 h1        1 FU7      0.174500
     40 H14        75.9490 -442.6040 -188.9500 ha        1 FU7      0.001000
     41 H14A       75.5040 -442.3730 -188.4940 ha        1 FU7      0.001000
     42 H15       -32.1420  201.9650   86.5580 h1        1 FU7      0.161500
     43 H15A      -33.8880  201.4720   86.2130 h1        1 FU7      0.161500
     44 H16       -30.6020  196.3810   87.6570 ha        1 FU7      0.135000
     45 H17       -31.1140  195.4260   89.1650 ha        1 FU7      0.135000
     46 H18       -32.9680  197.0380   89.6060 ha        1 FU7      0.162000
     47 H19        73.8700 -444.1140 -188.9840 ha        1 FU7      0.001000
     48 H19A       73.3420 -443.6970 -188.9100 ha        1 FU7      0.001000
     49 H21        77.4880 -442.8950 -190.5550 hc        1 FU7      0.141667
     50 H21A       77.9780 -443.1260 -192.3090 hc        1 FU7      0.141667
     51 H21B       76.9200 -441.7280 -191.8290 hc        1 FU7      0.141667
     52 H20        75.8920 -444.6960 -189.3590 h4        1 FU7      0.214000
     53 H211      -30.2420  206.4580   81.4090 h1        1 FU7      0.174500
     54 N4        -34.4380  206.9620   84.6510 n4        1 FU7     -0.001000
     55 H52        76.2590 -445.8720 -193.3890 hn        1 FU7      0.302000
     56 H43       -34.7050  207.8630   84.2370 hn        1 FU7      0.280000
     57 C13        76.4620 -445.4030 -190.0070 c2        1 FU7      0.186000
@<TRIPOS>BOND
     1    1    6 1   
     2    1   16 1   
     3    1   24 1   
     4    2   31 1   
     5    3   20 1   
     6    3   21 1   
     7    4   57 1   
     8    5   16 1   
     9    6    9 1   
    10    6   11 1   
    11    7   31 1   
    12    8   22 1   
    13    8   23 1   
    14    9   25 1   
    15   10   13 1   
    16   11   13 1   
    17   11   33 1   
    18   12   23 1   
    19   12   24 1   
    20   13   14 1   
    21   14   16 1   
    22   15   30 1   
    23   15   37 1   
    24   15   55 1   
    25   16   36 1   
    26   17   26 1   
    27   18   20 1   
    28   18   22 1   
    29   18   24 1   
    30   19   29 1   
    31   20   38 1   
    32   21   22 1   
    33   21   39 1   
    34   21   53 1   
    35   23   54 1   
    36   25   26 1   
    37   25   42 1   
    38   25   43 1   
    39   27   28 1   
    40   27   44 1   
    41   27   45 1   
    42   28   29 1   
    43   28   46 1   
    44   30   31 1   
    45   30   57 1   
    46   31   32 1   
    47   32   49 1   
    48   32   50 1   
    49   32   51 1   
    50   34   54 1   
    51   35   54 1   
    52   40   41 1   
    53   47   48 1   
    54   52   57 1   
    55   54   56 1   
@<TRIPOS>SUBSTRUCTURE
     1 FU7         1 TEMP              0 ****  ****    0 ROOT
