@<TRIPOS>MOLECULE
FU9
   47    47     1     0     0
SMALL
bcc


@<TRIPOS>ATOM
      1 N1          0.9080   -0.0090   -0.5390 n2        1 FU9     -0.332000
      2 C2          1.8500    0.9230   -0.0510 c2        1 FU9      0.215000
      3 N3          1.8590    1.4570    1.1450 n2        1 FU9     -0.185000
      4 C4          0.9580    1.1370    2.1690 c2        1 FU9     -0.128000
      5 C5         -0.4430    1.1690    2.0060 c2        1 FU9     -0.079000
      6 C6          0.1550   -0.8280   -0.9390 c1        1 FU9      0.145000
      7 OAA         0.4990   -1.0210    7.7960 o         1 FU9     -0.557500
      8 OAB         0.1630   -1.9970    5.8180 o         1 FU9     -0.557500
      9 FAC         7.7650    1.1210    5.0950 f         1 FU9     -0.181333
     10 FAD         7.8090    0.4300    7.1360 f         1 FU9     -0.181333
     11 FAE         6.9750    2.3660    6.6820 f         1 FU9     -0.181333
     12 CAF         4.0400   -1.3530    6.5070 c2        1 FU9     -0.257000
     13 CAG         3.1070   -0.8080    5.6750 c2        1 FU9      0.035000
     14 CAH         5.3020   -0.7370    6.7060 c2        1 FU9      0.081000
     15 CAI        -2.3420   -0.4290    7.6280 c2        1 FU9     -0.418000
     16 CAJ        -3.6400   -0.2590    7.6450 c1        1 FU9      0.111000
     17 CAL         4.7450    1.0560    5.1450 c1        1 FU9     -0.121000
     18 CAM        -1.6250    0.5150    5.4940 c2        1 FU9     -0.194000
     19 CAN         1.7600   -1.9380   -3.8170 c3        1 FU9     -0.140000
     20 CAO         2.7940   -0.9680   -3.4060 c2        1 FU9     -0.464000
     21 NAQ         0.6150    0.7220    4.5680 n2        1 FU9     -0.179000
     22 NAT         2.8980    1.2310   -0.9800 n3        1 FU9     -0.322000
     23 CAV         3.3670    0.5260    5.0430 c3        1 FU9     -0.046000
     24 CAW        -1.3920   -0.3090    6.5330 c2        1 FU9      0.022000
     25 CAX         5.6210    0.4340    6.0460 c2        1 FU9     -0.302000
     26 CAZ         1.4590    0.8700    3.5050 c2        1 FU9      0.142000
     27 CBA        -0.7180    0.7280    4.3660 c2        1 FU9      0.127000
     28 CBB        -1.2840    0.9620    3.0860 c2        1 FU9     -0.228000
     29 CBE         3.0460    0.2110   -3.9160 c1        1 FU9      0.137000
     30 CBF         6.9890    1.0700    6.2270 c3        1 FU9      0.487000
     31 H6         -0.8770    1.3770    1.0160 ha        1 FU9      0.122000
     32 HAF         3.8150   -2.2870    7.0470 ha        1 FU9      0.161000
     33 HAG         2.1120   -1.2930    5.5290 ha        1 FU9      0.240000
     34 HAH         6.0270   -1.2240    7.3830 ha        1 FU9      0.137000
     35 HAI        -1.8290   -0.7330    8.5770 ha        1 FU9      0.227000
     36 HAJ        -2.3740    0.9660    2.9630 ha        1 FU9      0.138000
     37 HAL         2.8310    1.2450    5.7860 h1        1 FU9      0.193000
     38 HAM        -2.5600    1.0960    5.4260 ha        1 FU9      0.111000
     39 HAN         0.9850   -2.0220   -3.0100 hc        1 FU9      0.087667
     40 HANA        1.2560   -1.6230   -4.7630 hc        1 FU9      0.087667
     41 HAO         2.2180   -2.9450   -3.9780 hc        1 FU9      0.087667
     42 HAOA        3.4030   -1.2830   -2.5280 ha        1 FU9      0.205000
     43 HNAS        3.4210    1.2510    3.1310 hn        1 FU9      0.232000
     44 HNAT        3.5300    1.9220   -0.6270 hn        1 FU9      0.196000
     45 HBE         2.5590    1.4650   -1.8930 hn        1 FU9      0.196000
     46 NAS         2.8390    0.6600    3.6950 nh        1 FU9     -0.229000
     47 CAU        -0.1460   -1.1690    6.7190 c2        1 FU9      0.361000
@<TRIPOS>BOND
     1    1    2 1   
     2    1    6 1   
     3    2    3 1   
     4    2   22 1   
     5    3    4 1   
     6    4    5 1   
     7    4   26 1   
     8    5   28 1   
     9    5   31 1   
    10    7   47 1   
    11    8   47 1   
    12    9   30 1   
    13   10   30 1   
    14   11   30 1   
    15   12   13 1   
    16   12   14 1   
    17   12   32 1   
    18   13   23 1   
    19   13   33 1   
    20   14   25 1   
    21   14   34 1   
    22   15   16 1   
    23   15   24 1   
    24   15   35 1   
    25   17   23 1   
    26   17   25 1   
    27   18   24 1   
    28   18   27 1   
    29   18   38 1   
    30   19   20 1   
    31   19   39 1   
    32   19   40 1   
    33   19   41 1   
    34   20   29 1   
    35   20   42 1   
    36   21   26 1   
    37   21   27 1   
    38   22   44 1   
    39   22   45 1   
    40   23   37 1   
    41   23   46 1   
    42   24   47 1   
    43   25   30 1   
    44   26   46 1   
    45   27   28 1   
    46   28   36 1   
    47   43   46 1   
@<TRIPOS>SUBSTRUCTURE
     1 FU9         1 TEMP              0 ****  ****    0 ROOT
