@<TRIPOS>MOLECULE
FU9
   47    65     1     0     0
SMALL
bcc


@<TRIPOS>ATOM
      1 N1          0.0000    0.0000    0.0000 n2        1 FU9     -0.098000
      2 C2          1.3290    0.0000    0.0000 c2        1 FU9     -0.036000
      3 N3          2.0410    0.0000    1.1140 n2        1 FU9     -0.087000
      4 C4          1.4300   -0.0010    2.2960 c2        1 FU9     -0.140000
      5 C5          0.0170   -0.0020    2.3330 c2        1 FU9      0.165000
      6 C6         -0.6890   -0.0010    1.1270 c2        1 FU9      0.017000
      7 OAA        -3.8130   -0.0110    7.5750 o         1 FU9     -0.556500
      8 OAB        -1.7890   -0.0110    8.4880 o         1 FU9     -0.556500
      9 FAC         8.1210    1.2220    5.0360 f         1 FU9     -0.141000
     10 FAD         8.2960    0.3710    7.1490 f         1 FU9     -0.141000
     11 FAE         7.2700    2.3840    6.8100 f         1 FU9     -0.141000
     12 CAF         4.4330   -1.0020    6.9820 c3        1 FU9     -0.284000
     13 CAG         3.7340   -0.8870    5.7970 c3        1 FU9     -0.173000
     14 CAH         5.6460   -0.3540    7.1370 c2        1 FU9     -0.241000
     15 CAI        -2.6090   -0.0070    4.9940 c2        1 FU9     -0.031000
     16 CAJ        -2.0270   -0.0050    3.7620 c2        1 FU9     -0.129000
     17 CAL         5.4680    0.5290    4.9180 c2        1 FU9     -0.214000
     18 CAM        -0.4360   -0.0060    6.0620 c2        1 FU9     -0.123000
     19 CAN         1.9180   -0.5720   -3.7080 DU        1 FU9      0.232000
     20 CAO         1.7060    0.9380   -3.5790 cx        1 FU9      0.067000
     21 NAQ         1.5190   -0.0040    4.7070 n2        1 FU9     -0.082000
     22 NAT         1.9940    0.0010   -1.2120 ny        1 FU9      0.159000
     23 CAV         4.2500   -0.1190    4.7590 c3        1 FU9     -0.041000
     24 CAW        -1.8210   -0.0080    6.1540 DU        1 FU9      0.126000
     25 CAX         6.1650    0.4050    6.1050 c2        1 FU9     -0.211000
     26 CAZ         2.1620   -0.0020    3.5650 c2        1 FU9     -0.123000
     27 CBA         0.1780   -0.0040    4.8020 c3        1 FU9     -0.116000
     28 CBB        -0.6350   -0.0030    3.6440 c3        1 FU9      0.121000
     29 CBE         1.2330    0.0010   -2.4650 DU        1 FU9     -0.552000
     30 CBF         7.4860    1.1080    6.2780 c3        1 FU9      0.452000
     31 H6          0.1260    0.1250    1.8290 h4        1 FU9     -0.003000
     32 HAF         3.3680   -0.8180    7.0610 DU        1 FU9      0.332000
     33 HAG         2.9130   -0.7910    5.0960 hc        1 FU9      0.266000
     34 HAH         4.8180   -0.9640    7.4770 DU        1 FU9      0.326000
     35 HAI        -1.5700   -0.2850    5.1190 DU        1 FU9      0.008000
     36 HAJ        -1.0690   -0.0570    4.2650 DU        1 FU9     -0.071000
     37 HAL         4.3870    0.4660    4.9370 DU        1 FU9      0.154000
     38 HAM        -1.0530   -0.0060    5.1720 DU        1 FU9      0.068000
     39 HAN         2.4020   -0.3710   -2.7600 DU        1 FU9     -0.052500
     40 HANA        1.7430   -0.5150   -2.6400 DU        1 FU9     -0.052500
     41 HAO         2.3060    0.0360   -3.5720 DU        1 FU9     -0.015500
     42 HAOA        1.4900   -0.0430   -3.9850 DU        1 FU9     -0.015500
     43 HNAS        3.2290    0.1630    2.6230 hn        1 FU9      0.220000
     44 HNAT        2.2180    0.5650   -2.0080 DU        1 FU9      0.197000
     45 HBE         1.4880    0.2240   -1.4360 hn        1 FU9      0.087000
     46 NAS         3.5450   -0.0010    3.5580 n7        1 FU9      0.036000
     47 CAU        -2.4680   -0.0100    7.4810 c2        1 FU9      0.397000
@<TRIPOS>BOND
     1    1    2 1   
     2    1    6 1   
     3    2    3 1   
     4    2   22 1   
     5    3    4 1   
     6    4    5 1   
     7    4   26 1   
     8    5    6 1   
     9    5   28 1   
    10    6   31 1   
    11    7   47 1   
    12    8   47 1   
    13    9   30 1   
    14   10   30 1   
    15   11   30 1   
    16   12   13 1   
    17   12   14 1   
    18   12   32 1   
    19   12   34 1   
    20   13   23 1   
    21   13   32 1   
    22   13   33 1   
    23   14   25 1   
    24   14   34 1   
    25   15   16 1   
    26   15   24 1   
    27   15   35 1   
    28   16   28 1   
    29   16   36 1   
    30   17   23 1   
    31   17   25 1   
    32   17   37 1   
    33   18   24 1   
    34   18   27 1   
    35   18   38 1   
    36   19   20 1   
    37   19   29 1   
    38   19   39 1   
    39   19   40 1   
    40   19   41 1   
    41   19   42 1   
    42   20   29 1   
    43   20   41 1   
    44   20   42 1   
    45   21   26 1   
    46   21   27 1   
    47   22   29 1   
    48   22   44 1   
    49   22   45 1   
    50   23   37 1   
    51   23   46 1   
    52   24   35 1   
    53   24   38 1   
    54   24   47 1   
    55   25   30 1   
    56   26   46 1   
    57   27   28 1   
    58   27   38 1   
    59   28   36 1   
    60   29   39 1   
    61   29   40 1   
    62   29   44 1   
    63   35   38 1   
    64   39   40 1   
    65   43   46 1   
@<TRIPOS>SUBSTRUCTURE
     1 FU9         1 TEMP              0 ****  ****    0 ROOT
