@<TRIPOS>MOLECULE
FUB
   20    20     1     0     0
SMALL
bcc


@<TRIPOS>ATOM
      1 O5'        -2.7840   -0.4900   -0.8880 oh        1 FUB     -0.590800
      2 C5'        -1.3760   -0.4900   -0.8880 c3        1 FUB      0.117400
      3 C4'        -0.8800   -0.4900    0.5130 c3        1 FUB      0.139100
      4 O4'        -0.9990    0.6940    1.0280 os        1 FUB     -0.435600
      5 C3'         0.7330   -0.8520    0.5460 c3        1 FUB      0.084100
      6 O3'         1.1200   -1.3260    1.8950 oh        1 FUB     -0.584800
      7 C2'         1.2190    0.2800   -0.0260 c3        1 FUB      0.095100
      8 O2'         1.3390    0.1020   -1.5060 oh        1 FUB     -0.581800
      9 C1'         0.3240    1.3670    0.7620 c3        1 FUB      0.296900
     10 O1'         0.1980    2.2450   -0.1530 oh        1 FUB     -0.640800
     11 HO5'       -3.0800   -0.7100   -1.6960 ho        1 FUB      0.402000
     12 H5'        -1.0500   -1.2870   -1.3480 h1        1 FUB      0.034200
     13 H5'A       -1.0500    0.3070   -1.3480 h1        1 FUB      0.034200
     14 H4'        -1.3800   -1.1380    1.0450 h1        1 FUB      0.115700
     15 H3'         0.8890   -1.5870   -0.0770 h1        1 FUB      0.058700
     16 HO3'        1.5420   -2.1040    1.8260 ho        1 FUB      0.412000
     17 H2'         2.1310    0.3940    0.3020 h1        1 FUB      0.099700
     18 HO2'        2.1590    0.3230   -1.7650 ho        1 FUB      0.426000
     19 H1'         0.7580    1.7080    1.5680 h2        1 FUB      0.085700
     20 HO1'        0.1880    3.0540    0.2120 ho        1 FUB      0.434000
@<TRIPOS>BOND
     1    1    2 1   
     2    1   11 1   
     3    2    3 1   
     4    2   12 1   
     5    2   13 1   
     6    3    4 1   
     7    3    5 1   
     8    3   14 1   
     9    4    9 1   
    10    5    6 1   
    11    5    7 1   
    12    5   15 1   
    13    6   16 1   
    14    7    8 1   
    15    7    9 1   
    16    7   17 1   
    17    8   18 1   
    18    9   10 1   
    19    9   19 1   
    20   10   20 1   
@<TRIPOS>SUBSTRUCTURE
     1 FUB         1 TEMP              0 ****  ****    0 ROOT
