@<TRIPOS>MOLECULE
FUB
   20    20     1     0     0
SMALL
bcc


@<TRIPOS>ATOM
      1 O5'        -3.0380   -0.7930    0.0630 oh        1 FUB     -0.590800
      2 C5'        -1.8470   -0.2970    0.6510 c3        1 FUB      0.117400
      3 C4'        -0.9820    0.2460   -0.4870 c3        1 FUB      0.139100
      4 O4'        -0.2370   -0.8360   -1.0720 os        1 FUB     -0.435600
      5 C3'         0.0310    1.2920    0.0220 c3        1 FUB      0.084100
      6 O3'        -0.2020    2.4860   -0.6990 oh        1 FUB     -0.584800
      7 C2'         1.4330    0.7060   -0.2870 c3        1 FUB      0.095100
      8 O2'         2.2980    0.7910    0.8160 oh        1 FUB     -0.581800
      9 C1'         1.1420   -0.7370   -0.7550 c3        1 FUB      0.296900
     10 O1'         1.3400   -1.6150    0.3300 oh        1 FUB     -0.640800
     11 HO5'       -3.4950   -1.2960    0.7470 ho        1 FUB      0.402000
     12 H5'        -2.1050    0.5270    1.3690 h1        1 FUB      0.034200
     13 H5'A       -1.2990   -1.1140    1.1920 h1        1 FUB      0.034200
     14 H4'        -1.6270    0.6550   -1.3130 h1        1 FUB      0.115700
     15 H3'        -0.0750    1.4800    1.1240 h1        1 FUB      0.058700
     16 HO3'        0.4340    3.1350   -0.3720 ho        1 FUB      0.412000
     17 H2'         1.9360    1.2910   -1.1040 h1        1 FUB      0.099700
     18 HO2'        2.0410    0.1120    1.4560 ho        1 FUB      0.426000
     19 H1'         1.7220   -1.0580   -1.6590 h2        1 FUB      0.085700
     20 HO1'        0.8640   -2.4320    0.1310 ho        1 FUB      0.434000
@<TRIPOS>BOND
     1    1    2 1   
     2    1   11 1   
     3    2    3 1   
     4    2   12 1   
     5    2   13 1   
     6    3    4 1   
     7    3    5 1   
     8    3   14 1   
     9    4    9 1   
    10    5    6 1   
    11    5    7 1   
    12    5   15 1   
    13    6   16 1   
    14    7    8 1   
    15    7    9 1   
    16    7   17 1   
    17    8   18 1   
    18    9   10 1   
    19    9   19 1   
    20   10   20 1   
@<TRIPOS>SUBSTRUCTURE
     1 FUB         1 TEMP              0 ****  ****    0 ROOT
