@<TRIPOS>MOLECULE
FUC
   23    23     1     0     0
SMALL
bcc


@<TRIPOS>ATOM
      1 C1          1.4140    0.6410   -0.3880 c3        1 FUC      0.299900
      2 C2          0.1510    0.5590   -1.2670 c3        1 FUC      0.104100
      3 C3         -0.7320   -0.6160   -0.8160 c3        1 FUC      0.122100
      4 C4         -1.0070   -0.4810    0.6940 c3        1 FUC      0.080100
      5 C5          0.3280   -0.4480    1.4500 c3        1 FUC      0.110100
      6 C6          0.1510   -0.2490    2.9430 c3        1 FUC     -0.100100
      7 O1          2.2010   -0.4970   -0.6550 oh        1 FUC     -0.635800
      8 O2          0.5100    0.4690   -2.6260 oh        1 FUC     -0.575800
      9 O3         -1.9340   -0.6830   -1.5460 oh        1 FUC     -0.578800
     10 O4         -1.7800    0.7000    0.8480 oh        1 FUC     -0.603800
     11 O5          1.1580    0.6290    1.0010 os        1 FUC     -0.440600
     12 H1          1.9780    1.5990   -0.5680 h2        1 FUC      0.085700
     13 H2         -0.4210    1.5250   -1.1750 h1        1 FUC      0.102700
     14 H3         -0.2120   -1.5940   -1.0200 h1        1 FUC      0.091700
     15 H4         -1.6150   -1.3600    1.0490 h1        1 FUC      0.058700
     16 H5          0.8650   -1.4180    1.2440 h1        1 FUC      0.059700
     17 H61         1.1170   -0.4420    3.4680 hc        1 FUC      0.050700
     18 H62        -0.1610    0.7990    3.1680 hc        1 FUC      0.050700
     19 H63        -0.6230   -0.9570    3.3240 hc        1 FUC      0.050700
     20 HO1         3.0080   -0.4230   -0.1300 ho        1 FUC      0.422000
     21 HO2         0.9650   -0.3760   -2.7480 ho        1 FUC      0.416000
     22 HO3        -2.4110    0.1440   -1.3920 ho        1 FUC      0.418000
     23 HO4        -1.7790    0.9240    1.7860 ho        1 FUC      0.414000
@<TRIPOS>BOND
     1    1    2 1   
     2    1    7 1   
     3    1   11 1   
     4    1   12 1   
     5    2    3 1   
     6    2    8 1   
     7    2   13 1   
     8    3    4 1   
     9    3    9 1   
    10    3   14 1   
    11    4    5 1   
    12    4   10 1   
    13    4   15 1   
    14    5    6 1   
    15    5   11 1   
    16    5   16 1   
    17    6   17 1   
    18    6   18 1   
    19    6   19 1   
    20    7   20 1   
    21    8   21 1   
    22    9   22 1   
    23   10   23 1   
@<TRIPOS>SUBSTRUCTURE
     1 FUC         1 TEMP              0 ****  ****    0 ROOT
