@<TRIPOS>MOLECULE
FUD
   24    23     1     0     0
SMALL
bcc


@<TRIPOS>ATOM
      1 C1          2.0900    0.8820   -1.1810 c3        1 FUD      0.031400
      2 C2          1.9810   -0.1110   -0.0550 c         1 FUD      0.510100
      3 C3          0.6830   -0.8880    0.0200 c3        1 FUD      0.018100
      4 C4         -0.4150   -0.0340    0.6950 c3        1 FUD      0.120100
      5 C5         -1.6180    0.1520   -0.2460 c3        1 FUD      0.114100
      6 C6         -2.6590    1.0630    0.4110 c3        1 FUD      0.093400
      7 O1          3.0280    1.9010   -0.9170 oh        1 FUD     -0.584800
      8 O2          2.8950   -0.2990    0.7530 o         1 FUD     -0.525100
      9 O3          0.8390   -2.1030    0.7240 oh        1 FUD     -0.589800
     10 O4         -0.8320   -0.6330    1.9040 oh        1 FUD     -0.589800
     11 O5         -1.1240    0.7280   -1.4460 oh        1 FUD     -0.615800
     12 O6         -3.7410    1.1460   -0.5040 oh        1 FUD     -0.615800
     13 H11         2.3720    0.3260   -2.1180 h1        1 FUD      0.085200
     14 H12         1.1070    1.4100   -1.3410 h1        1 FUD      0.085200
     15 H3          0.3630   -1.1920   -1.0180 h1        1 FUD      0.111700
     16 H4         -0.0130    0.9730    0.9990 h1        1 FUD      0.093700
     17 H5         -2.0860   -0.8450   -0.4790 h1        1 FUD      0.055700
     18 H61        -2.9930    0.6160    1.3840 h1        1 FUD      0.047700
     19 H62        -2.2280    2.0840    0.5890 h1        1 FUD      0.047700
     20 HO1         3.8240    1.4810   -0.5600 ho        1 FUD      0.416000
     21 HO3         1.3230   -1.9070    1.5410 ho        1 FUD      0.429000
     22 HO4        -1.0690   -1.5520    1.7120 ho        1 FUD      0.420000
     23 HO5        -1.8970    0.9950   -1.9620 ho        1 FUD      0.432000
     24 HO6        -4.4080    1.7100   -0.0970 ho        1 FUD      0.413000
@<TRIPOS>BOND
     1    1    2 1   
     2    1    7 1   
     3    1   13 1   
     4    1   14 1   
     5    2    3 1   
     6    2    8 2   
     7    3    4 1   
     8    3    9 1   
     9    3   15 1   
    10    4    5 1   
    11    4   10 1   
    12    4   16 1   
    13    5    6 1   
    14    5   11 1   
    15    5   17 1   
    16    6   12 1   
    17    6   18 1   
    18    6   19 1   
    19    7   20 1   
    20    9   21 1   
    21   10   22 1   
    22   11   23 1   
    23   12   24 1   
@<TRIPOS>SUBSTRUCTURE
     1 FUD         1 TEMP              0 ****  ****    0 ROOT
