@<TRIPOS>MOLECULE
FUD
   24    23     1     0     0
SMALL
bcc


@<TRIPOS>ATOM
      1 C1         -2.5890   -1.0520   -1.6240 c3        1 FUD      0.031400
      2 C2         -1.0870   -0.9740   -1.4630 c         1 FUD      0.510100
      3 C3         -0.4800   -0.8210   -0.0860 c3        1 FUD      0.018100
      4 C4          0.6440    0.1880   -0.1400 c3        1 FUD      0.120100
      5 C5          0.9230    0.7060    1.2520 c3        1 FUD      0.114100
      6 C6          2.1320    1.6140    1.2190 c3        1 FUD      0.093400
      7 O1         -2.8990   -1.5680   -2.8990 oh        1 FUD     -0.584800
      8 O2         -0.3670   -1.0360   -2.4400 o         1 FUD     -0.525100
      9 O3          0.0230   -2.0630    0.3450 oh        1 FUD     -0.589800
     10 O4          1.8020   -0.4280   -0.6530 oh        1 FUD     -0.589800
     11 O5         -0.1930    1.4280    1.7160 oh        1 FUD     -0.615800
     12 O6          2.3380    2.1690    2.4980 oh        1 FUD     -0.615800
     13 H11        -2.9610   -1.6400   -0.9340 h1        1 FUD      0.085200
     14 H12        -2.9740   -0.1560   -1.5320 h1        1 FUD      0.085200
     15 H3         -1.1660   -0.5120    0.5390 h1        1 FUD      0.111700
     16 H4          0.3870    0.9320   -0.7200 h1        1 FUD      0.093700
     17 H5          1.0970   -0.0460    1.8510 h1        1 FUD      0.055700
     18 H61         1.9830    2.3330    0.5700 h1        1 FUD      0.047700
     19 H62         2.9210    1.0960    0.9560 h1        1 FUD      0.047700
     20 HO1        -3.7820   -1.6420   -2.9820 ho        1 FUD      0.416000
     21 HO3        -0.5930   -2.4790    0.8330 ho        1 FUD      0.429000
     22 HO4         2.0720    0.0070   -1.3800 ho        1 FUD      0.420000
     23 HO5        -0.3040    1.2750    2.5850 ho        1 FUD      0.432000
     24 HO6         3.0740    2.6680    2.4900 ho        1 FUD      0.413000
@<TRIPOS>BOND
     1    1    2 1   
     2    1    7 1   
     3    1   13 1   
     4    1   14 1   
     5    2    3 1   
     6    2    8 2   
     7    3    4 1   
     8    3    9 1   
     9    3   15 1   
    10    4    5 1   
    11    4   10 1   
    12    4   16 1   
    13    5    6 1   
    14    5   11 1   
    15    5   17 1   
    16    6   12 1   
    17    6   18 1   
    18    6   19 1   
    19    7   20 1   
    20    9   21 1   
    21   10   22 1   
    22   11   23 1   
    23   12   24 1   
@<TRIPOS>SUBSTRUCTURE
     1 FUD         1 TEMP              0 ****  ****    0 ROOT
