@<TRIPOS>MOLECULE
FUF
   22    22     1     0     0
SMALL
bcc


@<TRIPOS>ATOM
      1 C1          1.3180   -0.4240   -0.6860 c3        1 FUF      0.326900
      2 C2         -0.0430    0.1010   -1.2180 c3        1 FUF      0.074600
      3 C3         -1.1790   -0.5420   -0.3920 c3        1 FUF      0.076100
      4 C4         -0.9650   -0.2530    1.1040 c3        1 FUF      0.120100
      5 C5          0.4420   -0.7160    1.5210 c3        1 FUF      0.159100
      6 C6          0.7670   -0.3060    2.9430 c3        1 FUF     -0.089100
      7 O1          2.4040    0.2570   -1.2440 oh        1 FUF     -0.576800
      8 F2         -0.1990   -0.1910   -2.5610 f         1 FUF     -0.230300
      9 O3         -2.4340    0.0210   -0.7320 oh        1 FUF     -0.602800
     10 O4         -1.0840    1.1300    1.3790 oh        1 FUF     -0.587800
     11 O5          1.4560   -0.1400    0.6970 os        1 FUF     -0.437600
     12 H1          1.4560   -1.5150   -0.9170 h2        1 FUF      0.083700
     13 H2         -0.0840    1.2200   -1.0830 h1        1 FUF      0.087700
     14 H3         -1.1990   -1.6520   -0.5740 h1        1 FUF      0.056700
     15 H4         -1.7350   -0.8200    1.6990 h1        1 FUF      0.057700
     16 H5          0.4820   -1.8380    1.4080 h1        1 FUF      0.041700
     17 H6C1        1.8090   -0.6130    3.2000 hc        1 FUF      0.055700
     18 H6C2        0.6800    0.8030    3.0500 hc        1 FUF      0.055700
     19 H6C3        0.0500   -0.7990    3.6410 hc        1 FUF      0.055700
     20 HA          2.4710    1.1220   -0.8130 ho        1 FUF      0.427000
     21 HB         -2.5180   -0.0420   -1.6930 ho        1 FUF      0.424000
     22 HC         -1.9390    1.4090    1.0210 ho        1 FUF      0.423000
@<TRIPOS>BOND
     1    1    2 1   
     2    1    7 1   
     3    1   11 1   
     4    1   12 1   
     5    2    3 1   
     6    2    8 1   
     7    2   13 1   
     8    3    4 1   
     9    3    9 1   
    10    3   14 1   
    11    4    5 1   
    12    4   10 1   
    13    4   15 1   
    14    5    6 1   
    15    5   11 1   
    16    5   16 1   
    17    6   17 1   
    18    6   18 1   
    19    6   19 1   
    20    7   20 1   
    21    9   21 1   
    22   10   22 1   
@<TRIPOS>SUBSTRUCTURE
     1 FUF         1 TEMP              0 ****  ****    0 ROOT
