@<TRIPOS>MOLECULE
FUF
   22    22     1     0     0
SMALL
bcc


@<TRIPOS>ATOM
      1 C1         -0.0030    0.2610    0.1470 c3        1 FUF      0.326900
      2 C2          1.5410    0.0990    0.1310 c3        1 FUF      0.074600
      3 C3          2.0390   -0.0330    1.5870 c3        1 FUF      0.076100
      4 C4          1.3180   -1.2000    2.2830 c3        1 FUF      0.120100
      5 C5         -0.2030   -1.0070    2.1660 c3        1 FUF      0.159100
      6 C6         -0.9620   -2.2110    2.6890 c3        1 FUF     -0.089100
      7 O1         -0.5570    0.1870   -1.1340 oh        1 FUF     -0.576800
      8 F2          2.1480    1.1750   -0.4920 f         1 FUF     -0.230300
      9 O3          3.4230   -0.3390    1.6230 oh        1 FUF     -0.602800
     10 O4          1.6630   -2.4380    1.6910 oh        1 FUF     -0.587800
     11 O5         -0.6130   -0.8360    0.8080 os        1 FUF     -0.437600
     12 H1         -0.3080    1.2510    0.5830 h2        1 FUF      0.083700
     13 H2          1.8070   -0.8430   -0.4310 h1        1 FUF      0.087700
     14 H3          1.8500    0.9270    2.1410 h1        1 FUF      0.056700
     15 H4          1.6090   -1.2120    3.3710 h1        1 FUF      0.057700
     16 H5         -0.4770   -0.0780    2.7430 h1        1 FUF      0.041700
     17 H6C1       -0.7400   -2.3410    3.7740 hc        1 FUF      0.055700
     18 H6C2       -0.6470   -3.1290    2.1370 hc        1 FUF      0.055700
     19 H6C3       -2.0580   -2.0610    2.5460 hc        1 FUF      0.055700
     20 HA         -0.5710   -0.7430   -1.4040 ho        1 FUF      0.427000
     21 HB          3.8700    0.3210    1.0770 ho        1 FUF      0.424000
     22 HC          2.6300   -2.4860    1.6960 ho        1 FUF      0.423000
@<TRIPOS>BOND
     1    1    2 1   
     2    1    7 1   
     3    1   11 1   
     4    1   12 1   
     5    2    3 1   
     6    2    8 1   
     7    2   13 1   
     8    3    4 1   
     9    3    9 1   
    10    3   14 1   
    11    4    5 1   
    12    4   10 1   
    13    4   15 1   
    14    5    6 1   
    15    5   11 1   
    16    5   16 1   
    17    6   17 1   
    18    6   18 1   
    19    6   19 1   
    20    7   20 1   
    21    9   21 1   
    22   10   22 1   
@<TRIPOS>SUBSTRUCTURE
     1 FUF         1 TEMP              0 ****  ****    0 ROOT
