@<TRIPOS>MOLECULE
FUF
   22    22     1     0     0
SMALL
bcc


@<TRIPOS>ATOM
      1 C1         -0.7930   -0.1360   -1.5670 c3        1 FUF      0.303900
      2 C2          0.7210   -0.1360   -1.5670 c3        1 FUF      0.123600
      3 C3          1.2850   -0.1360   -0.1940 c3        1 FUF      0.088100
      4 C4          0.7070    0.9520    0.6560 c3        1 FUF      0.093100
      5 C5         -0.8130    0.9490    0.6450 c3        1 FUF      0.113100
      6 C6         -1.3050   -0.2720    1.3740 c3        1 FUF     -0.128100
      7 O1         -1.2390   -1.3560   -1.1030 oh        1 FUF     -0.642800
      8 F2          1.1650    0.9810   -2.2290 f         1 FUF     -0.221300
      9 O3          1.0060   -1.4170    0.4290 oh        1 FUF     -0.595800
     10 O4          1.1610    0.7780    2.0040 oh        1 FUF     -0.582800
     11 O5         -1.3640    0.9450   -0.7120 os        1 FUF     -0.436600
     12 H1         -1.1080   -0.0130   -2.4830 h2        1 FUF      0.091700
     13 H2          1.0380   -0.9300   -2.0390 h1        1 FUF      0.088700
     14 H3          2.2520   -0.0150   -0.2490 h1        1 FUF      0.102700
     15 H4          1.0240    1.8140    0.3240 h1        1 FUF      0.093700
     16 H5         -1.1330    1.7450    1.1110 h1        1 FUF      0.087700
     17 H6C1       -0.7720   -1.0460    1.1090 hc        1 FUF      0.050033
     18 H6C2       -1.2190   -0.1320    2.3370 hc        1 FUF      0.050033
     19 H6C3       -2.2410   -0.4300    1.1510 hc        1 FUF      0.050033
     20 HA         -1.7740   -1.7250   -1.7080 ho        1 FUF      0.433000
     21 HB          1.7520   -1.8960    0.4680 ho        1 FUF      0.425000
     22 HC          1.6510    1.4780    2.2450 ho        1 FUF      0.416000
@<TRIPOS>BOND
     1    1    2 1   
     2    1    7 1   
     3    1   11 1   
     4    1   12 1   
     5    2    3 1   
     6    2    8 1   
     7    2   13 1   
     8    3    4 1   
     9    3    9 1   
    10    3   14 1   
    11    4    5 1   
    12    4   10 1   
    13    4   15 1   
    14    5    6 1   
    15    5   11 1   
    16    5   16 1   
    17    6   17 1   
    18    6   18 1   
    19    6   19 1   
    20    7   20 1   
    21    9   21 1   
    22   10   22 1   
@<TRIPOS>SUBSTRUCTURE
     1 FUF         1 TEMP              0 ****  ****    0 ROOT
