@<TRIPOS>MOLECULE
FUF
   22    22     1     0     0
SMALL
bcc


@<TRIPOS>ATOM
      1 C1          0.0030    0.2450    0.1220 c3        1 FUF      0.326900
      2 C2          1.5480    0.0830    0.1170 c3        1 FUF      0.074600
      3 C3          2.0380   -0.0270    1.5780 c3        1 FUF      0.076100
      4 C4          1.3120   -1.1830    2.2870 c3        1 FUF      0.120100
      5 C5         -0.2090   -0.9930    2.1580 c3        1 FUF      0.159100
      6 C6         -0.9700   -2.1880    2.6950 c3        1 FUF     -0.089100
      7 O1         -0.5440    0.1520   -1.1610 oh        1 FUF     -0.576800
      8 F2          2.1590    1.1490   -0.5170 f         1 FUF     -0.230300
      9 O3          3.4200   -0.3320    1.6270 oh        1 FUF     -0.602800
     10 O4          1.6600   -2.4310    1.7160 oh        1 FUF     -0.587800
     11 O5         -0.6110   -0.8420    0.7960 os        1 FUF     -0.437600
     12 H1         -0.3040    1.2410    0.5410 h2        1 FUF      0.083700
     13 H2          1.8160   -0.8680   -0.4280 h1        1 FUF      0.087700
     14 H3          1.8450    0.9410    2.1170 h1        1 FUF      0.056700
     15 H4          1.5970   -1.1800    3.3770 h1        1 FUF      0.057700
     16 H5         -0.4860   -0.0550    2.7200 h1        1 FUF      0.041700
     17 H6C1       -0.6520   -3.1150    2.1580 hc        1 FUF      0.055700
     18 H6C2       -0.7550   -2.3030    3.7830 hc        1 FUF      0.055700
     19 H6C3       -2.0660   -2.0410    2.5440 hc        1 FUF      0.055700
     20 HA         -0.5550   -0.7820   -1.4170 ho        1 FUF      0.427000
     21 HB          3.8720    0.3190    1.0740 ho        1 FUF      0.424000
     22 HC          2.6270   -2.4790    1.7270 ho        1 FUF      0.423000
@<TRIPOS>BOND
     1    1    2 1   
     2    1    7 1   
     3    1   11 1   
     4    1   12 1   
     5    2    3 1   
     6    2    8 1   
     7    2   13 1   
     8    3    4 1   
     9    3    9 1   
    10    3   14 1   
    11    4    5 1   
    12    4   10 1   
    13    4   15 1   
    14    5    6 1   
    15    5   11 1   
    16    5   16 1   
    17    6   17 1   
    18    6   18 1   
    19    6   19 1   
    20    7   20 1   
    21    9   21 1   
    22   10   22 1   
@<TRIPOS>SUBSTRUCTURE
     1 FUF         1 TEMP              0 ****  ****    0 ROOT
