@<TRIPOS>MOLECULE
FUG
   68    68     1     0     0
SMALL
bcc


@<TRIPOS>ATOM
      1 C5         -0.7030   -0.2130    0.0360 c3        1 FUG     -0.096400
      2 C4          0.7850   -0.5160    0.1570 c3        1 FUG      0.125100
      3 C3          1.2220   -0.4410    1.6320 c3        1 FUG      0.149100
      4 C2          0.9040    0.9350    2.2390 c3        1 FUG     -0.031700
      5 C1         -0.6140    1.1950    2.1280 c3        1 FUG      0.156800
      6 C6         -1.0400    1.1240    0.6540 c3        1 FUG     -0.105400
      7 O11        -1.2840    0.1810    2.8820 oh        1 FUG     -0.604800
      8 C11        -0.9920    2.5660    2.6800 c3        1 FUG     -0.125100
      9 C21         1.4280    1.0610    3.6550 cx        1 FUG      0.103800
     10 C22         1.7010    2.4350    4.1950 cx        1 FUG      0.058100
     11 C23         1.6550    2.7350    5.6650 c3        1 FUG     -0.043200
     12 C24         1.9350    4.1600    5.9610 c2        1 FUG     -0.167200
     13 C25         1.6150    4.7530    7.1220 c2        1 FUG     -0.129400
     14 C2A         1.1650   -0.0940    4.5700 c3        1 FUG     -0.084100
     15 O2A         2.7700    1.5940    3.7430 os        1 FUG     -0.387600
     16 C2B         0.9250    4.0340    8.2200 c3        1 FUG     -0.056400
     17 C2C         1.9330    6.1780    7.3820 c3        1 FUG     -0.056400
     18 O31         2.6290   -0.6410    1.7490 os        1 FUG     -0.390600
     19 C31         3.0090   -2.0050    1.7230 c3        1 FUG      0.112700
     20 O41         1.5480    0.4580   -0.5680 os        1 FUG     -0.428900
     21 C41         1.7390    0.2370   -1.9140 c         1 FUG      0.646300
     22 O4A         1.2220   -0.7730   -2.4090 o         1 FUG     -0.579000
     23 C42         2.5390    1.2780   -2.5440 ce        1 FUG     -0.284200
     24 C43         2.7630    1.2780   -3.8750 cf        1 FUG      0.019000
     25 C44         3.5360    2.2920   -4.5370 cf        1 FUG     -0.251100
     26 C45         3.7270    2.3140   -5.8440 c1        1 FUG      0.044100
     27 C46         3.9170    2.3580   -7.0820 c1        1 FUG     -0.149900
     28 C47         4.1030    2.3910   -8.3900 ce        1 FUG      0.011900
     29 C48         4.8540    3.3940   -9.0900 ce        1 FUG     -0.225000
     30 C49         5.0060    3.3850  -10.4270 cf        1 FUG     -0.109200
     31 C4A         5.7930    4.4390  -11.1820 c         1 FUG      0.884800
     32 O4B         5.8580    4.3030  -12.4370 o         1 FUG     -0.816300
     33 O4C         6.3300    5.3800  -10.5360 o         1 FUG     -0.816300
     34 H51        -0.9850   -0.2150   -1.0500 hc        1 FUG      0.059200
     35 H52        -1.2760   -1.0260    0.5530 hc        1 FUG      0.059200
     36 H4          1.0040   -1.5420   -0.2530 h1        1 FUG      0.073700
     37 H3          0.6580   -1.2380    2.1950 h1        1 FUG      0.057700
     38 H2          1.4240    1.7100    1.6040 hc        1 FUG      0.097700
     39 H61        -2.1440    1.3050    0.5800 hc        1 FUG      0.053200
     40 H62        -0.5140    1.9400    0.0920 hc        1 FUG      0.053200
     41 HOB        -2.2280    0.3070    2.7340 ho        1 FUG      0.398000
     42 H111       -2.0740    2.7680    2.4940 hc        1 FUG      0.044700
     43 H112       -0.8090    2.6000    3.7810 hc        1 FUG      0.044700
     44 H113       -0.3870    3.3590    2.1820 hc        1 FUG      0.044700
     45 H22         1.5210    3.3120    3.5390 h1        1 FUG      0.085700
     46 H231        2.4080    2.0970    6.2070 hc        1 FUG      0.061700
     47 H232        0.6370    2.4530    6.0530 hc        1 FUG      0.061700
     48 H24         2.4530    4.7240    5.1680 ha        1 FUG      0.129000
     49 H2A1        1.7450   -0.9830    4.2150 hc        1 FUG      0.052033
     50 H2A2        0.0760   -0.3420    4.5680 hc        1 FUG      0.052033
     51 H2A3        1.4870    0.1410    5.6130 hc        1 FUG      0.052033
     52 H2B1        0.9140    4.6400    9.1580 hc        1 FUG      0.039367
     53 H2B2       -0.1340    3.8130    7.9310 hc        1 FUG      0.039367
     54 H2B3        1.4340    3.0610    8.4330 hc        1 FUG      0.039367
     55 H2C1        2.6360    6.2620    8.2480 hc        1 FUG      0.039367
     56 H2C2        0.9990    6.7400    7.6360 hc        1 FUG      0.039367
     57 H2C3        2.4070    6.6650    6.4950 hc        1 FUG      0.039367
     58 H311        2.7210   -2.4850    0.7550 h1        1 FUG      0.032033
     59 H312        4.1230   -1.9790    1.8280 h1        1 FUG      0.032033
     60 H313        2.5470   -2.5620    2.5760 h1        1 FUG      0.032033
     61 H42         2.9420    2.0500   -1.8720 ha        1 FUG      0.152000
     62 H43         2.3370    0.4740   -4.5050 ha        1 FUG      0.138000
     63 H44         3.9830    3.0830   -3.9090 ha        1 FUG      0.140000
     64 H45         7.1530    6.2640  -12.5580 ha        1 FUG     -0.001500
     65 H46         7.5000    6.7320  -12.9130 ha        1 FUG     -0.001500
     66 H47         3.6460    1.5870   -9.0020 ha        1 FUG      0.125000
     67 H48         5.3200    4.2040   -8.4990 ha        1 FUG      0.161000
     68 H49         4.5620    2.5990  -11.0600 ha        1 FUG      0.103000
@<TRIPOS>BOND
     1    1    2 1   
     2    1    6 1   
     3    1   34 1   
     4    1   35 1   
     5    2    3 1   
     6    2   20 1   
     7    2   36 1   
     8    3    4 1   
     9    3   18 1   
    10    3   37 1   
    11    4    5 1   
    12    4    9 1   
    13    4   38 1   
    14    5    6 1   
    15    5    7 1   
    16    5    8 1   
    17    6   39 1   
    18    6   40 1   
    19    7   41 1   
    20    8   42 1   
    21    8   43 1   
    22    8   44 1   
    23    9   10 1   
    24    9   14 1   
    25    9   15 1   
    26   10   11 1   
    27   10   15 1   
    28   10   45 1   
    29   11   12 1   
    30   11   46 1   
    31   11   47 1   
    32   12   13 2   
    33   12   48 1   
    34   13   16 1   
    35   13   17 1   
    36   14   49 1   
    37   14   50 1   
    38   14   51 1   
    39   16   52 1   
    40   16   53 1   
    41   16   54 1   
    42   17   55 1   
    43   17   56 1   
    44   17   57 1   
    45   18   19 1   
    46   19   58 1   
    47   19   59 1   
    48   19   60 1   
    49   20   21 1   
    50   21   22 2   
    51   21   23 1   
    52   23   24 2   
    53   23   61 1   
    54   24   25 1   
    55   24   62 1   
    56   25   26 2   
    57   25   63 1   
    58   26   27 2   
    59   27   28 2   
    60   28   29 1   
    61   28   66 1   
    62   29   30 2   
    63   29   67 1   
    64   30   31 1   
    65   30   68 1   
    66   31   32 1   
    67   31   33 1   
    68   64   65 1   
@<TRIPOS>SUBSTRUCTURE
     1 FUG         1 TEMP              0 ****  ****    0 ROOT
