@<TRIPOS>MOLECULE
FUG
   68    70     1     0     0
SMALL
bcc


@<TRIPOS>ATOM
      1 C5         -0.5650   -0.3280   -0.1740 c3        1 FUG     -0.097400
      2 C4          0.9500   -0.4770   -0.2130 c3        1 FUG      0.125100
      3 C3          1.5330   -0.3600    1.2080 c3        1 FUG      0.150100
      4 C2          1.1380    0.9700    1.8680 c3        1 FUG     -0.031700
      5 C1         -0.4020    1.0710    1.9200 c3        1 FUG      0.156800
      6 C6         -0.9710    0.9640    0.4970 c3        1 FUG     -0.105400
      7 O11        -0.8800   -0.0130    2.7210 oh        1 FUG     -0.603800
      8 C11        -0.8590    2.3920    2.5310 c3        1 FUG     -0.125100
      9 C21         1.7920    1.1430    3.2230 cx        1 FUG      0.102800
     10 C22         1.9790    2.5340    3.7540 cx        1 FUG      0.058100
     11 C23         2.0570    2.8210    5.2250 c3        1 FUG     -0.043200
     12 C24         2.2230    4.2660    5.5120 c2        1 FUG     -0.167200
     13 C25         1.9600    4.8210    6.7060 c2        1 FUG     -0.129400
     14 C2A         1.7480   -0.0380    4.1420 c3        1 FUG     -0.084100
     15 O2A         3.0740    1.8110    3.1790 os        1 FUG     -0.385600
     16 C2B         1.4540    4.0320    7.8560 c3        1 FUG     -0.056400
     17 C2C         2.1610    6.2690    6.9530 c3        1 FUG     -0.056400
     18 O31         2.9570   -0.4080    1.1700 os        1 FUG     -0.389600
     19 C31         3.4770   -1.7230    1.0860 c3        1 FUG      0.112700
     20 O41         1.5300    0.5720   -1.0020 os        1 FUG     -0.425900
     21 C41         1.5920    0.3770   -2.3630 c         1 FUG      0.643300
     22 O4A         1.1150   -0.6700   -2.8190 o         1 FUG     -0.573000
     23 C42         2.2240    1.4920   -3.0610 ce        1 FUG     -0.258200
     24 C43         2.2960    1.5200   -4.4050 cf        1 FUG     -0.002000
     25 C44         2.8920    2.6150   -5.1370 cf        1 FUG     -0.145000
     26 C45         2.8890    2.6840   -6.4560 cu        1 FUG     -0.113400
     27 C46         2.5250    2.0950   -7.7470 cx        1 FUG     -0.117200
     28 C47         3.2430    3.4360   -7.6740 cx        1 FUG     -0.005300
     29 C48         4.6350    3.5390   -8.1190 c2        1 FUG     -0.211200
     30 C49         5.1410    4.6260   -8.7090 ce        1 FUG     -0.169200
     31 C4A         6.5740    4.7190   -9.1880 c         1 FUG      0.891800
     32 O4B         7.3260    3.7100   -9.0790 o         1 FUG     -0.833300
     33 O4C         6.9390    5.8250   -9.6830 o         1 FUG     -0.833300
     34 H51        -0.9590   -0.3550   -1.2230 hc        1 FUG      0.059200
     35 H52        -0.9940   -1.1980    0.3890 hc        1 FUG      0.059200
     36 H4          1.2280   -1.4730   -0.6570 h1        1 FUG      0.073700
     37 H3          1.1200   -1.2160    1.8150 h1        1 FUG      0.058700
     38 H2          1.5060    1.7990    1.1950 hc        1 FUG      0.097700
     39 H61        -0.5930    1.8330   -0.1030 hc        1 FUG      0.052200
     40 H62        -2.0890    1.0310    0.5410 hc        1 FUG      0.052200
     41 HOB        -1.8430    0.0220    2.6830 ho        1 FUG      0.397000
     42 H111       -0.3950    3.2470    1.9860 hc        1 FUG      0.045033
     43 H112       -0.5650    2.4380    3.6070 hc        1 FUG      0.045033
     44 H113       -1.9690    2.4810    2.4620 hc        1 FUG      0.045033
     45 H22         1.6420    3.3920    3.1340 h1        1 FUG      0.085700
     46 H231        2.9240    2.2610    5.6750 hc        1 FUG      0.062200
     47 H232        1.1190    2.4350    5.7130 hc        1 FUG      0.062200
     48 H24         2.6040    4.8810    4.6800 ha        1 FUG      0.130000
     49 H2A1        0.6960   -0.4000    4.2470 hc        1 FUG      0.052033
     50 H2A2        2.3780   -0.8590    3.7150 hc        1 FUG      0.052033
     51 H2A3        2.1490    0.2240    5.1500 hc        1 FUG      0.052033
     52 H2B1        0.3990    3.7080    7.6670 hc        1 FUG      0.039200
     53 H2B2        2.0750    3.1140    8.0070 hc        1 FUG      0.039200
     54 H2B3        1.4740    4.6320    8.7980 hc        1 FUG      0.039200
     55 H2C1        2.4970    6.8030    6.0300 hc        1 FUG      0.039200
     56 H2C2        1.2060    6.7340    7.3040 hc        1 FUG      0.039200
     57 H2C3        2.9340    6.4180    7.7470 hc        1 FUG      0.039200
     58 H311        3.1360   -2.2320    0.1510 h1        1 FUG      0.033033
     59 H312        3.1750   -2.3260    1.9790 h1        1 FUG      0.033033
     60 H313        4.5860   -1.5760    1.0690 h1        1 FUG      0.033033
     61 H42         2.6310    2.2910   -2.4230 ha        1 FUG      0.156000
     62 H43         1.8820    0.6850   -5.0020 ha        1 FUG      0.140000
     63 H44         3.3660    3.4160   -4.5420 ha        1 FUG      0.141000
     64 H45         1.4630    2.0680   -8.0510 hc        1 FUG      0.076700
     65 H46         3.0850    1.2130   -8.1110 hc        1 FUG      0.076700
     66 H47         2.6400    4.3460   -7.8890 hc        1 FUG      0.077700
     67 H48         5.2740    2.6540   -7.9580 ha        1 FUG      0.144000
     68 H49         4.5390    5.5300   -8.8860 ha        1 FUG      0.097000
@<TRIPOS>BOND
     1    1    2 1   
     2    1    6 1   
     3    1   34 1   
     4    1   35 1   
     5    2    3 1   
     6    2   20 1   
     7    2   36 1   
     8    3    4 1   
     9    3   18 1   
    10    3   37 1   
    11    4    5 1   
    12    4    9 1   
    13    4   38 1   
    14    5    6 1   
    15    5    7 1   
    16    5    8 1   
    17    6   39 1   
    18    6   40 1   
    19    7   41 1   
    20    8   42 1   
    21    8   43 1   
    22    8   44 1   
    23    9   10 1   
    24    9   14 1   
    25    9   15 1   
    26   10   11 1   
    27   10   15 1   
    28   10   45 1   
    29   11   12 1   
    30   11   46 1   
    31   11   47 1   
    32   12   13 2   
    33   12   48 1   
    34   13   16 1   
    35   13   17 1   
    36   14   49 1   
    37   14   50 1   
    38   14   51 1   
    39   16   52 1   
    40   16   53 1   
    41   16   54 1   
    42   17   55 1   
    43   17   56 1   
    44   17   57 1   
    45   18   19 1   
    46   19   58 1   
    47   19   59 1   
    48   19   60 1   
    49   20   21 1   
    50   21   22 2   
    51   21   23 1   
    52   23   24 2   
    53   23   61 1   
    54   24   25 1   
    55   24   62 1   
    56   25   26 2   
    57   25   63 1   
    58   26   27 1   
    59   26   28 1   
    60   27   28 1   
    61   27   64 1   
    62   27   65 1   
    63   28   29 1   
    64   28   66 1   
    65   29   30 2   
    66   29   67 1   
    67   30   31 1   
    68   30   68 1   
    69   31   32 1   
    70   31   33 1   
@<TRIPOS>SUBSTRUCTURE
     1 FUG         1 TEMP              0 ****  ****    0 ROOT
