@<TRIPOS>MOLECULE
FUG
   68    64     1     0     0
SMALL
bcc


@<TRIPOS>ATOM
      1 C5         -1.0450    0.4170    0.0980 c3        1 FUG     -0.183000
      2 C4          0.0290   -0.3940   -0.2560 c3        1 FUG      0.017000
      3 C3          0.9150   -1.0060    0.6600 c3        1 FUG      0.041000
      4 C2          0.1770   -1.5120    1.8930 c3        1 FUG     -0.101000
      5 C1         -1.4270   -1.6850    1.6590 c3        1 FUG      0.097000
      6 C6         -1.7530   -0.1070    1.3420 c3        1 FUG     -0.174000
      7 O11        -2.0810   -2.1260    2.8380 oh        1 FUG     -0.347000
      8 C11        -1.6920   -2.4560    0.6330 c3        1 FUG     -0.210000
      9 C21         0.4020   -0.5460    3.0250 cx        1 FUG      0.041000
     10 C22        -0.2830   -0.8630    4.2670 cx        1 FUG     -0.056000
     11 C23         0.4490   -0.4540    5.5570 c3        1 FUG     -0.126000
     12 C24        -0.2240   -1.1280    6.7650 c2        1 FUG     -0.163000
     13 C25        -0.0980   -0.5790    8.0160 c1        1 FUG     -0.121000
     14 C2A         1.7650    0.1530    3.1760 c3        1 FUG     -0.205000
     15 O2A        -0.7740    0.2500    3.4310 os        1 FUG     -0.288000
     16 C2B         0.7120    0.7030    8.2110 c2        1 FUG     -0.182000
     17 C2C        -0.7690   -1.2510    9.2190 c3        1 FUG     -0.176000
     18 O31         1.9310   -0.0210    1.0780 os        1 FUG     -0.262000
     19 C31         3.2420   -0.2870    0.5650 c3        1 FUG     -0.074000
     20 O41         0.9710    0.5210   -1.2450 os        1 FUG     -0.281000
     21 C41         0.4210    0.7210   -2.5480 c2        1 FUG      0.352000
     22 O4A        -0.3900   -0.0700   -2.9930 o         1 FUG     -0.378000
     23 C42         0.8110    1.9610   -3.3630 c2        1 FUG     -0.281000
     24 C43         0.7170    1.9400   -4.7310 c1        1 FUG      0.031000
     25 C44         0.2250    0.6850   -5.4430 c1        1 FUG     -0.143000
     26 C45        -0.0460    0.7210   -6.7820 c1        1 FUG     -0.143000
     27 C46         0.1440    2.0190   -7.5670 c1        1 FUG     -0.143000
     28 C47        -0.2560    2.0940   -8.8720 c1        1 FUG     -0.143000
     29 C48        -0.8930    0.8800   -9.5460 c1        1 FUG     -0.143000
     30 C49        -1.2820    0.9510  -10.8490 c1        1 FUG     -0.143000
     31 C4A        -1.0820    2.2380  -11.6330 c1        1 FUG      0.337000
     32 O4B        -0.0160    2.4210  -12.2820 o         1 FUG     -0.558000
     33 O4C        -2.0060    3.0960  -11.6820 o         1 FUG     -0.558000
     34 H51        -1.6870    0.4450   -0.6490 hc        1 FUG      0.107500
     35 H52        -0.7160    1.3270    0.2750 hc        1 FUG      0.107500
     36 H4         -0.3440   -1.1200   -0.8050 h1        1 FUG      0.106000
     37 H3          1.3630   -1.7650    0.2190 h1        1 FUG      0.076000
     38 H2          0.5540   -2.3870    2.1460 hc        1 FUG      0.108000
     39 H61        -1.4750    0.4320    2.1110 hc        1 FUG      0.091000
     40 H62        -2.7250   -0.0040    1.2190 hc        1 FUG      0.091000
     41 HOB        -2.9510   -2.2520    2.6680 ho        1 FUG      0.222000
     42 H111       -2.2060   -1.9470   -0.0350 hc        1 FUG      0.083000
     43 H112       -0.8530   -2.7680    0.2320 hc        1 FUG      0.083000
     44 H113       -2.2220   -3.2320    0.9330 hc        1 FUG      0.083000
     45 H22        -0.8310   -1.6770    4.2550 h1        1 FUG      0.138000
     46 H231        1.3880   -0.7390    5.5050 hc        1 FUG      0.105000
     47 H232        0.4080    0.5220    5.6620 hc        1 FUG      0.105000
     48 H24        -0.7440   -1.9510    6.6400 ha        1 FUG      0.125000
     49 H2A1        1.8250    0.8960    2.5350 hc        1 FUG      0.100000
     50 H2A2        1.8560    0.5010    4.0900 hc        1 FUG      0.100000
     51 H2A3        2.4860   -0.4920    2.9970 hc        1 FUG      0.100000
     52 H2B1        0.2390    1.4550    7.7920 ha        1 FUG      0.079667
     53 H2B2        0.8210    0.8790    9.1720 ha        1 FUG      0.079667
     54 H2B3        1.5940    0.5980    7.7950 ha        1 FUG      0.079667
     55 H2C1       -1.3540   -1.9750    8.9050 hc        1 FUG      0.077667
     56 H2C2       -0.0800   -1.6210    9.8140 hc        1 FUG      0.077667
     57 H2C3       -1.3030   -0.5870    9.7090 hc        1 FUG      0.077667
     58 H311        3.8510    0.4400    0.8290 h1        1 FUG      0.075000
     59 H312        3.5700   -1.1390    0.9300 h1        1 FUG      0.075000
     60 H313        3.2050   -0.3440   -0.4150 h1        1 FUG      0.075000
     61 H42         1.1280    2.7680   -2.9060 ha        1 FUG      0.143000
     62 H43         0.9660    2.7330   -5.2510 ha        1 FUG      0.127000
     63 H44         0.1030   -0.1450   -4.9410 ha        1 FUG      0.127333
     64 H45        -0.3620   -0.0850   -7.2380 ha        1 FUG      0.127333
     65 H46         0.5530    2.7980   -7.1340 ha        1 FUG      0.127333
     66 H47        -0.1340    2.9260   -9.3750 ha        1 FUG      0.127333
     67 H48        -1.0210    0.0510   -9.0410 ha        1 FUG      0.127333
     68 H49        -1.6920    0.1710  -11.2820 ha        1 FUG      0.127333
@<TRIPOS>BOND
     1    1    2 1   
     2    1    6 1   
     3    1   34 1   
     4    1   35 1   
     5    2    3 1   
     6    2   20 1   
     7    2   36 1   
     8    3    4 1   
     9    3   18 1   
    10    3   37 1   
    11    4    5 1   
    12    4    9 1   
    13    4   38 1   
    14    5    6 1   
    15    5    7 1   
    16    5    8 1   
    17    6   39 1   
    18    6   40 1   
    19    7   41 1   
    20    8   42 1   
    21    8   43 1   
    22    8   44 1   
    23    9   10 1   
    24    9   14 1   
    25    9   15 1   
    26   10   11 1   
    27   10   15 1   
    28   10   45 1   
    29   11   12 1   
    30   11   46 1   
    31   11   47 1   
    32   12   13 1   
    33   12   48 1   
    34   13   17 1   
    35   14   49 1   
    36   14   50 1   
    37   14   51 1   
    38   16   52 1   
    39   16   53 1   
    40   16   54 1   
    41   17   55 1   
    42   17   56 1   
    43   17   57 1   
    44   18   19 1   
    45   19   58 1   
    46   19   59 1   
    47   19   60 1   
    48   20   21 1   
    49   21   22 1   
    50   21   23 1   
    51   23   24 1   
    52   23   61 1   
    53   24   62 1   
    54   25   26 1   
    55   25   63 1   
    56   26   64 1   
    57   27   28 1   
    58   27   65 1   
    59   28   66 1   
    60   29   30 1   
    61   29   67 1   
    62   30   68 1   
    63   31   32 1   
    64   31   33 1   
@<TRIPOS>SUBSTRUCTURE
     1 FUG         1 TEMP              0 ****  ****    0 ROOT
