@<TRIPOS>MOLECULE
FUG
   68    69     1     0     0
SMALL
bcc


@<TRIPOS>ATOM
      1 C5         -1.6900    2.8850    1.8750 c3        1 FUG     -0.096400
      2 C4         -1.4290    2.7080    0.3850 c3        1 FUG      0.125100
      3 C3         -2.7140    2.2420   -0.3260 c3        1 FUG      0.149100
      4 C2         -3.2480    0.9370    0.2840 c3        1 FUG     -0.031700
      5 C1         -3.5320    1.1620    1.7860 c3        1 FUG      0.156800
      6 C6         -2.2440    1.6200    2.4880 c3        1 FUG     -0.105400
      7 O11        -4.5330    2.1770    1.8900 oh        1 FUG     -0.604800
      8 C11        -4.0300   -0.1120    2.4610 c3        1 FUG     -0.125100
      9 C21        -4.4470    0.4080   -0.4750 cx        1 FUG      0.102800
     10 C22        -4.7540   -1.0590   -0.3940 cx        1 FUG      0.058100
     11 C23        -6.1440   -1.5930   -0.5860 c3        1 FUG     -0.043200
     12 C24        -6.2090   -3.0660   -0.4380 c2        1 FUG     -0.167200
     13 C25        -7.3490   -3.7380   -0.2100 c2        1 FUG     -0.129400
     14 C2A        -5.5080    1.4040   -0.8260 c3        1 FUG     -0.084100
     15 O2A        -4.1120   -0.5030   -1.5480 os        1 FUG     -0.386600
     16 C2B        -8.6590   -3.0580   -0.0650 c3        1 FUG     -0.056900
     17 C2C        -7.3700   -5.2160   -0.0880 c3        1 FUG     -0.056900
     18 O31        -2.4590    1.9930   -1.7060 os        1 FUG     -0.390600
     19 C31        -2.4720    3.1640   -2.5030 c3        1 FUG      0.112700
     20 O41        -0.4320    1.6980    0.1760 os        1 FUG     -0.426900
     21 C41         0.8860    2.0920    0.2230 c         1 FUG      0.644300
     22 O4A         1.1240    3.2830    0.4620 o         1 FUG     -0.578000
     23 C42         1.8090    0.9900   -0.0160 ce        1 FUG     -0.272200
     24 C43         3.1430    1.1660    0.0680 cf        1 FUG      0.003000
     25 C44         4.0940    0.1100   -0.1450 cf        1 FUG     -0.241000
     26 C45         5.4280    0.2970   -0.0240 ce        1 FUG     -0.016000
     27 C46         6.3960   -0.7440   -0.2190 ce        1 FUG     -0.249000
     28 C47         7.7260   -0.5400   -0.0750 cf        1 FUG     -0.011000
     29 C48         8.7170   -1.5660   -0.2570 cf        1 FUG     -0.227000
     30 C49        10.0350   -1.3550   -0.1010 ce        1 FUG     -0.124200
     31 C4A        11.0790   -2.4380   -0.2880 c         1 FUG      0.886800
     32 O4B        12.2840   -2.0980   -0.1140 o         1 FUG     -0.822800
     33 O4C        10.7010   -3.6020   -0.6010 o         1 FUG     -0.822800
     34 H51        -0.7280    3.1660    2.3800 hc        1 FUG      0.059200
     35 H52        -2.4210    3.7240    2.0120 hc        1 FUG      0.059200
     36 H4         -1.0770    3.6790   -0.0630 h1        1 FUG      0.073700
     37 H3         -3.4850    3.0550   -0.2030 h1        1 FUG      0.058700
     38 H2         -2.4220    0.1700    0.2100 hc        1 FUG      0.097700
     39 H61        -1.4840    0.7990    2.4050 hc        1 FUG      0.053200
     40 H62        -2.4570    1.7890    3.5750 hc        1 FUG      0.053200
     41 HOB        -4.6440    2.3580    2.8300 ho        1 FUG      0.398000
     42 H111       -4.1280    0.0520    3.5610 hc        1 FUG      0.045033
     43 H112       -5.0300   -0.3960    2.0530 hc        1 FUG      0.045033
     44 H113       -3.3110   -0.9460    2.2840 hc        1 FUG      0.045033
     45 H22        -4.0880   -1.7100    0.2110 h1        1 FUG      0.085700
     46 H231       -6.8210   -1.0970    0.1630 hc        1 FUG      0.061700
     47 H232       -6.5180   -1.3150   -1.6110 hc        1 FUG      0.061700
     48 H24        -5.2530   -3.6050   -0.5450 ha        1 FUG      0.129000
     49 H2A1       -5.0980    2.1320   -1.5710 hc        1 FUG      0.051700
     50 H2A2       -6.3950    0.9000   -1.2800 hc        1 FUG      0.051700
     51 H2A3       -5.8280    1.9580    0.0900 hc        1 FUG      0.051700
     52 H2B1       -8.8200   -2.3340   -0.9020 hc        1 FUG      0.039367
     53 H2B2       -9.4990   -3.7940   -0.0660 hc        1 FUG      0.039367
     54 H2B3       -8.6920   -2.4870    0.8970 hc        1 FUG      0.039367
     55 H2C1       -6.3440   -5.6520   -0.1600 hc        1 FUG      0.039367
     56 H2C2       -7.8120   -5.5130    0.8960 hc        1 FUG      0.039367
     57 H2C3       -7.9990   -5.6590   -0.9000 hc        1 FUG      0.039367
     58 H311       -2.2620    2.7920   -3.5370 h1        1 FUG      0.032033
     59 H312       -3.4740    3.6610   -2.4610 h1        1 FUG      0.032033
     60 H313       -1.6790    3.8810   -2.1780 h1        1 FUG      0.032033
     61 H42         1.3500    0.0220   -0.2660 ha        1 FUG      0.153000
     62 H43         3.5480    2.1660    0.3190 ha        1 FUG      0.133000
     63 H44         3.6900   -0.8800   -0.4140 ha        1 FUG      0.132000
     64 H45         5.8220    1.2950    0.2440 ha        1 FUG      0.112000
     65 H46         6.0140   -1.7400   -0.4950 ha        1 FUG      0.132000
     66 H47         8.1020    0.4630    0.2010 ha        1 FUG      0.104000
     67 H48         8.3650   -2.5760   -0.5360 ha        1 FUG      0.151000
     68 H49        10.4390   -0.3680    0.1760 ha        1 FUG      0.100000
@<TRIPOS>BOND
     1    1    2 1   
     2    1    6 1   
     3    1   34 1   
     4    1   35 1   
     5    2    3 1   
     6    2   20 1   
     7    2   36 1   
     8    3    4 1   
     9    3   18 1   
    10    3   37 1   
    11    4    5 1   
    12    4    9 1   
    13    4   38 1   
    14    5    6 1   
    15    5    7 1   
    16    5    8 1   
    17    6   39 1   
    18    6   40 1   
    19    7   41 1   
    20    8   42 1   
    21    8   43 1   
    22    8   44 1   
    23    9   10 1   
    24    9   14 1   
    25    9   15 1   
    26   10   11 1   
    27   10   15 1   
    28   10   45 1   
    29   11   12 1   
    30   11   46 1   
    31   11   47 1   
    32   12   13 2   
    33   12   48 1   
    34   13   16 1   
    35   13   17 1   
    36   14   49 1   
    37   14   50 1   
    38   14   51 1   
    39   16   52 1   
    40   16   53 1   
    41   16   54 1   
    42   17   55 1   
    43   17   56 1   
    44   17   57 1   
    45   18   19 1   
    46   19   58 1   
    47   19   59 1   
    48   19   60 1   
    49   20   21 1   
    50   21   22 2   
    51   21   23 1   
    52   23   24 2   
    53   23   61 1   
    54   24   25 1   
    55   24   62 1   
    56   25   26 2   
    57   25   63 1   
    58   26   27 1   
    59   26   64 1   
    60   27   28 2   
    61   27   65 1   
    62   28   29 1   
    63   28   66 1   
    64   29   30 2   
    65   29   67 1   
    66   30   31 1   
    67   30   68 1   
    68   31   32 1   
    69   31   33 1   
@<TRIPOS>SUBSTRUCTURE
     1 FUG         1 TEMP              0 ****  ****    0 ROOT
