@<TRIPOS>MOLECULE
FUL
   23    23     1     0     0
SMALL
bcc


@<TRIPOS>ATOM
      1 C1         -0.7530    1.2770   -0.3750 c3        1 FUL      0.313900
      2 C2         -1.2290   -0.1060    0.1180 c3        1 FUL      0.049100
      3 O2         -2.5680   -0.3370   -0.2800 oh        1 FUL     -0.604800
      4 C3         -0.3730   -1.2030   -0.5300 c3        1 FUL      0.160100
      5 O3         -0.7020   -2.4930   -0.0580 oh        1 FUL     -0.581800
      6 C4          1.1040   -0.9300   -0.1950 c3        1 FUL      0.111100
      7 O4          1.2420   -1.0140    1.2120 oh        1 FUL     -0.573800
      8 C5          1.4700    0.4700   -0.7270 c3        1 FUL      0.116100
      9 C6          2.8940    0.8580   -0.3840 c3        1 FUL     -0.100100
     10 O5          0.6340    1.4780   -0.1490 os        1 FUL     -0.441600
     11 O1         -1.3400    2.3110    0.3690 oh        1 FUL     -0.597800
     12 H1         -1.0300    1.4480   -1.4510 h2        1 FUL      0.081700
     13 H2         -1.1400   -0.1690    1.2390 h1        1 FUL      0.080700
     14 HO2        -3.0870    0.4060    0.0570 ho        1 FUL      0.423000
     15 H3         -0.5080   -1.1760   -1.6490 h1        1 FUL      0.047700
     16 HO3        -1.6680   -2.5380   -0.0290 ho        1 FUL      0.422000
     17 H4          1.7510   -1.7040   -0.6920 h1        1 FUL      0.059700
     18 HO4         2.1810   -0.9000    1.4040 ho        1 FUL      0.403000
     19 H5          1.3210    0.4770   -1.8440 h1        1 FUL      0.047700
     20 H61         3.0030    1.0130    0.7170 hc        1 FUL      0.052033
     21 H62         3.5900    0.0510   -0.7160 hc        1 FUL      0.052033
     22 H63         3.1630    1.8120   -0.8970 hc        1 FUL      0.052033
     23 HO1        -0.8440    2.4060    1.1950 ho        1 FUL      0.429000
@<TRIPOS>BOND
     1    1    2 1   
     2    1   10 1   
     3    1   11 1   
     4    1   12 1   
     5    2    3 1   
     6    2    4 1   
     7    2   13 1   
     8    3   14 1   
     9    4    5 1   
    10    4    6 1   
    11    4   15 1   
    12    5   16 1   
    13    6    7 1   
    14    6    8 1   
    15    6   17 1   
    16    7   18 1   
    17    8    9 1   
    18    8   10 1   
    19    8   19 1   
    20    9   20 1   
    21    9   21 1   
    22    9   22 1   
    23   11   23 1   
@<TRIPOS>SUBSTRUCTURE
     1 FUL         1 TEMP              0 ****  ****    0 ROOT
