@<TRIPOS>MOLECULE
FUM
   10     9     1     0     0
SMALL
bcc


@<TRIPOS>ATOM
      1 O1          0.1950    0.4310    0.2150 o         1 FUM     -0.885800
      2 C2          1.3630   -0.0670    0.1040 c         1 FUM      0.884800
      3 O3          1.8530   -0.7890    1.0280 o         1 FUM     -0.885800
      4 C4          2.1410    0.2230   -1.1470 ce        1 FUM     -0.219200
      5 C5          3.3710   -0.2230   -1.4110 cf        1 FUM     -0.219200
      6 C6          4.1490    0.0670   -2.6620 c         1 FUM      0.884800
      7 O7          3.6600    0.7890   -3.5860 o         1 FUM     -0.885800
      8 O8          5.3170   -0.4310   -2.7730 o         1 FUM     -0.885800
      9 H4          1.6130    0.8600   -1.8750 ha        1 FUM      0.105000
     10 H5          3.9000   -0.8600   -0.6830 ha        1 FUM      0.105000
@<TRIPOS>BOND
     1    1    2 1   
     2    2    3 1   
     3    2    4 1   
     4    4    5 2   
     5    4    9 1   
     6    5    6 1   
     7    5   10 1   
     8    6    7 1   
     9    6    8 1   
@<TRIPOS>SUBSTRUCTURE
     1 FUM         1 TEMP              0 ****  ****    0 ROOT
