@<TRIPOS>MOLECULE
FUM
   10     9     1     0     0
SMALL
bcc


@<TRIPOS>ATOM
      1 O1          2.8770   -0.8380    0.0000 o         1 FUM     -0.885800
      2 C2          1.9630    0.0510    0.0000 c         1 FUM      0.884800
      3 O3          2.2600    1.2870    0.0000 o         1 FUM     -0.885800
      4 C4          0.5320   -0.4030    0.0000 ce        1 FUM     -0.219200
      5 C5         -0.5320    0.4030   -0.0000 cf        1 FUM     -0.219200
      6 C6         -1.9630   -0.0510   -0.0000 c         1 FUM      0.884800
      7 O7         -2.2600   -1.2870   -0.0000 o         1 FUM     -0.885800
      8 O8         -2.8770    0.8380   -0.0000 o         1 FUM     -0.885800
      9 H4          0.4010   -1.4980   -0.0000 ha        1 FUM      0.105000
     10 H5         -0.4010    1.4980   -0.0000 ha        1 FUM      0.105000
@<TRIPOS>BOND
     1    1    2 1   
     2    2    3 1   
     3    2    4 1   
     4    4    5 2   
     5    4    9 1   
     6    5    6 1   
     7    5   10 1   
     8    6    7 1   
     9    6    8 1   
@<TRIPOS>SUBSTRUCTURE
     1 FUM         1 TEMP              0 ****  ****    0 ROOT
