@<TRIPOS>MOLECULE
FUM
   10     8     1     0     0
SMALL
bcc


@<TRIPOS>ATOM
      1 O1         -1.8220   -1.0010    0.9760 o         1 FUM     -0.611500
      2 C2         -0.5630   -1.0010    0.9760 c2        1 FUM      0.367000
      3 O3          0.0660   -1.0010    2.0660 o         1 FUM     -0.611500
      4 C4          0.1930   -1.0010   -0.3340 c2        1 FUM     -0.188000
      5 C5          0.5300    0.1660   -0.9180 c1        1 FUM     -0.188000
      6 C6          0.1520    1.4760   -0.2630 c1        1 FUM      0.367000
      7 O7          0.9390    2.0220    0.5540 o         1 FUM     -0.611500
      8 O8         -0.9500    2.0210   -0.5360 o         1 FUM     -0.611500
      9 H4          0.4370   -1.8460   -0.7570 ha        1 FUM      0.045000
     10 H5          1.0180    0.1660   -1.7630 ha        1 FUM      0.045000
@<TRIPOS>BOND
     1    1    2 1   
     2    2    3 1   
     3    2    4 1   
     4    4    5 1   
     5    4    9 1   
     6    5   10 1   
     7    6    7 1   
     8    6    8 1   
@<TRIPOS>SUBSTRUCTURE
     1 FUM         1 TEMP              0 ****  ****    0 ROOT
