@<TRIPOS>MOLECULE
FUN
   32    32     1     0     0
SMALL
bcc


@<TRIPOS>ATOM
      1 N1          0.4990    0.9260    1.0540 n9        1 FUN     -1.099400
      2 S1          1.7330   -0.1640   -0.4770 s4        1 FUN      1.694300
      3 O1          2.5390   -0.7450    0.4650 o         1 FUN     -0.477900
      4 O2          0.7040   -0.9080   -0.9870 o         1 FUN     -0.477900
      5 C1          2.2000    1.1160   -1.1710 ca        1 FUN     -0.732500
      6 C2          1.9870    1.5580   -2.5110 ca        1 FUN      0.219400
      7 Cl1         1.2350    0.5010   -3.6130 cl        1 FUN     -0.071400
      8 C3          2.3800    2.7860   -2.9680 ca        1 FUN     -0.268000
      9 C4          3.0330    3.7330   -2.0930 ca        1 FUN      0.336600
     10 N2          3.4120    4.9500   -2.5070 nu        1 FUN     -0.677600
     11 C5          3.2410    5.4270   -3.8580 c3        1 FUN      0.171500
     12 C6          3.7280    6.8170   -4.0230 cc        1 FUN      0.194000
     13 C7          4.6100    7.6300   -3.3380 cd        1 FUN     -0.216300
     14 C8          4.6390    8.8920   -4.0480 cd        1 FUN     -0.258300
     15 C9          3.7770    8.7670   -5.1170 cc        1 FUN      0.249600
     16 O3          3.1950    7.4990   -5.1270 os        1 FUN     -0.364800
     17 C10         3.2680    3.3110   -0.7280 ca        1 FUN     -0.233600
     18 C11         2.9240    2.0540   -0.3450 ca        1 FUN      0.010000
     19 C12         3.8490    4.2430    0.3490 c         1 FUN      0.930200
     20 O4          3.6290    3.8970    1.5360 o         1 FUN     -0.794800
     21 O5          4.4720    5.2780   -0.0180 o         1 FUN     -0.794800
     22 HN11       -0.4800    0.7630    0.9120 hn        1 FUN      0.411133
     23 HN12        0.6930    1.9130    0.9870 hn        1 FUN      0.411133
     24 H3          2.2050    3.0600   -4.0210 ha        1 FUN      0.160000
     25 HN2         3.8860    5.5540   -1.8300 hn        1 FUN      0.525800
     26 H51         3.8120    4.7560   -4.5700 h1        1 FUN      0.073200
     27 H52         2.1480    5.3830   -4.1460 h1        1 FUN      0.073200
     28 H7          5.1760    7.3940   -2.4380 ha        1 FUN      0.188000
     29 H8          5.2350    9.7570   -3.7690 ha        1 FUN      0.170000
     30 H9          3.4550    9.4100   -5.9310 h4        1 FUN      0.056100
     31 H11         3.1920    1.7520    0.6910 ha        1 FUN      0.184000
     32 H13         0.7640    0.6040    1.9700 hn        1 FUN      0.411133
@<TRIPOS>BOND
     1    1   22 1   
     2    1   23 1   
     3    1   32 1   
     4    2    3 1   
     5    2    4 1   
     6    2    5 1   
     7    5    6 ar  
     8    5   18 ar  
     9    6    7 1   
    10    6    8 ar  
    11    8    9 ar  
    12    8   24 1   
    13    9   10 1   
    14    9   17 ar  
    15   10   11 1   
    16   10   25 1   
    17   11   12 1   
    18   11   26 1   
    19   11   27 1   
    20   12   13 2   
    21   12   16 1   
    22   13   14 1   
    23   13   28 1   
    24   14   15 2   
    25   14   29 1   
    26   15   16 1   
    27   15   30 1   
    28   17   18 ar  
    29   17   19 1   
    30   18   31 1   
    31   19   20 1   
    32   19   21 1   
@<TRIPOS>SUBSTRUCTURE
     1 FUN         1 TEMP              0 ****  ****    0 ROOT
