@<TRIPOS>MOLECULE
FUN
   31    26     1     0     0
SMALL
bcc


@<TRIPOS>ATOM
      1 N1         -0.9730    4.3640    3.2550 n3        1 FUN     -0.949000
      2 S1         -2.0900    3.7310    2.1900 s4        1 FUN      2.094800
      3 O1         -2.5780    4.7330    1.2880 o         1 FUN     -0.560900
      4 O2         -3.3050    3.3500    2.8730 o         1 FUN     -0.560900
      5 C1         -1.3920    2.3600    1.3070 c1        1 FUN     -0.933000
      6 C2         -0.7720    2.5650    0.0800 c2        1 FUN      0.102000
      7 CL1        -0.5930    4.1770   -0.5460 cl        1 FUN     -0.069000
      8 C3         -0.2610    1.4890   -0.6250 c1        1 FUN     -0.274000
      9 C4         -0.3670    0.2080   -0.1080 c1        1 FUN      0.195000
     10 N2          0.0480   -0.9060   -0.8850 n3        1 FUN     -0.306000
     11 C5          1.4330   -1.0430   -1.2650 c3        1 FUN      0.041000
     12 C6          1.6600   -2.4330   -1.8650 c2        1 FUN     -0.048000
     13 C7          2.2990   -2.7060   -3.0520 c1        1 FUN     -0.186000
     14 C8          2.4040   -4.0660   -3.1720 c1        1 FUN     -0.211000
     15 C9          1.8270   -4.6380   -2.0540 c1        1 FUN     -0.090000
     16 O3          1.3710   -3.6310   -1.2530 os        1 FUN     -0.084000
     17 C10        -0.9880    0.0040    1.1220 c1        1 FUN     -0.200000
     18 C11        -1.4980    1.0760    1.8250 c1        1 FUN      0.036000
     19 C12        -1.0920   -1.4020    1.6980 c2        1 FUN      0.368000
     20 O4         -0.1580   -1.8580    2.4250 o         1 FUN     -0.556500
     21 O5         -2.1500   -2.0700    1.5390 o         1 FUN     -0.556500
     22 HN11       -0.8760    3.9920    4.0990 hn        1 FUN      0.229500
     23 HN12       -0.4870    5.1090    3.0220 hn        1 FUN      0.229500
     24 H3          0.1770    1.6330   -1.4920 ha        1 FUN      0.131000
     25 HN2        -0.5730   -1.4900   -1.2110 hn        1 FUN      0.294000
     26 H51         1.6600   -0.3550   -1.9330 h1        1 FUN      0.087000
     27 H52         2.0050   -0.9310   -0.4700 h1        1 FUN      0.087000
     28 H7          2.6170   -2.0570   -3.6860 DU        1 FUN      0.165333
     29 H8          2.8470   -4.5480   -3.9030 DU        1 FUN      0.165333
     30 H9          1.7580   -5.5880   -1.8710 DU        1 FUN      0.165333
     31 H11        -1.9530    0.9300    2.6670 ha        1 FUN      0.192000
@<TRIPOS>BOND
     1    1    2 1   
     2    1   22 1   
     3    1   23 1   
     4    2    3 1   
     5    2    4 1   
     6    5    6 1   
     7    5   18 1   
     8    6    7 1   
     9    6    8 1   
    10    8   24 1   
    11    9   10 1   
    12    9   17 1   
    13   10   11 1   
    14   10   25 1   
    15   11   12 1   
    16   11   26 1   
    17   11   27 1   
    18   12   13 1   
    19   12   16 1   
    20   13   14 1   
    21   14   15 1   
    22   15   16 1   
    23   17   19 1   
    24   18   31 1   
    25   19   20 1   
    26   19   21 1   
@<TRIPOS>SUBSTRUCTURE
     1 FUN         1 TEMP              0 ****  ****    0 ROOT
