@<TRIPOS>MOLECULE
FUN
   33    34     1     0     0
SMALL
bcc


@<TRIPOS>ATOM
      1 N1          0.0150    0.0240   -0.0820 n4        1 FUN     -0.783500
      2 S1          1.9380    0.0190   -0.0170 sy        1 FUN      1.506200
      3 O1          2.1320    0.0290    1.3520 o         1 FUN     -0.571800
      4 O2          2.1900   -1.1260   -0.7370 o         1 FUN     -0.571800
      5 C1          2.1920    1.4170   -0.7200 ca        1 FUN     -0.652500
      6 C2          1.9980    1.7250   -2.1000 ca        1 FUN      0.199400
      7 CL1         1.2250    0.5800   -3.0890 cl        1 FUN     -0.041400
      8 C3          2.3740    2.9170   -2.6630 ca        1 FUN     -0.235000
      9 C4          2.9770    3.9540   -1.8670 ca        1 FUN      0.331600
     10 N2          3.3760    5.1250   -2.3960 nh        1 FUN     -0.690600
     11 C5          3.2180    5.4670   -3.8000 c3        1 FUN      0.181500
     12 C6          3.7900    6.7900   -4.1170 cc        1 FUN      0.144000
     13 C7          4.7770    7.2210   -4.9820 cd        1 FUN     -0.178300
     14 C8          4.8180    8.6620   -4.8760 cd        1 FUN     -0.265300
     15 C9          3.8590    9.0200   -3.9480 cc        1 FUN      0.288600
     16 O3          3.2080    7.8890   -3.4620 os        1 FUN     -0.365800
     17 C10         3.1290    3.6780   -0.4580 ca        1 FUN     -0.289600
     18 C11         2.7320    2.4730    0.0670 ca        1 FUN      0.108000
     19 C12         3.6430    4.7210    0.4580 c         1 FUN      0.630700
     20 O4          3.0670    5.1640    1.4450 o         1 FUN     -0.430000
     21 O5          4.8490    5.3050    0.1890 oh        1 FUN     -0.570100
     22 HN11       -0.3240   -0.7920   -0.5890 hn        1 FUN      0.453800
     23 HN12       -0.3510    0.8520   -0.5400 hn        1 FUN      0.453800
     24 H3          2.2040    3.0940   -3.7390 ha        1 FUN      0.182000
     25 HN2         3.7290    5.8480   -1.7940 hn        1 FUN      0.483800
     26 H51         2.1140    5.4660   -4.0500 h1        1 FUN      0.085700
     27 H52         3.7360    4.6880   -4.4340 h1        1 FUN      0.085700
     28 H7          5.4070    6.6150   -5.6290 ha        1 FUN      0.174000
     29 H8          5.4840    9.3190   -5.4310 ha        1 FUN      0.183000
     30 H9          3.5090    9.9580   -3.5200 h4        1 FUN      0.072100
     31 H11         2.8480    2.3120    1.1620 ha        1 FUN      0.190000
     32 H13        -0.3680   -0.0110    0.8600 hn        1 FUN      0.453800
     33 H22         5.3800    4.7350   -0.3860 ho        1 FUN      0.438000
@<TRIPOS>BOND
     1    1    2 1   
     2    1   22 1   
     3    1   23 1   
     4    1   32 1   
     5    2    3 2   
     6    2    4 2   
     7    2    5 1   
     8    5    6 ar  
     9    5   18 ar  
    10    6    7 1   
    11    6    8 ar  
    12    8    9 ar  
    13    8   24 1   
    14    9   10 1   
    15    9   17 ar  
    16   10   11 1   
    17   10   25 1   
    18   11   12 1   
    19   11   26 1   
    20   11   27 1   
    21   12   13 2   
    22   12   16 1   
    23   13   14 1   
    24   13   28 1   
    25   14   15 2   
    26   14   29 1   
    27   15   16 1   
    28   15   30 1   
    29   17   18 ar  
    30   17   19 1   
    31   18   31 1   
    32   19   20 2   
    33   19   21 1   
    34   21   33 1   
@<TRIPOS>SUBSTRUCTURE
     1 FUN         1 TEMP              0 ****  ****    0 ROOT
