@<TRIPOS>MOLECULE
FUN
   31    32     1     0     0
SMALL
bcc


@<TRIPOS>ATOM
      1 N1         -4.2850   -0.4270   -0.2050 n3        1 FUN     -1.021700
      2 S1         -3.2880   -0.0380    1.0000 sy        1 FUN      1.535200
      3 O1         -3.6140    1.2680    1.4410 o         1 FUN     -0.670300
      4 O2         -3.3730   -1.0360    2.0000 o         1 FUN     -0.670300
      5 C1         -1.7830   -0.0430    0.2750 ca        1 FUN     -0.460500
      6 C2         -1.1740   -1.1570   -0.3210 ca        1 FUN      0.156400
      7 CL1        -2.0150   -2.6520   -0.3930 cl        1 FUN     -0.140400
      8 C3          0.0910   -1.1130   -0.8820 ca        1 FUN     -0.224000
      9 C4          0.8290    0.1020   -0.8870 ca        1 FUN      0.233600
     10 N2          2.0470    0.1940   -1.5710 nh        1 FUN     -0.722600
     11 C5          3.0200   -0.8620   -1.4490 c3        1 FUN      0.165500
     12 C6          3.9240   -0.7500   -0.2730 cc        1 FUN      0.189000
     13 C7          4.1680    0.2390    0.6590 cd        1 FUN     -0.228300
     14 C8          5.1910   -0.2770    1.5440 cd        1 FUN     -0.260300
     15 C9          5.5070   -1.5430    1.0950 cc        1 FUN      0.209600
     16 O3          4.7410   -1.8660   -0.0260 os        1 FUN     -0.380800
     17 C10         0.2340    1.2460   -0.2900 ca        1 FUN     -0.207600
     18 C11        -1.0380    1.1520    0.2580 ca        1 FUN      0.032000
     19 C12         0.9430    2.5950   -0.2050 c         1 FUN      0.918200
     20 O4          0.2270    3.6290   -0.1930 o         1 FUN     -0.822800
     21 O5          2.2100    2.6110   -0.1380 o         1 FUN     -0.822800
     22 HN11       -4.6990    0.2440   -0.7980 hn        1 FUN      0.436800
     23 HN12       -4.4950   -1.3570   -0.4610 hn        1 FUN      0.436800
     24 H3          0.5100   -2.0220   -1.3380 ha        1 FUN      0.138000
     25 HN2         2.4670    1.1120   -1.4770 hn        1 FUN      0.458800
     26 H51         2.5200   -1.8710   -1.4220 h1        1 FUN      0.059700
     27 H52         3.6590   -0.8220   -2.3810 h1        1 FUN      0.059700
     28 H7          3.6780    1.2190    0.7200 ha        1 FUN      0.227000
     29 H8          5.6120    0.2520    2.3930 ha        1 FUN      0.153000
     30 H9          6.1910   -2.3230    1.4070 h4        1 FUN      0.035100
     31 H11        -1.4740    2.0740    0.6990 ha        1 FUN      0.188000
@<TRIPOS>BOND
     1    1    2 1   
     2    1   22 1   
     3    1   23 1   
     4    2    3 2   
     5    2    4 2   
     6    2    5 1   
     7    5    6 ar  
     8    5   18 ar  
     9    6    7 1   
    10    6    8 ar  
    11    8    9 ar  
    12    8   24 1   
    13    9   10 1   
    14    9   17 ar  
    15   10   11 1   
    16   10   25 1   
    17   11   12 1   
    18   11   26 1   
    19   11   27 1   
    20   12   13 2   
    21   12   16 1   
    22   13   14 1   
    23   13   28 1   
    24   14   15 2   
    25   14   29 1   
    26   15   16 1   
    27   15   30 1   
    28   17   18 ar  
    29   17   19 1   
    30   18   31 1   
    31   19   20 1   
    32   19   21 1   
@<TRIPOS>SUBSTRUCTURE
     1 FUN         1 TEMP              0 ****  ****    0 ROOT
