@<TRIPOS>MOLECULE
FUR
   21    15     1     0     0
SMALL
bcc


@<TRIPOS>ATOM
      1 O3         -2.3900   -1.8600    3.0020 o         1 FUR     -0.292700
      2 N1         -1.4100   -1.1320    2.9310 n2        1 FUR      0.555700
      3 O2         -1.1160   -0.2800    3.9570 os        1 FUR     -0.321000
      4 C1         -0.5530   -1.2040    1.8020 c2        1 FUR     -0.105000
      5 O1          0.3930   -0.2780    1.4490 os        1 FUR     -0.040000
      6 C2         -0.4890   -2.2450    0.8990 c1        1 FUR     -0.077000
      7 C3          0.4930   -1.9580   -0.0070 c1        1 FUR     -0.173000
      8 C4          1.0410   -0.7380    0.3320 c1        1 FUR      0.007000
      9 C5          2.2090   -0.0660   -0.3570 c1        1 FUR     -0.074000
     10 N2          2.0050    0.9710   -1.1270 n1        1 FUR      0.018000
     11 N3          0.7230    1.4540   -1.3110 n2        1 FUR     -0.220000
     12 C8          0.0870    2.3510   -0.5150 c2        1 FUR      0.362000
     13 O5          0.5330    2.8450    0.5020 o         1 FUR     -0.290000
     14 C6         -0.0870    1.1670   -2.3450 c1        1 FUR     -0.078000
     15 C7         -1.2410    1.8930   -2.1920 c1        1 FUR     -0.096000
     16 O4         -1.1280    2.6170   -1.0670 os        1 FUR     -0.150000
     17 H2         -1.0480   -3.0460    0.9050 DU        1 FUR      0.196000
     18 H3          0.7590   -2.5180   -0.7610 DU        1 FUR      0.196000
     19 H5          3.1160   -0.4080   -0.2270 ha        1 FUR      0.189000
     20 H6          0.1100    0.5510   -3.0760 DU        1 FUR      0.196000
     21 H7         -2.0080    1.8840   -2.7950 DU        1 FUR      0.196000
@<TRIPOS>BOND
     1    1    2 2   
     2    2    4 1   
     3    4    5 1   
     4    4    6 1   
     5    5    8 1   
     6    6    7 1   
     7    7    8 1   
     8    9   10 1   
     9    9   19 1   
    10   11   12 1   
    11   11   14 1   
    12   12   13 1   
    13   12   16 1   
    14   14   15 1   
    15   15   16 1   
@<TRIPOS>SUBSTRUCTURE
     1 FUR         1 TEMP              0 ****  ****    0 ROOT
