@<TRIPOS>MOLECULE
FUR
   21    22     1     0     0
SMALL
bcc


@<TRIPOS>ATOM
      1 O3         -5.0840    0.6170    0.0130 o         1 FUR     -0.180500
      2 N1         -3.9130    0.8920    0.0120 no        1 FUR      0.245500
      3 O2         -3.5060    2.0180    0.0140 o         1 FUR     -0.180500
      4 C1         -2.9650   -0.2200    0.0090 cc        1 FUR      0.131200
      5 O1         -1.5950    0.0930    0.0080 os        1 FUR     -0.281800
      6 C2         -3.1660   -1.5960    0.0070 cd        1 FUR     -0.138300
      7 C3         -1.8570   -2.1860    0.0040 cd        1 FUR     -0.263300
      8 C4         -0.9400   -1.1380    0.0050 cc        1 FUR      0.277400
      9 C5          0.5070   -1.1850    0.0030 ce        1 FUR      0.256200
     10 N2          1.2370   -0.0970    0.0040 n2        1 FUR     -0.348300
     11 N3          2.5590   -0.1360    0.0030 n         1 FUR     -0.156000
     12 C8          3.3590    1.0650    0.0040 c         1 FUR      0.833600
     13 O5          3.0850    2.2530    0.0060 o         1 FUR     -0.518500
     14 C6          3.4710   -1.2430   -0.0000 cc        1 FUR     -0.148400
     15 C7          4.7390   -0.7400   -0.0010 cd        1 FUR     -0.020900
     16 O4          4.7030    0.6690    0.0010 os        1 FUR     -0.295200
     17 H2         -4.1230   -2.1160    0.0070 ha        1 FUR      0.192000
     18 H3         -1.6390   -3.2510    0.0020 ha        1 FUR      0.177000
     19 H5          0.8950   -2.2260    0.0010 h4        1 FUR      0.016800
     20 H6          3.1200   -2.2750   -0.0020 h4        1 FUR      0.192000
     21 H7          5.7390   -1.1650   -0.0030 h4        1 FUR      0.211000
@<TRIPOS>BOND
     1    1    2 1   
     2    2    3 1   
     3    2    4 1   
     4    4    5 1   
     5    4    6 2   
     6    5    8 1   
     7    6    7 1   
     8    6   17 1   
     9    7    8 2   
    10    7   18 1   
    11    8    9 1   
    12    9   10 2   
    13    9   19 1   
    14   10   11 1   
    15   11   12 1   
    16   11   14 1   
    17   12   13 2   
    18   12   16 1   
    19   14   15 2   
    20   14   20 1   
    21   15   16 1   
    22   15   21 1   
@<TRIPOS>SUBSTRUCTURE
     1 FUR         1 TEMP              0 ****  ****    0 ROOT
