@<TRIPOS>MOLECULE
FUR
   21    22     1     0     0
SMALL
bcc


@<TRIPOS>ATOM
      1 O3          0.1970   -0.0730    0.2780 o         1 FUR     -0.180500
      2 N1          1.3930   -0.1120    0.1530 no        1 FUR      0.245500
      3 O2          2.1440   -0.2150    1.0800 o         1 FUR     -0.180500
      4 C1          1.9270   -0.0270   -1.2040 cc        1 FUR      0.131200
      5 O1          3.3220   -0.0720   -1.3590 os        1 FUR     -0.281800
      6 C2          1.2890    0.0970   -2.4340 cd        1 FUR     -0.138300
      7 C3          2.3330    0.1310   -3.4190 cd        1 FUR     -0.263300
      8 C4          3.5410    0.0270   -2.7330 cc        1 FUR      0.277400
      9 C5          4.8920    0.0130   -3.2520 ce        1 FUR      0.256200
     10 N2          5.9360   -0.0950   -2.4660 n2        1 FUR     -0.348300
     11 N3          7.1730   -0.1090   -2.9360 n         1 FUR     -0.156000
     12 C8          8.3190   -0.2270   -2.0690 c         1 FUR      0.833600
     13 O5          8.4470   -0.3310   -0.8600 o         1 FUR     -0.518500
     14 C6          7.6740   -0.0200   -4.2770 cc        1 FUR     -0.148400
     15 C7          9.0350   -0.0820   -4.2200 cd        1 FUR     -0.020900
     16 O4          9.4600   -0.2090   -2.8810 os        1 FUR     -0.295200
     17 H2          0.2150    0.1550   -2.6100 ha        1 FUR      0.192000
     18 H3          2.1930    0.2220   -4.4930 ha        1 FUR      0.177000
     19 H5          4.9210    0.1010   -4.3590 h4        1 FUR      0.016800
     20 H6          7.0070    0.0770   -5.1330 h4        1 FUR      0.192000
     21 H7          9.8410   -0.0560   -4.9470 h4        1 FUR      0.211000
@<TRIPOS>BOND
     1    1    2 1   
     2    2    3 1   
     3    2    4 1   
     4    4    5 1   
     5    4    6 2   
     6    5    8 1   
     7    6    7 1   
     8    6   17 1   
     9    7    8 2   
    10    7   18 1   
    11    8    9 1   
    12    9   10 2   
    13    9   19 1   
    14   10   11 1   
    15   11   12 1   
    16   11   14 1   
    17   12   13 2   
    18   12   16 1   
    19   14   15 2   
    20   14   20 1   
    21   15   16 1   
    22   15   21 1   
@<TRIPOS>SUBSTRUCTURE
     1 FUR         1 TEMP              0 ****  ****    0 ROOT
