@<TRIPOS>MOLECULE
FUU
   39    41     1     0     0
SMALL
bcc


@<TRIPOS>ATOM
      1 CAI         7.2420    0.6560   -0.5430 cc        1 FUU     -0.205300
      2 CAD         7.6940    1.9220   -1.0710 cc        1 FUU     -0.274300
      3 CAF         6.5820    2.7370   -1.1590 cd        1 FUU      0.256600
      4 OAR         5.4460    2.0650   -0.7180 os        1 FUU     -0.338800
      5 CAY         5.8770    0.7820   -0.3430 cd        1 FUU      0.213700
      6 CAZ         4.8890   -0.1210    0.1500 cd        1 FUU      0.387400
      7 OAS         3.5520    0.3190    0.2260 os        1 FUU     -0.396800
      8 NAN         4.9750   -1.3950    0.5910 nc        1 FUU     -0.316000
      9 NAM         3.7860   -1.8240    0.9600 nc        1 FUU     -0.355000
     10 CAX         2.8780   -0.8170    0.7540 cd        1 FUU      0.610300
     11 NAP         1.5310   -0.6650    0.9620 n         1 FUU     -0.547400
     12 CAU         0.6570   -1.7630    1.2320 c         1 FUU      0.766100
     13 OAB         1.0440   -2.9310    1.0460 o         1 FUU     -0.565100
     14 NAO        -0.5960   -1.4560    1.7940 n         1 FUU     -0.506900
     15 CAK        -1.6850   -2.3890    1.5750 c3        1 FUU      0.115300
     16 CAV        -2.6460   -1.9640    0.5030 ca        1 FUU     -0.111300
     17 CAJ        -3.3320   -0.7600    0.6390 ca        1 FUU     -0.183000
     18 CAG        -2.8510   -2.7710   -0.6210 ca        1 FUU     -0.178000
     19 CAE        -3.7490   -2.3650   -1.6060 ca        1 FUU     -0.095000
     20 CAH        -4.4360   -1.1600   -1.4960 ca        1 FUU     -0.210000
     21 CAW        -4.2270   -0.3450   -0.3700 ca        1 FUU      0.165100
     22 OAQ        -4.8320    0.8590   -0.1460 os        1 FUU     -0.284900
     23 CAL        -5.6630    1.3630   -1.2000 c3        1 FUU     -0.013600
     24 CAT        -6.0940    2.8040   -0.7900 c         1 FUU      0.926600
     25 OAC        -5.2010    3.6870   -0.7260 o         1 FUU     -0.817300
     26 OAA        -7.3280    2.9800   -0.6130 o         1 FUU     -0.817300
     27 H1          7.8550   -0.2190   -0.3440 ha        1 FUU      0.176000
     28 H2          8.7180    2.1650   -1.3400 ha        1 FUU      0.163000
     29 H3          6.3950    3.7570   -1.4860 h4        1 FUU      0.057100
     30 H4          1.1730    0.2590    0.8540 hn        1 FUU      0.347500
     31 H5         -0.8860   -0.4990    1.7600 hn        1 FUU      0.299500
     32 H6         -1.2620   -3.4090    1.3430 h1        1 FUU      0.076700
     33 H7         -2.2390   -2.4520    2.5580 h1        1 FUU      0.076700
     34 H8         -3.2030   -0.1190    1.5230 ha        1 FUU      0.143000
     35 H9         -2.3060   -3.7190   -0.7260 ha        1 FUU      0.126000
     36 H10        -3.9150   -3.0040   -2.4870 ha        1 FUU      0.120000
     37 H11        -5.1380   -0.8490   -2.2820 ha        1 FUU      0.146000
     38 H12        -5.0810    1.4030   -2.1540 h1        1 FUU      0.023200
     39 H13        -6.5560    0.6980   -1.3110 h1        1 FUU      0.023200
@<TRIPOS>BOND
     1    1    2 1   
     2    1    5 2   
     3    1   27 1   
     4    2    3 2   
     5    2   28 1   
     6    3    4 1   
     7    3   29 1   
     8    4    5 1   
     9    5    6 1   
    10    6    7 1   
    11    6    8 2   
    12    7   10 1   
    13    8    9 1   
    14    9   10 2   
    15   10   11 1   
    16   11   12 1   
    17   11   30 1   
    18   12   13 2   
    19   12   14 1   
    20   14   15 1   
    21   14   31 1   
    22   15   16 1   
    23   15   32 1   
    24   15   33 1   
    25   16   17 ar  
    26   16   18 ar  
    27   17   21 ar  
    28   17   34 1   
    29   18   19 ar  
    30   18   35 1   
    31   19   20 ar  
    32   19   36 1   
    33   20   21 ar  
    34   20   37 1   
    35   21   22 1   
    36   22   23 1   
    37   23   24 1   
    38   23   38 1   
    39   23   39 1   
    40   24   25 1   
    41   24   26 1   
@<TRIPOS>SUBSTRUCTURE
     1 FUU         1 TEMP              0 ****  ****    0 ROOT
