@<TRIPOS>MOLECULE
FUU
   40    42     1     0     0
SMALL
bcc


@<TRIPOS>ATOM
      1 CAI        -0.0390   -0.4870    1.4250 cc        1 FUU     -0.171300
      2 CAD         1.1710   -0.9550    2.0550 cc        1 FUU     -0.276300
      3 CAF         0.8240   -1.3720    3.3270 cd        1 FUU      0.276600
      4 OAR        -0.5380   -1.1970    3.5460 os        1 FUU     -0.336800
      5 CAY        -1.0520   -0.6490    2.3580 cd        1 FUU      0.175700
      6 CAZ        -2.4490   -0.3700    2.3170 cd        1 FUU      0.441400
      7 OAS        -3.2260   -0.6590    3.4560 os        1 FUU     -0.365800
      8 NAN        -3.2350    0.1490    1.3460 nc        1 FUU     -0.325000
      9 NAM        -4.4800    0.2210    1.7720 nc        1 FUU     -0.328000
     10 CAX        -4.5250   -0.2590    3.0500 cd        1 FUU      0.556300
     11 NAP        -5.5320   -0.4270    3.9850 ns        1 FUU     -0.504400
     12 CAU        -6.8520   -0.0810    3.7070 c         1 FUU      0.665100
     13 OAB        -7.2940    0.4370    2.6770 o         1 FUU     -0.485100
     14 NAO        -7.7920   -0.3890    4.8250 ny        1 FUU     -0.699800
     15 CAK        -9.1570    0.2410    4.7740 c3        1 FUU      0.204100
     16 CAV        -9.5980    0.3620    6.2040 ca        1 FUU     -0.156300
     17 CAJ        -9.4570   -0.7930    6.9870 ca        1 FUU     -0.159000
     18 CAG        -9.8510    1.5890    6.8180 ca        1 FUU     -0.113000
     19 CAE        -9.8710    1.6630    8.2150 ca        1 FUU     -0.119000
     20 CAH        -9.5010    0.5680    8.9950 ca        1 FUU     -0.112000
     21 CAW        -9.2360   -0.6560    8.3620 ca        1 FUU      0.123100
     22 OAQ        -8.7530   -1.7420    9.0740 os        1 FUU     -0.334900
     23 CAL        -7.3830   -2.0840    8.7610 c3        1 FUU      0.049400
     24 CAT        -6.9770   -1.9070    7.3030 c         1 FUU      0.884600
     25 OAC        -6.1810   -0.9640    6.9680 o         1 FUU     -0.857300
     26 OAA        -7.4390   -2.6600    6.3900 o         1 FUU     -0.857300
     27 H1         -0.1320   -0.0870    0.4180 ha        1 FUU      0.181000
     28 H2          2.1580   -0.9690    1.5990 ha        1 FUU      0.172000
     29 H3          1.3590   -1.7960    4.1740 h4        1 FUU      0.064100
     30 H4         -5.2750   -0.8140    4.8900 hn        1 FUU      0.417500
     31 H5         -7.8790   -1.4340    4.9270 hn        1 FUU      0.511800
     32 H6         -9.0810    1.2430    4.2680 hx        1 FUU      0.102200
     33 H7         -9.8310   -0.4260    4.1700 hx        1 FUU      0.102200
     34 H8         -9.4220   -1.8020    6.5380 ha        1 FUU      0.186000
     35 H9        -10.0100    2.4940    6.2150 ha        1 FUU      0.139000
     36 H10       -10.1200    2.6190    8.7020 ha        1 FUU      0.142000
     37 H11        -9.3950    0.6570   10.0860 ha        1 FUU      0.156000
     38 H12        -6.7250   -1.4550    9.4160 h1        1 FUU      0.069200
     39 H13        -7.3260   -3.1670    9.0500 h1        1 FUU      0.069200
     40 HAO2       -7.3310   -0.0940    5.7320 hn        1 FUU      0.511800
@<TRIPOS>BOND
     1    1    2 1   
     2    1    5 2   
     3    1   27 1   
     4    2    3 2   
     5    2   28 1   
     6    3    4 1   
     7    3   29 1   
     8    4    5 1   
     9    5    6 1   
    10    6    7 1   
    11    6    8 2   
    12    7   10 1   
    13    8    9 1   
    14    9   10 2   
    15   10   11 1   
    16   11   12 1   
    17   11   30 1   
    18   12   13 2   
    19   12   14 1   
    20   14   15 1   
    21   14   31 1   
    22   14   40 1   
    23   15   16 1   
    24   15   32 1   
    25   15   33 1   
    26   16   17 ar  
    27   16   18 ar  
    28   17   21 ar  
    29   17   34 1   
    30   18   19 ar  
    31   18   35 1   
    32   19   20 ar  
    33   19   36 1   
    34   20   21 ar  
    35   20   37 1   
    36   21   22 1   
    37   22   23 1   
    38   23   24 1   
    39   23   38 1   
    40   23   39 1   
    41   24   25 1   
    42   24   26 1   
@<TRIPOS>SUBSTRUCTURE
     1 FUU         1 TEMP              0 ****  ****    0 ROOT
