@<TRIPOS>MOLECULE
FUU
   39    41     1     0     0
SMALL
bcc


@<TRIPOS>ATOM
      1 CAI         0.2300    0.3900    1.2320 cc        1 FUU     -0.205300
      2 CAD         1.4190   -0.2240    1.7740 cc        1 FUU     -0.274300
      3 CAF         1.0120   -1.0140    2.8320 cd        1 FUU      0.256600
      4 OAR        -0.3680   -0.9390    2.9960 os        1 FUU     -0.338800
      5 CAY        -0.8300   -0.0670    1.9980 cd        1 FUU      0.213700
      6 CAZ        -2.2320    0.1870    1.9480 cd        1 FUU      0.387400
      7 OAS        -3.0640   -0.4410    2.8970 os        1 FUU     -0.396800
      8 NAN        -2.9790    0.9540    1.1250 nc        1 FUU     -0.316000
      9 NAM        -4.2500    0.8680    1.4600 nc        1 FUU     -0.355000
     10 CAX        -4.3580    0.0310    2.5410 cd        1 FUU      0.610300
     11 NAP        -5.3950   -0.4480    3.3000 n         1 FUU     -0.547400
     12 CAU        -6.7100    0.1100    3.2610 c         1 FUU      0.766100
     13 OAB        -6.9060    1.2130    2.7180 o         1 FUU     -0.565100
     14 NAO        -7.7530   -0.6820    3.7740 n         1 FUU     -0.506900
     15 CAK        -8.9390   -0.0060    4.2670 c3        1 FUU      0.115300
     16 CAV        -8.9960    0.1130    5.7620 ca        1 FUU     -0.111300
     17 CAJ        -8.9870   -1.0410    6.5400 ca        1 FUU     -0.183000
     18 CAG        -9.0590    1.3730    6.3670 ca        1 FUU     -0.178000
     19 CAE        -9.1140    1.4690    7.7560 ca        1 FUU     -0.095000
     20 CAH        -9.0950    0.3280    8.5540 ca        1 FUU     -0.210000
     21 CAW        -9.0260   -0.9380    7.9480 ca        1 FUU      0.165100
     22 OAQ        -8.9950   -2.1290    8.6150 os        1 FUU     -0.284900
     23 CAL        -8.9220   -2.0600   10.0450 c3        1 FUU     -0.013600
     24 CAT        -8.7230   -3.5170   10.5620 c         1 FUU      0.926600
     25 OAC        -7.6440   -4.0970   10.2800 o         1 FUU     -0.817300
     26 OAA        -9.6500   -3.9770   11.2800 o         1 FUU     -0.817300
     27 H1          0.1820    1.0760    0.3890 ha        1 FUU      0.176000
     28 H2          2.4300   -0.0790    1.4050 ha        1 FUU      0.163000
     29 H3          1.5090   -1.6630    3.5480 h4        1 FUU      0.057100
     30 H4         -5.1700   -1.1810    3.9380 hn        1 FUU      0.347500
     31 H5         -7.4920   -1.4720    4.3310 hn        1 FUU      0.299500
     32 H6         -9.0150    1.0110    3.7870 h1        1 FUU      0.076700
     33 H7         -9.8150   -0.6280    3.9170 h1        1 FUU      0.076700
     34 H8         -8.9600   -2.0420    6.0870 ha        1 FUU      0.143000
     35 H9         -9.0610    2.2820    5.7490 ha        1 FUU      0.126000
     36 H10        -9.1700    2.4600    8.2300 ha        1 FUU      0.120000
     37 H11        -9.1340    0.4170    9.6480 ha        1 FUU      0.146000
     38 H12        -9.8750   -1.6250   10.4390 h1        1 FUU      0.023200
     39 H13        -8.0480   -1.4320   10.3490 h1        1 FUU      0.023200
@<TRIPOS>BOND
     1    1    2 1   
     2    1    5 2   
     3    1   27 1   
     4    2    3 2   
     5    2   28 1   
     6    3    4 1   
     7    3   29 1   
     8    4    5 1   
     9    5    6 1   
    10    6    7 1   
    11    6    8 2   
    12    7   10 1   
    13    8    9 1   
    14    9   10 2   
    15   10   11 1   
    16   11   12 1   
    17   11   30 1   
    18   12   13 2   
    19   12   14 1   
    20   14   15 1   
    21   14   31 1   
    22   15   16 1   
    23   15   32 1   
    24   15   33 1   
    25   16   17 ar  
    26   16   18 ar  
    27   17   21 ar  
    28   17   34 1   
    29   18   19 ar  
    30   18   35 1   
    31   19   20 ar  
    32   19   36 1   
    33   20   21 ar  
    34   20   37 1   
    35   21   22 1   
    36   22   23 1   
    37   23   24 1   
    38   23   38 1   
    39   23   39 1   
    40   24   25 1   
    41   24   26 1   
@<TRIPOS>SUBSTRUCTURE
     1 FUU         1 TEMP              0 ****  ****    0 ROOT
