@<TRIPOS>MOLECULE
FUX
   15    15     1     0     0
SMALL
bcc


@<TRIPOS>ATOM
      1 C1          0.0670    0.3610    0.1170 c         1 FUX      0.495400
      2 C2          1.5010    0.1270    0.0140 cc        1 FUX      0.137200
      3 O3          2.2310    0.2480    1.2100 os        1 FUX     -0.362800
      4 C4          3.5630   -0.0040    0.8810 cc        1 FUX      0.244000
      5 C5          3.6830   -0.2760   -0.4710 cd        1 FUX     -0.268300
      6 C6          2.3550   -0.1930   -1.0280 cd        1 FUX     -0.162300
      7 C7          4.5320    0.0440    2.0000 c3        1 FUX      0.096100
      8 O8          4.2400    1.0480    2.9460 oh        1 FUX     -0.582800
      9 OXT        -0.6890    0.2700   -0.8520 o         1 FUX     -0.515100
     10 H1         -0.2950    0.6270    1.1340 h4        1 FUX      0.020200
     11 H5          4.5920   -0.5030   -1.0210 ha        1 FUX      0.170000
     12 H6          2.0830   -0.3510   -2.0700 ha        1 FUX      0.178000
     13 H71         4.5620   -0.9650    2.5000 h1        1 FUX      0.069200
     14 H72         5.5550    0.3030    1.6080 h1        1 FUX      0.069200
     15 HO8         3.3380    0.9030    3.2600 ho        1 FUX      0.413000
@<TRIPOS>BOND
     1    1    2 1   
     2    1    9 2   
     3    1   10 1   
     4    2    3 1   
     5    2    6 2   
     6    3    4 1   
     7    4    5 2   
     8    4    7 1   
     9    5    6 1   
    10    5   11 1   
    11    6   12 1   
    12    7    8 1   
    13    7   13 1   
    14    7   14 1   
    15    8   15 1   
@<TRIPOS>SUBSTRUCTURE
     1 FUX         1 TEMP              0 ****  ****    0 ROOT
