@<TRIPOS>MOLECULE
FUX
   15    15     1     0     0
SMALL
bcc


@<TRIPOS>ATOM
      1 C1          0.1690   -1.9070   -4.1040 c         1 FUX      0.495400
      2 C2          0.2900   -1.6200   -2.6810 cc        1 FUX      0.137200
      3 O3         -0.5100   -2.3990   -1.8250 os        1 FUX     -0.362800
      4 C4         -0.2300   -1.9680   -0.5290 cc        1 FUX      0.244000
      5 C5          0.7120   -0.9530   -0.5520 cd        1 FUX     -0.268300
      6 C6          1.0450   -0.7280   -1.9360 cd        1 FUX     -0.162300
      7 C7         -0.9810   -2.6350    0.5580 c3        1 FUX      0.096100
      8 O8         -1.1900   -4.0110    0.3260 oh        1 FUX     -0.582800
      9 OXT         0.8010   -1.2870   -4.9600 o         1 FUX     -0.515100
     10 H1         -0.5360   -2.7290   -4.3590 h4        1 FUX      0.020200
     11 H5          1.1310   -0.4220    0.2990 ha        1 FUX      0.170000
     12 H6          1.7550    0.0030   -2.3180 ha        1 FUX      0.178000
     13 H71        -0.3900   -2.5900    1.5150 h1        1 FUX      0.069200
     14 H72        -1.9680   -2.1100    0.6960 h1        1 FUX      0.069200
     15 HO8        -1.6370   -4.1010   -0.5250 ho        1 FUX      0.413000
@<TRIPOS>BOND
     1    1    2 1   
     2    1    9 2   
     3    1   10 1   
     4    2    3 1   
     5    2    6 2   
     6    3    4 1   
     7    4    5 2   
     8    4    7 1   
     9    5    6 1   
    10    5   11 1   
    11    6   12 1   
    12    7    8 1   
    13    7   13 1   
    14    7   14 1   
    15    8   15 1   
@<TRIPOS>SUBSTRUCTURE
     1 FUX         1 TEMP              0 ****  ****    0 ROOT
