@<TRIPOS>MOLECULE
FUY
   25    25     1     0     0
SMALL
bcc


@<TRIPOS>ATOM
      1 C1          0.1590    0.7400    0.4650 c3        1 FUY      0.340300
      2 N1         -0.5820    1.2040   -0.7460 n2        1 FUY     -0.030200
      3 C2          1.5990    0.2760    0.1140 c3        1 FUY      0.123100
      4 N2         -1.2090    0.5440   -1.5240 n1        1 FUY      0.220000
      5 O2          2.2620    1.3880   -0.4400 oh        1 FUY     -0.593800
      6 C3          2.2670   -0.2020    1.4180 c3        1 FUY      0.068100
      7 N3         -1.7060    0.0340   -2.4860 n2        1 FUY     -0.191400
      8 O3          3.5320   -0.6990    1.0170 oh        1 FUY     -0.594800
      9 C4          1.4220   -1.3320    2.0310 c3        1 FUY      0.082100
     10 O4          1.3520   -2.4340    1.1460 oh        1 FUY     -0.583800
     11 C5         -0.0050   -0.8280    2.2780 c3        1 FUY      0.171100
     12 O5         -0.5920   -0.3030    1.0640 os        1 FUY     -0.442600
     13 C6         -0.9420   -1.9330    2.7190 c3        1 FUY     -0.098100
     14 H1          0.1620    1.6810    1.1000 h2        1 FUY      0.147700
     15 H2          1.5760   -0.5840   -0.6160 h1        1 FUY      0.093700
     16 HO2         3.2020    1.1550   -0.5050 ho        1 FUY      0.458000
     17 H3          2.3780    0.6520    2.1400 h1        1 FUY      0.074700
     18 HN3        -2.7240   -0.0850   -2.5110 hn        1 FUY      0.524400
     19 HO3         4.0980   -0.7190    1.8000 ho        1 FUY      0.437000
     20 H4          1.8720   -1.6560    3.0120 h1        1 FUY      0.077700
     21 HO4         2.2650   -2.7120    0.9720 ho        1 FUY      0.433000
     22 H5          0.0290    0.0090    3.0320 h1        1 FUY      0.064700
     23 H6         -1.9860   -1.5460    2.8000 hc        1 FUY      0.072700
     24 H6A        -0.9190   -2.7760    1.9850 hc        1 FUY      0.072700
     25 H6B        -0.6080   -2.3080    3.7160 hc        1 FUY      0.072700
@<TRIPOS>BOND
     1    1    2 1   
     2    1    3 1   
     3    1   12 1   
     4    1   14 1   
     5    2    4 2   
     6    3    5 1   
     7    3    6 1   
     8    3   15 1   
     9    4    7 2   
    10    5   16 1   
    11    6    8 1   
    12    6    9 1   
    13    6   17 1   
    14    7   18 1   
    15    8   19 1   
    16    9   10 1   
    17    9   11 1   
    18    9   20 1   
    19   10   21 1   
    20   11   12 1   
    21   11   13 1   
    22   11   22 1   
    23   13   23 1   
    24   13   24 1   
    25   13   25 1   
@<TRIPOS>SUBSTRUCTURE
     1 FUY         1 TEMP              0 ****  ****    0 ROOT
