@<TRIPOS>MOLECULE
FUY
   25    25     1     0     0
SMALL
bcc


@<TRIPOS>ATOM
      1 C1         -0.8770    0.0020    0.8710 c3        1 FUY      0.338300
      2 N1         -2.3390   -0.1460    0.6270 n2        1 FUY     -0.029200
      3 C2         -0.2590    1.1130   -0.0230 c3        1 FUY      0.128100
      4 N2         -2.8980   -0.9030   -0.1150 n1        1 FUY      0.215000
      5 O2         -0.9240    2.3140    0.2920 oh        1 FUY     -0.593800
      6 C3          1.2470    1.1850    0.3010 c3        1 FUY      0.068100
      7 N3         -3.6210   -1.7520   -0.5560 n2        1 FUY     -0.191400
      8 O3          1.7660    2.1440   -0.6040 oh        1 FUY     -0.595800
      9 C4          1.8840   -0.1910    0.0410 c3        1 FUY      0.082100
     10 O4          1.7410   -0.5510   -1.3210 oh        1 FUY     -0.583800
     11 C5          1.1730   -1.2520    0.8920 c3        1 FUY      0.171100
     12 O5         -0.2520   -1.2500    0.6460 os        1 FUY     -0.439600
     13 C6          1.6250   -2.6590    0.5610 c3        1 FUY     -0.098100
     14 H1         -0.8650    0.2930    1.9690 h2        1 FUY      0.149700
     15 H2         -0.3810    0.8600   -1.1140 h1        1 FUY      0.090700
     16 HO2        -0.4140    3.0350   -0.1120 ho        1 FUY      0.457000
     17 H3          1.4070    1.5060    1.3660 h1        1 FUY      0.074700
     18 HN3        -4.0020   -1.6220   -1.4980 hn        1 FUY      0.523400
     19 HO3         2.6150    2.4460   -0.2530 ho        1 FUY      0.437000
     20 H4          2.9740   -0.1670    0.3200 h1        1 FUY      0.078700
     21 HO4         2.1740    0.1440   -1.8400 ho        1 FUY      0.433000
     22 H5          1.3340   -1.0120    1.9810 h1        1 FUY      0.064700
     23 H6          2.7000   -2.7650    0.8440 hc        1 FUY      0.073367
     24 H6A         1.0180   -3.4030    1.1300 hc        1 FUY      0.073367
     25 H6B         1.5140   -2.8550   -0.5330 hc        1 FUY      0.073367
@<TRIPOS>BOND
     1    1    2 1   
     2    1    3 1   
     3    1   12 1   
     4    1   14 1   
     5    2    4 2   
     6    3    5 1   
     7    3    6 1   
     8    3   15 1   
     9    4    7 2   
    10    5   16 1   
    11    6    8 1   
    12    6    9 1   
    13    6   17 1   
    14    7   18 1   
    15    8   19 1   
    16    9   10 1   
    17    9   11 1   
    18    9   20 1   
    19   10   21 1   
    20   11   12 1   
    21   11   13 1   
    22   11   22 1   
    23   13   23 1   
    24   13   24 1   
    25   13   25 1   
@<TRIPOS>SUBSTRUCTURE
     1 FUY         1 TEMP              0 ****  ****    0 ROOT
