@<TRIPOS>MOLECULE
FUY
   25    25     1     0     0
SMALL
bcc


@<TRIPOS>ATOM
      1 C1          0.0660    0.7560    0.5120 c3        1 FUY      0.340300
      2 N1         -0.6300    1.2060   -0.7290 n2        1 FUY     -0.030200
      3 C2          1.5550    0.4070    0.2410 c3        1 FUY      0.123100
      4 N2         -1.1590    0.5300   -1.5640 n1        1 FUY      0.220000
      5 O2          2.1690    1.5810   -0.2370 oh        1 FUY     -0.593800
      6 C3          2.1750   -0.0640    1.5720 c3        1 FUY      0.068100
      7 N3         -1.5570    0.0180   -2.5700 n2        1 FUY     -0.191400
      8 O3          3.4940   -0.4570    1.2380 oh        1 FUY     -0.594800
      9 C4          1.3780   -1.2710    2.0970 c3        1 FUY      0.082100
     10 O4          1.4430   -2.3450    1.1780 oh        1 FUY     -0.583800
     11 C5         -0.0950   -0.8770    2.2660 c3        1 FUY      0.171100
     12 O5         -0.6420   -0.3550    1.0330 os        1 FUY     -0.442600
     13 C6         -0.9750   -2.0600    2.6150 c3        1 FUY     -0.098100
     14 H1         -0.0380    1.6740    1.1730 h2        1 FUY      0.147700
     15 H2          1.6400   -0.4270   -0.5120 h1        1 FUY      0.093700
     16 HO2         3.1260    1.4170   -0.2490 ho        1 FUY      0.458000
     17 H3          2.1790    0.7710    2.3230 h1        1 FUY      0.074700
     18 HN3        -2.5610   -0.1710   -2.6630 hn        1 FUY      0.524400
     19 HO3         4.0120   -0.4630    2.0540 ho        1 FUY      0.437000
     20 H4          1.7890   -1.5940    3.0950 h1        1 FUY      0.077700
     21 HO4         2.3820   -2.5520    1.0550 ho        1 FUY      0.433000
     22 H5         -0.1680   -0.0660    3.0450 h1        1 FUY      0.064700
     23 H6         -2.0470   -1.7510    2.6400 hc        1 FUY      0.072700
     24 H6A        -0.8450   -2.8740    1.8610 hc        1 FUY      0.072700
     25 H6B        -0.6770   -2.4430    3.6210 hc        1 FUY      0.072700
@<TRIPOS>BOND
     1    1    2 1   
     2    1    3 1   
     3    1   12 1   
     4    1   14 1   
     5    2    4 2   
     6    3    5 1   
     7    3    6 1   
     8    3   15 1   
     9    4    7 2   
    10    5   16 1   
    11    6    8 1   
    12    6    9 1   
    13    6   17 1   
    14    7   18 1   
    15    8   19 1   
    16    9   10 1   
    17    9   11 1   
    18    9   20 1   
    19   10   21 1   
    20   11   12 1   
    21   11   13 1   
    22   11   22 1   
    23   13   23 1   
    24   13   24 1   
    25   13   25 1   
@<TRIPOS>SUBSTRUCTURE
     1 FUY         1 TEMP              0 ****  ****    0 ROOT
