@<TRIPOS>MOLECULE
FUY
   25    25     1     0     0
SMALL
bcc


@<TRIPOS>ATOM
      1 C1          0.0960    0.7330    0.5640 c3        1 FUY      0.307300
      2 N1         -0.5630    1.2280   -0.6800 n2        1 FUY     -0.041200
      3 C2          1.6020    0.4240    0.3190 c3        1 FUY      0.075100
      4 N2         -1.0910    0.5830   -1.5400 n1        1 FUY      0.221000
      5 O2          2.2800    1.5620   -0.1410 oh        1 FUY     -0.562800
      6 C3          2.1980   -0.1400    1.6230 c3        1 FUY      0.081100
      7 N3         -1.4750    0.0930   -2.5620 n2        1 FUY     -0.187400
      8 O3          3.5100   -0.6040    1.3870 oh        1 FUY     -0.573800
      9 C4          1.3880   -1.3760    2.0620 c3        1 FUY      0.119100
     10 O4          1.4650   -2.3820    1.0720 oh        1 FUY     -0.589800
     11 C5         -0.0850   -0.9840    2.2330 c3        1 FUY      0.166100
     12 O5         -0.6160   -0.4040    1.0190 os        1 FUY     -0.439600
     13 C6         -0.9700   -2.1790    2.5160 c3        1 FUY     -0.098100
     14 H1         -0.0510    1.6160    1.2620 h2        1 FUY      0.129700
     15 H2          1.7220   -0.3490   -0.4960 h1        1 FUY      0.134700
     16 HO2         2.4100    2.1700    0.6020 ho        1 FUY      0.422000
     17 H3          2.1970    0.6460    2.4260 h1        1 FUY      0.058700
     18 HN3        -2.4810   -0.0680   -2.6850 hn        1 FUY      0.524400
     19 HO3         4.0270    0.1360    1.0360 ho        1 FUY      0.434000
     20 H4          1.7920   -1.7540    3.0430 h1        1 FUY      0.092700
     21 HO4         2.3860   -2.6840    1.0520 ho        1 FUY      0.442000
     22 H5         -0.1660   -0.2100    3.0480 h1        1 FUY      0.063700
     23 H6         -2.0420   -1.8700    2.5380 hc        1 FUY      0.073033
     24 H6A        -0.6880   -2.6060    3.5090 hc        1 FUY      0.073033
     25 H6B        -0.8300   -2.9600    1.7300 hc        1 FUY      0.073033
@<TRIPOS>BOND
     1    1    2 1   
     2    1    3 1   
     3    1   12 1   
     4    1   14 1   
     5    2    4 2   
     6    3    5 1   
     7    3    6 1   
     8    3   15 1   
     9    4    7 2   
    10    5   16 1   
    11    6    8 1   
    12    6    9 1   
    13    6   17 1   
    14    7   18 1   
    15    8   19 1   
    16    9   10 1   
    17    9   11 1   
    18    9   20 1   
    19   10   21 1   
    20   11   12 1   
    21   11   13 1   
    22   11   22 1   
    23   13   23 1   
    24   13   24 1   
    25   13   25 1   
@<TRIPOS>SUBSTRUCTURE
     1 FUY         1 TEMP              0 ****  ****    0 ROOT
