@<TRIPOS>MOLECULE
FUZ
   27    27     1     0     0
SMALL
bcc


@<TRIPOS>ATOM
      1 OAA        -0.1120    1.4050    0.7580 o         1 FUZ     -0.329000
      2 OAB         1.9770    2.3300    0.7190 os        1 FUZ     -0.187000
      3 CAC         3.3760   -1.7760    3.2640 c1        1 FUZ      0.206000
      4 CAD         3.2310    2.0080    1.1710 c1        1 FUZ      0.098000
      5 CAE        -4.6420   -1.4100    3.1620 c3        1 FUZ     -0.282000
      6 CAF        -3.8880   -2.7030    2.9100 c1        1 FUZ      0.096000
      7 CAG        -3.5370   -0.3930    3.2990 c2        1 FUZ     -0.142000
      8 CAH         2.0770   -1.8870    3.0120 c2        1 FUZ     -0.400000
      9 CAI         3.1640    0.7260    1.8420 c2        1 FUZ     -0.447000
     10 CAJ        -0.9410   -0.6340    3.2460 c3        1 FUZ     -0.063000
     11 OAL        -2.5930   -2.4430    2.9180 os        1 FUZ     -0.124000
     12 CAM         1.0730    1.3170    1.0610 c2        1 FUZ      0.278000
     13 CAN        -2.3570   -1.0350    3.1580 c2        1 FUZ     -0.145000
     14 CAO         1.2950   -0.9110    2.2920 c2        1 FUZ     -0.300000
     15 CAP         1.8520    0.2550    1.8020 c2        1 FUZ     -0.002000
     16 HAC         1.5780   -2.8060    3.3790 ha        1 FUZ      0.170000
     17 HAD         6.2680   -0.4930    3.1360 ha        1 FUZ      0.000500
     18 HAH         5.7110   -0.8680    3.2290 ha        1 FUZ      0.000500
     19 HAI         4.0260    0.2360    2.2930 ha        1 FUZ      0.178000
     20 HAJ        -0.8540    0.4930    3.2290 hx        1 FUZ      0.158000
     21 HAJA       -0.4860   -1.0210    4.2050 hx        1 FUZ      0.158000
     22 HAE        -5.3280   -1.1780    2.3080 hc        1 FUZ      0.164500
     23 HAF        -5.2610   -1.4910    4.0930 hc        1 FUZ      0.164500
     24 NAK        -0.1250   -1.1690    2.1090 n4        1 FUZ      0.070000
     25 HAG        -3.7200    0.6660    3.4750 ha        1 FUZ      0.185000
     26 HNAK       -0.4420   -0.7140    1.2390 hn        1 FUZ      0.247000
     27 HAK2       -0.2800   -2.1790    2.0350 hn        1 FUZ      0.247000
@<TRIPOS>BOND
     1    1   12 1   
     2    2    4 1   
     3    2   12 1   
     4    3    8 1   
     5    4    9 1   
     6    5    6 1   
     7    5    7 1   
     8    5   22 1   
     9    5   23 1   
    10    6   11 1   
    11    7   13 1   
    12    7   25 1   
    13    8   14 1   
    14    8   16 1   
    15    9   15 1   
    16    9   19 1   
    17   10   13 1   
    18   10   20 1   
    19   10   21 1   
    20   10   24 1   
    21   11   13 1   
    22   12   15 1   
    23   14   15 1   
    24   14   24 1   
    25   17   18 1   
    26   24   26 1   
    27   24   27 1   
@<TRIPOS>SUBSTRUCTURE
     1 FUZ         1 TEMP              0 ****  ****    0 ROOT
