@<TRIPOS>MOLECULE
FUZ
   26    22     1     0     0
SMALL
bcc


@<TRIPOS>ATOM
      1 OAA         1.2550    1.5820    2.5440 o         1 FUZ     -0.571500
      2 OAB        -0.6440    0.9500    3.4140 o         1 FUZ     -0.571500
      3 CAC         0.8750   -3.2800    1.1960 c1        1 FUZ     -0.160000
      4 CAD         1.3790   -2.9550    2.4460 c1        1 FUZ     -0.160000
      5 CAE        -1.3090    3.1760   -3.0060 c1        1 FUZ     -0.196000
      6 CAF        -0.9430    2.1560   -3.8610 c1        1 FUZ     -0.133000
      7 CAG        -1.1910    2.7150   -1.7250 c1        1 FUZ     -0.171000
      8 CAH         0.2300   -2.3170    0.4360 c1        1 FUZ     -0.189000
      9 CAI         1.2380   -1.6660    2.9360 c1        1 FUZ     -0.086000
     10 CAJ        -0.0260    0.2210   -1.1900 c3        1 FUZ      0.017000
     11 NAK        -0.5140   -0.0260    0.1220 n3        1 FUZ     -0.272000
     12 OAL        -0.6000    1.0680   -3.1000 os        1 FUZ     -0.127000
     13 CAM         0.3860    0.6900    2.7370 c2        1 FUZ      0.362000
     14 CAN        -0.7510    1.4080   -1.7820 c2        1 FUZ     -0.089000
     15 CAO         0.0880   -1.0280    0.9260 c2        1 FUZ      0.060000
     16 CAP         0.5920   -0.7020    2.1760 c2        1 FUZ     -0.144000
     17 HAC         0.9750   -4.1880    0.8500 ha        1 FUZ      0.103500
     18 HAD         1.8340   -3.6330    2.9810 ha        1 FUZ      0.103500
     19 HAE        -1.6010    4.0690   -3.2700 DU        1 FUZ      0.181667
     20 HAF        -0.9300    2.2010   -4.8360 DU        1 FUZ      0.181667
     21 HAG        -1.3840    3.2210   -0.9130 DU        1 FUZ      0.181667
     22 HAH        -0.1250   -2.5460   -0.4440 ha        1 FUZ      0.111000
     23 HAI         1.6110   -1.4310    3.8070 ha        1 FUZ      0.149000
     24 HAJ         0.9340    0.4110   -1.1510 h1        1 FUZ      0.092000
     25 HAJA       -0.1810   -0.5680   -1.7490 h1        1 FUZ      0.092000
     26 HNAK       -1.1990    0.4740    0.4560 hn        1 FUZ      0.236000
@<TRIPOS>BOND
     1    1   13 1   
     2    2   13 1   
     3    3    4 1   
     4    3   17 1   
     5    4   18 1   
     6    5    6 1   
     7    5    7 1   
     8    6   12 1   
     9    7   14 1   
    10    8   15 1   
    11    8   22 1   
    12    9   16 1   
    13    9   23 1   
    14   10   11 1   
    15   10   14 1   
    16   10   24 1   
    17   10   25 1   
    18   11   15 1   
    19   11   26 1   
    20   12   14 1   
    21   13   16 1   
    22   15   16 1   
@<TRIPOS>SUBSTRUCTURE
     1 FUZ         1 TEMP              0 ****  ****    0 ROOT
