@<TRIPOS>MOLECULE
FUZ
   26    27     1     0     0
SMALL
bcc


@<TRIPOS>ATOM
      1 OAA        -0.2890   -2.2290    0.3010 o         1 FUZ     -0.836800
      2 OAB        -2.4420   -2.6140   -0.0960 o         1 FUZ     -0.836800
      3 CAC        -2.3600    2.3720   -0.4810 ca        1 FUZ     -0.132000
      4 CAD        -3.1390    1.3840   -1.0770 ca        1 FUZ     -0.188000
      5 CAE         3.5060   -0.5810   -1.2780 cc        1 FUZ     -0.261300
      6 CAF         4.1440    0.5910   -0.9280 cd        1 FUZ      0.198600
      7 CAG         2.2990   -0.6560   -0.4830 cc        1 FUZ     -0.235300
      8 CAH        -1.2810    2.0250    0.3250 ca        1 FUZ     -0.189000
      9 CAI        -2.8250    0.0440   -0.8610 ca        1 FUZ     -0.086000
     10 CAJ         1.3470    1.0070    1.3380 c3        1 FUZ      0.159500
     11 OAL         3.4100    1.2700    0.0460 os        1 FUZ     -0.385800
     12 CAM        -1.4700   -1.8260    0.0620 c         1 FUZ      0.913200
     13 CAN         2.2770    0.4790    0.3030 cd        1 FUZ      0.200000
     14 CAO        -0.9470    0.6690    0.5480 ca        1 FUZ      0.141600
     15 CAP        -1.7370   -0.3350   -0.0730 ca        1 FUZ     -0.164600
     16 HAC        -2.5950    3.4330   -0.6430 ha        1 FUZ      0.101000
     17 HAD        -3.9950    1.6580   -1.7080 ha        1 FUZ      0.106000
     18 HAG         1.5440   -1.4520   -0.5010 ha        1 FUZ      0.230000
     19 HAH        -0.6960    2.8270    0.7960 ha        1 FUZ      0.111000
     20 HAI        -3.4360   -0.7570   -1.3100 ha        1 FUZ      0.149000
     21 HAJ         1.1910    2.1060    1.1430 h1        1 FUZ      0.052700
     22 HAJA        1.8650    0.9070    2.3390 h1        1 FUZ      0.052700
     23 HAE         3.8260   -1.3190   -2.0070 ha        1 FUZ      0.148000
     24 NAK         0.0800    0.3330    1.4640 nh        1 FUZ     -0.716600
     25 HAF         5.0560    1.0920   -1.2280 h4        1 FUZ      0.030100
     26 HNAK        0.2010   -0.6720    1.5190 hn        1 FUZ      0.440800
@<TRIPOS>BOND
     1    1   12 1   
     2    2   12 1   
     3    3    4 ar  
     4    3    8 ar  
     5    3   16 1   
     6    4    9 ar  
     7    4   17 1   
     8    5    6 2   
     9    5    7 1   
    10    5   23 1   
    11    6   11 1   
    12    6   25 1   
    13    7   13 2   
    14    7   18 1   
    15    8   14 ar  
    16    8   19 1   
    17    9   15 ar  
    18    9   20 1   
    19   10   13 1   
    20   10   21 1   
    21   10   22 1   
    22   10   24 1   
    23   11   13 1   
    24   12   15 1   
    25   14   15 ar  
    26   14   24 1   
    27   24   26 1   
@<TRIPOS>SUBSTRUCTURE
     1 FUZ         1 TEMP              0 ****  ****    0 ROOT
