@<TRIPOS>MOLECULE
FUZ
   26    27     1     0     0
SMALL
bcc


@<TRIPOS>ATOM
      1 OAA         0.7020   -0.0830   -0.7950 o         1 FUZ     -0.383000
      2 OAB         2.9460    0.1320   -0.5670 os        1 FUZ     -0.231000
      3 CAC         3.5510   -0.4260    3.0750 c3        1 FUZ     -0.027000
      4 CAD         3.9330    0.0740    0.4410 c1        1 FUZ     -0.072000
      5 CAE        -4.5400   -1.0040    2.8710 c1        1 FUZ     -0.142000
      6 CAF        -5.7280   -1.0420    3.0050 c1        1 FUZ     -0.226000
      7 CAG        -3.1210   -0.9640    2.6870 c3        1 FUZ     -0.114000
      8 CAH         2.1520   -0.6940    3.6980 c3        1 FUZ     -0.101000
      9 CAI         3.2930   -0.2060    1.6390 c2        1 FUZ     -0.455000
     10 CAJ        -0.9110   -0.0260    3.6000 c3        1 FUZ     -0.121000
     11 OAL        -2.8320   -0.3120    4.9980 o         1 FUZ     -0.302000
     12 CAM         1.6780   -0.1050   -0.0420 c2        1 FUZ      0.320000
     13 CAN        -2.3470   -0.4400    3.8700 c2        1 FUZ      0.238000
     14 CAO         1.1640   -0.6160    2.5420 c2        1 FUZ     -0.083000
     15 CAP         1.8440   -0.3320    1.4030 c2        1 FUZ     -0.143000
     16 HAC         2.1130   -1.7030    4.1760 hc        1 FUZ      0.062500
     17 HAD         4.2240   -1.3020    3.2540 hc        1 FUZ      0.050000
     18 HAG        -2.8820   -0.3270    1.7870 hc        1 FUZ      0.135500
     19 HAH         1.9100    0.0720    4.4750 hc        1 FUZ      0.062500
     20 HAI         4.0220    0.4660    3.5610 hc        1 FUZ      0.050000
     21 HAJ        -0.9590    1.0440    3.2350 h1        1 FUZ      0.101000
     22 HAJA       -0.3540   -0.0210    4.5820 h1        1 FUZ      0.101000
     23 HAE        -2.7410   -2.0060    2.4720 hc        1 FUZ      0.135500
     24 NAK        -0.2070   -0.9090    2.6890 n7        1 FUZ     -0.234000
     25 HAF        -6.7780   -1.0750    3.1280 ha        1 FUZ      0.215000
     26 HNAK       -0.6490   -0.9010    1.7840 hn        1 FUZ      0.164000
@<TRIPOS>BOND
     1    1   12 1   
     2    2    4 1   
     3    2   12 1   
     4    3    8 1   
     5    3    9 1   
     6    3   17 1   
     7    3   20 1   
     8    4    9 1   
     9    5    6 1   
    10    5    7 1   
    11    6   25 1   
    12    7   13 1   
    13    7   18 1   
    14    7   23 1   
    15    8   14 1   
    16    8   16 1   
    17    8   19 1   
    18    9   15 1   
    19   10   13 1   
    20   10   21 1   
    21   10   22 1   
    22   10   24 1   
    23   11   13 1   
    24   12   15 1   
    25   14   15 1   
    26   14   24 1   
    27   24   26 1   
@<TRIPOS>SUBSTRUCTURE
     1 FUZ         1 TEMP              0 ****  ****    0 ROOT
