@<TRIPOS>MOLECULE
FV0
   41    38     1     0     0
SMALL
bcc


@<TRIPOS>ATOM
      1 N11         1.5310   -0.6350    1.7340 n3        1 FV0     -0.835200
      2 C12         2.8990   -0.1870    1.8470 c3        1 FV0      0.167800
      3 C13         3.2490    0.0290    3.3430 c3        1 FV0     -0.072700
      4 C14         4.3450   -0.9410    3.7540 c3        1 FV0     -0.092600
      5 C15         3.7340    1.4670    3.5530 c3        1 FV0     -0.092600
      6 C16         1.0890   -0.5010    0.3630 c3        1 FV0      0.122800
      7 C17        -0.4190   -0.7290    0.2910 c3        1 FV0      0.105100
      8 O18        -1.0700    0.1670    1.1540 oh        1 FV0     -0.599800
      9 C19        -0.8920   -0.5030   -1.1160 c3        1 FV0      0.176500
     10 N20        -0.5660   -1.6440   -1.9200 n3        1 FV0     -0.906800
     11 C32        -2.3920   -0.2970   -1.1180 c3        1 FV0     -0.063300
     12 C33        -3.6180   -0.4870   -3.2350 c1        1 FV0     -0.050500
     13 C34        -4.4700    0.1010   -4.1600 c1        1 FV0     -0.074500
     14 C35        -4.5180    1.4820   -4.2790 c1        1 FV0     -0.074500
     15 C36        -3.7130    2.2780   -3.4720 c1        1 FV0     -0.074500
     16 C37        -2.8610    1.6900   -2.5470 c1        1 FV0     -0.074500
     17 C38        -2.8130    0.3100   -2.4280 c1        1 FV0     -0.035100
     18 H12         3.0080    0.6560    1.3620 h1        1 FV0      0.031700
     19 H12A        3.4990   -0.8660    1.4650 h1        1 FV0      0.031700
     20 H13         2.4530   -0.1290    3.8890 hc        1 FV0      0.062700
     21 H14         4.4880   -0.8830    4.7280 hc        1 FV0      0.035700
     22 H14A        5.1760   -0.7120    3.2870 hc        1 FV0      0.035700
     23 H14B        4.0800   -1.8500    3.5180 hc        1 FV0      0.035700
     24 H15         3.0140    2.0930    3.3170 hc        1 FV0      0.035700
     25 H15A        4.5120    1.6350    2.9860 hc        1 FV0      0.035700
     26 H15B        3.9840    1.5960    4.5020 hc        1 FV0      0.035700
     27 H16         1.5480   -1.1660   -0.1970 h1        1 FV0      0.038700
     28 H16A        1.2990    0.3990    0.0390 h1        1 FV0      0.038700
     29 H17        -0.6220   -1.6440    0.5580 h1        1 FV0      0.028700
     30 HO18       -1.4870   -0.2870    1.7900 ho        1 FV0      0.420000
     31 H19        -0.4530    0.2930   -1.4850 h1        1 FV0      0.077700
     32 HN20       -0.4290   -2.3650   -1.3820 hn        1 FV0      0.349300
     33 H32        -2.6400    0.3060   -0.3820 hc        1 FV0      0.059200
     34 H32A       -2.8370   -1.1540   -0.9990 hc        1 FV0      0.059200
     35 H33        -3.5830   -1.4690   -3.1500 ha        1 FV0      0.074500
     36 H34        -5.0380   -0.4610   -4.7290 ha        1 FV0      0.070750
     37 H35        -5.1170    1.8950   -4.9290 ha        1 FV0      0.070750
     38 H36        -3.7470    3.2480   -3.5550 ha        1 FV0      0.070750
     39 H37        -2.2970    2.2490   -1.9810 ha        1 FV0      0.070750
     40 H2          1.4760   -1.5100    1.9860 hn        1 FV0      0.357800
     41 H1          0.1970   -1.4720   -2.4010 hn        1 FV0      0.349300
@<TRIPOS>BOND
     1    1    2 1   
     2    1    6 1   
     3    1   40 1   
     4    2    3 1   
     5    2   18 1   
     6    2   19 1   
     7    3    4 1   
     8    3    5 1   
     9    3   20 1   
    10    4   21 1   
    11    4   22 1   
    12    4   23 1   
    13    5   24 1   
    14    5   25 1   
    15    5   26 1   
    16    6    7 1   
    17    6   27 1   
    18    6   28 1   
    19    7    8 1   
    20    7    9 1   
    21    7   29 1   
    22    8   30 1   
    23    9   10 1   
    24    9   11 1   
    25    9   31 1   
    26   10   32 1   
    27   10   41 1   
    28   11   17 1   
    29   11   33 1   
    30   11   34 1   
    31   12   17 3   
    32   12   35 1   
    33   13   14 3   
    34   13   36 1   
    35   14   37 1   
    36   15   16 3   
    37   15   38 1   
    38   16   39 1   
@<TRIPOS>SUBSTRUCTURE
     1 FV0         1 TEMP              0 ****  ****    0 ROOT
