@<TRIPOS>MOLECULE
FV0
   41    41     1     0     0
SMALL
bcc


@<TRIPOS>ATOM
      1 N11        -3.0360    0.4270    1.1900 n3        1 FV0     -0.810200
      2 C12        -3.9400   -0.5160    0.5590 c3        1 FV0      0.161800
      3 C13        -5.3060    0.0860    0.2010 c3        1 FV0     -0.071700
      4 C14        -5.1930    1.0710   -0.9430 c3        1 FV0     -0.092600
      5 C15        -6.2570   -1.0370   -0.1610 c3        1 FV0     -0.092600
      6 C16        -1.6920   -0.0700    1.3640 c3        1 FV0      0.127800
      7 C17        -0.7830   -0.0370    0.1190 c3        1 FV0      0.052100
      8 O18        -0.8760    1.2240   -0.5250 oh        1 FV0     -0.592800
      9 C19         0.6960   -0.3490    0.4860 c3        1 FV0      0.147500
     10 N20         0.8950   -1.5560    1.2560 n3        1 FV0     -0.902800
     11 C32         1.5130   -0.3550   -0.8220 c3        1 FV0     -0.034100
     12 C33         3.7720   -1.2300   -0.1720 ca        1 FV0     -0.118500
     13 C34         5.1370   -1.0420    0.0410 ca        1 FV0     -0.133000
     14 C35         5.7100    0.2150   -0.1490 ca        1 FV0     -0.131000
     15 C36         4.9120    1.2860   -0.5530 ca        1 FV0     -0.133000
     16 C37         3.5480    1.1000   -0.7660 ca        1 FV0     -0.118500
     17 C38         2.9660   -0.1590   -0.5760 ca        1 FV0     -0.076300
     18 H12        -3.5000   -0.9690   -0.3780 h1        1 FV0      0.028200
     19 H12A       -4.1030   -1.3570    1.2930 h1        1 FV0      0.028200
     20 H13        -5.7170    0.6240    1.1010 hc        1 FV0      0.061700
     21 H14        -4.6910    0.5990   -1.8220 hc        1 FV0      0.035367
     22 H14A       -6.2100    1.4110   -1.2590 hc        1 FV0      0.035367
     23 H14B       -4.6060    1.9710   -0.6410 hc        1 FV0      0.035367
     24 H15        -6.3730   -1.7430    0.6950 hc        1 FV0      0.035367
     25 H15A       -7.2610   -0.6220   -0.4170 hc        1 FV0      0.035367
     26 H15B       -5.8750   -1.6070   -1.0420 hc        1 FV0      0.035367
     27 H16        -1.2150    0.5670    2.1630 h1        1 FV0      0.052700
     28 H16A       -1.7490   -1.1270    1.7450 h1        1 FV0      0.052700
     29 H17        -1.1510   -0.7640   -0.6580 h1        1 FV0      0.076700
     30 HO18       -0.5230    1.8840    0.0840 ho        1 FV0      0.400000
     31 H19         1.0690    0.5100    1.1230 h1        1 FV0      0.062700
     32 HN20        0.4070   -1.5040    2.1280 hn        1 FV0      0.351300
     33 H32         1.3470   -1.3190   -1.3720 hc        1 FV0      0.058700
     34 H32A        1.1210    0.4730   -1.4730 hc        1 FV0      0.058700
     35 H34         5.7620   -1.8880    0.3620 ha        1 FV0      0.129000
     36 H35         6.7860    0.3620    0.0190 ha        1 FV0      0.129000
     37 H36         5.3610    2.2790   -0.7050 ha        1 FV0      0.129000
     38 H37         2.9240    1.9480   -1.0890 ha        1 FV0      0.133000
     39 H2         -3.0170    1.2910    0.6730 hn        1 FV0      0.367800
     40 H1          0.5890   -2.3620    0.7490 hn        1 FV0      0.351300
     41 H33         3.3210   -2.2210   -0.0120 ha        1 FV0      0.133000
@<TRIPOS>BOND
     1    1    2 1   
     2    1    6 1   
     3    1   39 1   
     4    2    3 1   
     5    2   18 1   
     6    2   19 1   
     7    3    4 1   
     8    3    5 1   
     9    3   20 1   
    10    4   21 1   
    11    4   22 1   
    12    4   23 1   
    13    5   24 1   
    14    5   25 1   
    15    5   26 1   
    16    6    7 1   
    17    6   27 1   
    18    6   28 1   
    19    7    8 1   
    20    7    9 1   
    21    7   29 1   
    22    8   30 1   
    23    9   10 1   
    24    9   11 1   
    25    9   31 1   
    26   10   32 1   
    27   10   40 1   
    28   11   17 1   
    29   11   33 1   
    30   11   34 1   
    31   12   13 ar  
    32   12   17 ar  
    33   12   41 1   
    34   13   14 ar  
    35   13   35 1   
    36   14   15 ar  
    37   14   36 1   
    38   15   16 ar  
    39   15   37 1   
    40   16   17 ar  
    41   16   38 1   
@<TRIPOS>SUBSTRUCTURE
     1 FV0         1 TEMP              0 ****  ****    0 ROOT
