@<TRIPOS>MOLECULE
FV0
   43    43     1     0     0
SMALL
bcc


@<TRIPOS>ATOM
      1 N11         0.0180   -0.2500    0.0960 ny        1 FV0     -0.757000
      2 C12         1.4860    0.0540    0.1300 c3        1 FV0      0.102800
      3 C13         2.0170    0.2030    1.5620 c3        1 FV0     -0.085700
      4 C14         1.8520   -1.0740    2.3540 c3        1 FV0     -0.114100
      5 C15         3.4810    0.5910    1.4660 c3        1 FV0     -0.114100
      6 C16        -0.4930   -0.4030   -1.2930 c3        1 FV0      0.094800
      7 C17        -2.0290   -0.6050   -1.3560 c3        1 FV0      0.117100
      8 O18        -2.5660    0.3890   -0.5090 oh        1 FV0     -0.591800
      9 C19        -2.5470   -0.3880   -2.8040 c3        1 FV0      0.080500
     10 N20        -2.3040   -1.5750   -3.6890 nz        1 FV0     -0.844600
     11 C32        -4.0500   -0.0390   -2.7900 c3        1 FV0     -0.049100
     12 C33        -5.2290   -1.1330   -4.7070 ca        1 FV0     -0.133500
     13 C34        -5.8140   -1.0770   -5.9700 ca        1 FV0     -0.105000
     14 C35        -5.7910    0.1160   -6.7000 ca        1 FV0     -0.078000
     15 C36        -5.1860    1.2510   -6.1610 ca        1 FV0     -0.105000
     16 C37        -4.6010    1.1990   -4.8950 ca        1 FV0     -0.133500
     17 C38        -4.6150    0.0060   -4.1640 ca        1 FV0     -0.192300
     18 H12         1.6540    1.0140   -0.4390 hx        1 FV0      0.108200
     19 H12A        2.0260   -0.7870   -0.3920 hx        1 FV0      0.108200
     20 H13         1.4620    1.0370    2.0800 hc        1 FV0      0.079700
     21 H14         2.2720   -1.9500    1.8030 hc        1 FV0      0.065033
     22 H14A        2.4060   -0.9860    3.3250 hc        1 FV0      0.065033
     23 H14B        0.7800   -1.2730    2.6000 hc        1 FV0      0.065033
     24 H15         3.6070    1.5320    0.8780 hc        1 FV0      0.065033
     25 H15A        4.0800   -0.2210    0.9880 hc        1 FV0      0.065033
     26 H15B        3.8850    0.7650    2.4950 hc        1 FV0      0.065033
     27 H16         0.0220   -1.2850   -1.7660 hx        1 FV0      0.111200
     28 H16A       -0.2180    0.5370   -1.8570 hx        1 FV0      0.111200
     29 H17        -2.3080   -1.6320   -0.9850 h1        1 FV0      0.075700
     30 HO18       -3.4970    0.1790   -0.3230 ho        1 FV0      0.468000
     31 H19        -1.9950    0.4840   -3.2740 hx        1 FV0      0.129700
     32 HN20       -2.7870   -1.4040   -4.5950 hn        1 FV0      0.471467
     33 H32        -4.1510    0.9730   -2.3050 hc        1 FV0      0.095700
     34 H32A       -4.6070   -0.7830   -2.1600 hc        1 FV0      0.095700
     35 H35        -6.2680    0.1620   -7.6940 ha        1 FV0      0.175000
     36 H36        -5.1840    2.1980   -6.7280 ha        1 FV0      0.169500
     37 H37        -4.1510    2.1080   -4.4650 ha        1 FV0      0.135500
     38 H2         -0.1560   -1.1080    0.6350 hn        1 FV0      0.468800
     39 H1         -1.3070   -1.7170   -3.8570 hn        1 FV0      0.471467
     40 H33        -5.3070   -2.0580   -4.1160 ha        1 FV0      0.135500
     41 H112       -0.5010    0.5160    0.5560 hn        1 FV0      0.468800
     42 H203       -2.7080   -2.4220   -3.2760 hn        1 FV0      0.471467
     43 H34        -6.3130   -1.9670   -6.3870 ha        1 FV0      0.169500
@<TRIPOS>BOND
     1    1    2 1   
     2    1    6 1   
     3    1   38 1   
     4    1   41 1   
     5    2    3 1   
     6    2   18 1   
     7    2   19 1   
     8    3    4 1   
     9    3    5 1   
    10    3   20 1   
    11    4   21 1   
    12    4   22 1   
    13    4   23 1   
    14    5   24 1   
    15    5   25 1   
    16    5   26 1   
    17    6    7 1   
    18    6   27 1   
    19    6   28 1   
    20    7    8 1   
    21    7    9 1   
    22    7   29 1   
    23    8   30 1   
    24    9   10 1   
    25    9   11 1   
    26    9   31 1   
    27   10   32 1   
    28   10   39 1   
    29   10   42 1   
    30   11   17 1   
    31   11   33 1   
    32   11   34 1   
    33   12   13 ar  
    34   12   17 ar  
    35   12   40 1   
    36   13   14 ar  
    37   13   43 1   
    38   14   15 ar  
    39   14   35 1   
    40   15   16 ar  
    41   15   36 1   
    42   16   17 ar  
    43   16   37 1   
@<TRIPOS>SUBSTRUCTURE
     1 FV0         1 TEMP              0 ****  ****    0 ROOT
