@<TRIPOS>MOLECULE
FV0
   43    43     1     0     0
SMALL
bcc


@<TRIPOS>ATOM
      1 N11         0.0180   -0.2490    0.0950 n4        1 FV0     -0.757000
      2 C12         1.4860    0.0590    0.1310 c3        1 FV0      0.102800
      3 C13         2.0150    0.2040    1.5640 c3        1 FV0     -0.085700
      4 C14         1.8500   -1.0760    2.3530 c3        1 FV0     -0.114100
      5 C15         3.4790    0.5940    1.4710 c3        1 FV0     -0.114100
      6 C16        -0.4910   -0.3980   -1.2950 c3        1 FV0      0.094800
      7 C17        -2.0250   -0.6080   -1.3590 c3        1 FV0      0.117100
      8 O18        -2.5690    0.3780   -0.5060 oh        1 FV0     -0.591800
      9 C19        -2.5450   -0.3850   -2.8060 c3        1 FV0      0.080500
     10 N20        -2.2920   -1.5630   -3.7000 n4        1 FV0     -0.844600
     11 C32        -4.0520   -0.0490   -2.7890 c3        1 FV0     -0.049100
     12 C33        -5.2210   -1.1410   -4.7140 ca        1 FV0     -0.133500
     13 C34        -5.8060   -1.0820   -5.9760 ca        1 FV0     -0.105000
     14 C35        -5.7960    0.1150   -6.6970 ca        1 FV0     -0.078000
     15 C36        -5.2010    1.2530   -6.1510 ca        1 FV0     -0.105000
     16 C37        -4.6150    1.1980   -4.8850 ca        1 FV0     -0.133500
     17 C38        -4.6170   -0.0000   -4.1620 ca        1 FV0     -0.192300
     18 H12         2.0290   -0.7780   -0.3930 hx        1 FV0      0.108200
     19 H12A        1.6510    1.0210   -0.4340 hx        1 FV0      0.108200
     20 H13         1.4590    1.0360    2.0840 hc        1 FV0      0.079700
     21 H14         0.7790   -1.2750    2.5990 hc        1 FV0      0.065033
     22 H14A        2.2700   -1.9500    1.7990 hc        1 FV0      0.065033
     23 H14B        2.4050   -0.9900    3.3230 hc        1 FV0      0.065033
     24 H15         4.0790   -0.2170    0.9920 hc        1 FV0      0.065033
     25 H15A        3.6050    1.5360    0.8840 hc        1 FV0      0.065033
     26 H15B        3.8820    0.7660    2.5010 hc        1 FV0      0.065033
     27 H16         0.0290   -1.2740   -1.7720 hx        1 FV0      0.111200
     28 H16A       -0.2220    0.5470   -1.8530 hx        1 FV0      0.111200
     29 H17        -2.2990   -1.6390   -0.9950 h1        1 FV0      0.075700
     30 HO18       -3.4980    0.1610   -0.3220 ho        1 FV0      0.468000
     31 H19        -2.0010    0.4950   -3.2690 hx        1 FV0      0.129700
     32 HN20       -2.7760   -1.3890   -4.6040 hn        1 FV0      0.471467
     33 H32        -4.6020   -0.8030   -2.1640 hc        1 FV0      0.095700
     34 H32A       -4.1610    0.9590   -2.2970 hc        1 FV0      0.095700
     35 H35        -6.2730    0.1640   -7.6910 ha        1 FV0      0.175000
     36 H36        -5.2080    2.2030   -6.7110 ha        1 FV0      0.169500
     37 H37        -4.1740    2.1080   -4.4500 ha        1 FV0      0.135500
     38 H2         -0.5020    0.5130    0.5590 hn        1 FV0      0.468800
     39 H1         -2.6880   -2.4170   -3.2930 hn        1 FV0      0.471467
     40 H33        -5.2890   -2.0710   -4.1280 ha        1 FV0      0.135500
     41 H112       -0.1530   -1.1110    0.6300 hn        1 FV0      0.468800
     42 H203       -1.2930   -1.6940   -3.8680 hn        1 FV0      0.471467
     43 H34        -6.2970   -1.9740   -6.3990 ha        1 FV0      0.169500
@<TRIPOS>BOND
     1    1    2 1   
     2    1    6 1   
     3    1   38 1   
     4    1   41 1   
     5    2    3 1   
     6    2   18 1   
     7    2   19 1   
     8    3    4 1   
     9    3    5 1   
    10    3   20 1   
    11    4   21 1   
    12    4   22 1   
    13    4   23 1   
    14    5   24 1   
    15    5   25 1   
    16    5   26 1   
    17    6    7 1   
    18    6   27 1   
    19    6   28 1   
    20    7    8 1   
    21    7    9 1   
    22    7   29 1   
    23    8   30 1   
    24    9   10 1   
    25    9   11 1   
    26    9   31 1   
    27   10   32 1   
    28   10   39 1   
    29   10   42 1   
    30   11   17 1   
    31   11   33 1   
    32   11   34 1   
    33   12   13 ar  
    34   12   17 ar  
    35   12   40 1   
    36   13   14 ar  
    37   13   43 1   
    38   14   15 ar  
    39   14   35 1   
    40   15   16 ar  
    41   15   36 1   
    42   16   17 ar  
    43   16   37 1   
@<TRIPOS>SUBSTRUCTURE
     1 FV0         1 TEMP              0 ****  ****    0 ROOT
