@<TRIPOS>MOLECULE
FV0
   43    43     1     0     0
SMALL
bcc


@<TRIPOS>ATOM
      1 N11         0.0160   -0.2570    0.0960 n4        1 FV0     -0.757000
      2 C12         1.4880    0.0310    0.1300 c3        1 FV0      0.102800
      3 C13         2.0190    0.1810    1.5610 c3        1 FV0     -0.085700
      4 C14         1.8380   -1.0900    2.3610 c3        1 FV0     -0.114100
      5 C15         3.4880    0.5520    1.4650 c3        1 FV0     -0.114100
      6 C16        -0.4960   -0.4110   -1.2930 c3        1 FV0      0.094800
      7 C17        -2.0330   -0.5970   -1.3560 c3        1 FV0      0.117100
      8 O18        -2.5610    0.4060   -0.5130 oh        1 FV0     -0.591800
      9 C19        -2.5480   -0.3800   -2.8050 c3        1 FV0      0.080500
     10 N20        -2.3160   -1.5730   -3.6860 n4        1 FV0     -0.844600
     11 C32        -4.0480   -0.0180   -2.7930 c3        1 FV0     -0.049100
     12 C33        -5.2360   -1.1090   -4.7070 ca        1 FV0     -0.133500
     13 C34        -5.8190   -1.0520   -5.9700 ca        1 FV0     -0.105000
     14 C35        -5.7860    0.1370   -6.7040 ca        1 FV0     -0.078000
     15 C36        -5.1710    1.2690   -6.1690 ca        1 FV0     -0.105000
     16 C37        -4.5870    1.2170   -4.9030 ca        1 FV0     -0.133500
     17 C38        -4.6120    0.0270   -4.1670 ca        1 FV0     -0.192300
     18 H12         1.6670    0.9860   -0.4430 hx        1 FV0      0.108200
     19 H12A        2.0190   -0.8180   -0.3870 hx        1 FV0      0.108200
     20 H13         1.4740    1.0240    2.0750 hc        1 FV0      0.079700
     21 H14         2.3930   -1.0030    3.3310 hc        1 FV0      0.065033
     22 H14A        2.2480   -1.9730    1.8140 hc        1 FV0      0.065033
     23 H14B        0.7650   -1.2740    2.6070 hc        1 FV0      0.065033
     24 H15         3.6260    1.4880    0.8720 hc        1 FV0      0.065033
     25 H15A        4.0770   -0.2700    0.9920 hc        1 FV0      0.065033
     26 H15B        3.8930    0.7270    2.4940 hc        1 FV0      0.065033
     27 H16        -0.2100    0.5230   -1.8600 hx        1 FV0      0.111200
     28 H16A        0.0110   -1.3000   -1.7610 hx        1 FV0      0.111200
     29 H17        -2.3220   -1.6200   -0.9800 h1        1 FV0      0.075700
     30 HO18       -3.4930    0.2070   -0.3270 ho        1 FV0      0.468000
     31 H19        -1.9880    0.4840   -3.2780 hx        1 FV0      0.129700
     32 HN20       -2.7280   -2.4150   -3.2690 hn        1 FV0      0.471467
     33 H32        -4.6120   -0.7540   -2.1600 hc        1 FV0      0.095700
     34 H32A       -4.1390    0.9970   -2.3120 hc        1 FV0      0.095700
     35 H35        -6.2610    0.1830   -7.6990 ha        1 FV0      0.175000
     36 H36        -5.1600    2.2130   -6.7390 ha        1 FV0      0.169500
     37 H37        -4.1290    2.1240   -4.4760 ha        1 FV0      0.135500
     38 H2         -0.1670   -1.1110    0.6390 hn        1 FV0      0.468800
     39 H1         -1.3200   -1.7250   -3.8520 hn        1 FV0      0.471467
     40 H33        -5.3210   -2.0300   -4.1110 ha        1 FV0      0.135500
     41 H112       -0.4940    0.5180    0.5530 hn        1 FV0      0.468800
     42 H203       -2.7960   -1.4010   -4.5910 hn        1 FV0      0.471467
     43 H34        -6.3260   -1.9400   -6.3840 ha        1 FV0      0.169500
@<TRIPOS>BOND
     1    1    2 1   
     2    1    6 1   
     3    1   38 1   
     4    1   41 1   
     5    2    3 1   
     6    2   18 1   
     7    2   19 1   
     8    3    4 1   
     9    3    5 1   
    10    3   20 1   
    11    4   21 1   
    12    4   22 1   
    13    4   23 1   
    14    5   24 1   
    15    5   25 1   
    16    5   26 1   
    17    6    7 1   
    18    6   27 1   
    19    6   28 1   
    20    7    8 1   
    21    7    9 1   
    22    7   29 1   
    23    8   30 1   
    24    9   10 1   
    25    9   11 1   
    26    9   31 1   
    27   10   32 1   
    28   10   39 1   
    29   10   42 1   
    30   11   17 1   
    31   11   33 1   
    32   11   34 1   
    33   12   13 ar  
    34   12   17 ar  
    35   12   40 1   
    36   13   14 ar  
    37   13   43 1   
    38   14   15 ar  
    39   14   35 1   
    40   15   16 ar  
    41   15   36 1   
    42   16   17 ar  
    43   16   37 1   
@<TRIPOS>SUBSTRUCTURE
     1 FV0         1 TEMP              0 ****  ****    0 ROOT
