@<TRIPOS>MOLECULE
FVA
   20    19     1     0     0
SMALL
bcc


@<TRIPOS>ATOM
      1 C           0.2860    1.5060   -0.5320 c         1 FVA      0.910600
      2 N          -1.1380   -0.5220   -0.4960 n         1 FVA     -0.529900
      3 O          -0.1630    1.7650   -1.6840 o         1 FVA     -0.832800
      4 CA          0.0860    0.0460    0.0280 c3        1 FVA     -0.041300
      5 CB          1.3470   -0.7770   -0.3180 c3        1 FVA     -0.059700
      6 CG1         2.5030   -0.2920    0.5350 c3        1 FVA     -0.091600
      7 CG2         1.1450   -2.2640   -0.1150 c3        1 FVA     -0.091600
      8 H          -1.4380   -0.1020   -1.3530 hn        1 FVA      0.328500
      9 HA          0.0000    0.1010    1.1510 h1        1 FVA      0.063700
     10 HB          1.5940   -0.5870   -1.4000 hc        1 FVA      0.046700
     11 HG11        2.3580   -0.5990    1.5990 hc        1 FVA      0.028533
     12 HG12        3.4620   -0.7310    0.1690 hc        1 FVA      0.028533
     13 HG13        2.5670    0.8250    0.4930 hc        1 FVA      0.028533
     14 HG21        0.6210   -2.4570    0.8530 hc        1 FVA      0.028533
     15 HG22        0.5290   -2.6970   -0.9390 hc        1 FVA      0.028533
     16 HG23        2.1290   -2.7930   -0.1040 hc        1 FVA      0.028533
     17 O1         -1.7910   -1.7880    1.3360 o         1 FVA     -0.669100
     18 CN         -2.0010   -1.3010    0.2030 c         1 FVA      0.644900
     19 HN         -2.9510   -1.5200   -0.3470 h5        1 FVA     -0.016800
     20 OXT         0.8800    2.3270    0.2150 o         1 FVA     -0.832800
@<TRIPOS>BOND
     1    1    3 1   
     2    1    4 1   
     3    1   20 1   
     4    2    4 1   
     5    2    8 1   
     6    2   18 1   
     7    4    5 1   
     8    4    9 1   
     9    5    6 1   
    10    5    7 1   
    11    5   10 1   
    12    6   11 1   
    13    6   12 1   
    14    6   13 1   
    15    7   14 1   
    16    7   15 1   
    17    7   16 1   
    18   17   18 2   
    19   18   19 1   
@<TRIPOS>SUBSTRUCTURE
     1 FVA         1 TEMP              0 ****  ****    0 ROOT
