@<TRIPOS>MOLECULE
FVF
   76    78     1     0     0
SMALL
bcc


@<TRIPOS>ATOM
      1 C1         -1.1010    1.5610   -0.5220 c         1 FVF      0.692100
      2 O1         -0.5400    2.5970   -0.1920 o         1 FVF     -0.470000
      3 OA1        -0.5780    0.3600   -0.7780 os        1 FVF     -0.369900
      4 CB1         0.8260    0.3230   -1.2190 c3        1 FVF      0.206700
      5 CG1         1.5210   -0.6630   -0.3500 ca        1 FVF     -0.139300
      6 CDB         1.5000   -2.0150   -0.7170 ca        1 FVF     -0.093000
      7 CDC         2.2100   -0.2580    0.7980 ca        1 FVF     -0.093000
      8 CEB         2.1730   -2.9530    0.0660 ca        1 FVF     -0.147500
      9 CEC         2.8810   -1.2010    1.5740 ca        1 FVF     -0.147500
     10 CZ1         2.8610   -2.5480    1.2090 ca        1 FVF     -0.113000
     11 N2         -2.6120    1.4980   -0.4840 n4        1 FVF     -0.635800
     12 C2         -3.5340    1.8880   -2.7510 c         1 FVF      0.716100
     13 O2         -4.3730    2.7750   -2.6050 o         1 FVF     -0.486000
     14 CA2        -3.2520    0.8340   -1.6690 c3        1 FVF      0.028500
     15 CB2        -4.5840    0.1620   -1.3030 c3        1 FVF     -0.046100
     16 CG2        -4.4490   -0.7360   -0.1250 ca        1 FVF     -0.153300
     17 CDL        -5.1110   -0.4310    1.0720 ca        1 FVF     -0.122000
     18 CDM        -3.6850   -1.9060   -0.2200 ca        1 FVF     -0.122000
     19 CEL        -5.0070   -1.2880    2.1660 ca        1 FVF     -0.133000
     20 CEM        -3.5840   -2.7580    0.8800 ca        1 FVF     -0.133000
     21 CZ2        -4.2420   -2.4510    2.0710 ca        1 FVF     -0.116000
     22 N3         -1.5020    4.4780   -4.3340 n3        1 FVF     -0.902800
     23 CA3        -1.1850    3.3600   -5.2110 c3        1 FVF     -0.122700
     24 CB3         0.0380    3.5940   -6.1180 c3        1 FVF     -0.060700
     25 CGD         1.3870    3.7110   -5.4330 c3        1 FVF     -0.105100
     26 CGN         0.1310    2.6260   -7.2850 c3        1 FVF     -0.105100
     27 P3         -1.3130    2.0250   -4.2170 p5        1 FVF      1.657300
     28 OPV        -0.8050    2.0550   -2.8440 o         1 FVF     -0.889300
     29 OPW        -2.9230    1.7980   -3.9440 os        1 FVF     -0.597500
     30 OPX        -0.8950    0.7850   -5.0980 os        1 FVF     -0.609200
     31 CA4        -1.5770   -0.4700   -5.0350 c3        1 FVF      0.072100
     32 C4         -1.1630   -1.3260   -3.7990 c         1 FVF      0.896600
     33 O4          0.0370   -1.6340   -3.6130 o         1 FVF     -0.820800
     34 O11        -2.1190   -1.6520   -3.0280 o         1 FVF     -0.820800
     35 CB4        -1.2360   -1.2060   -6.3290 c3        1 FVF     -0.037100
     36 CG4        -2.3940   -1.9590   -6.8790 ca        1 FVF     -0.078300
     37 CD5        -2.6530   -1.9380   -8.2550 ca        1 FVF     -0.130500
     38 CD6        -3.2180   -2.7190   -6.0380 ca        1 FVF     -0.130500
     39 CE5        -3.7180   -2.6660   -8.7820 ca        1 FVF     -0.133500
     40 CE6        -4.2820   -3.4450   -6.5690 ca        1 FVF     -0.133500
     41 CZ4        -4.5350   -3.4200   -7.9410 ca        1 FVF     -0.138000
     42 HB11        0.7430   -0.0450   -2.2840 h1        1 FVF      0.108700
     43 HB21        1.2660    1.3500   -1.1710 h1        1 FVF      0.108700
     44 HD11        0.9520   -2.3180   -1.6340 ha        1 FVF      0.163000
     45 HD21        2.2280    0.8050    1.0830 ha        1 FVF      0.163000
     46 HE11        2.1600   -4.0140   -0.2250 ha        1 FVF      0.133000
     47 HE21        3.4280   -0.8830    2.4740 ha        1 FVF      0.133000
     48 HZ1         3.3930   -3.2900    1.8230 ha        1 FVF      0.129000
     49 HN2        -2.8760    0.9550    0.3520 hn        1 FVF      0.460800
     50 HA2        -2.5380    0.0110   -2.0430 hx        1 FVF      0.217700
     51 HB12       -5.3740    0.9410   -1.1290 hc        1 FVF      0.092200
     52 HB22       -4.8840   -0.4430   -2.2050 hc        1 FVF      0.092200
     53 HD12       -5.7350    0.4720    1.1430 ha        1 FVF      0.167000
     54 HD22       -3.1580   -2.1480   -1.1650 ha        1 FVF      0.167000
     55 HE12       -5.5340   -1.0490    3.1010 ha        1 FVF      0.141500
     56 HE22       -2.9810   -3.6760    0.8010 ha        1 FVF      0.141500
     57 HZ2        -4.1630   -3.1280    2.9350 ha        1 FVF      0.137000
     58 HN3        -1.7530    5.2980   -4.8530 hn        1 FVF      0.368300
     59 HA3        -2.0470    3.2960   -5.9540 h1        1 FVF      0.117700
     60 HB3        -0.1520    4.6120   -6.5880 hc        1 FVF      0.043700
     61 H113        2.1040    4.2050   -6.1350 hc        1 FVF      0.048367
     62 H123        1.8140    2.7120   -5.1730 hc        1 FVF      0.048367
     63 H133        1.3300    4.3320   -4.5080 hc        1 FVF      0.048367
     64 H213       -0.8560    2.5320   -7.8000 hc        1 FVF      0.048367
     65 H223        0.8780    3.0130   -8.0200 hc        1 FVF      0.048367
     66 H233        0.4610    1.6070   -6.9630 hc        1 FVF      0.048367
     67 HA4        -2.6790   -0.2410   -4.9770 h1        1 FVF      0.047700
     68 HB14       -0.8610   -0.4610   -7.0820 hc        1 FVF      0.070200
     69 HB24       -0.3900   -1.9190   -6.1200 hc        1 FVF      0.070200
     70 HD14       -2.0100   -1.3470   -8.9240 ha        1 FVF      0.147500
     71 HD24       -3.0140   -2.7370   -4.9510 ha        1 FVF      0.147500
     72 HE14       -3.9130   -2.6460   -9.8640 ha        1 FVF      0.126000
     73 HE24       -4.9220   -4.0410   -5.9020 ha        1 FVF      0.126000
     74 HZ4        -5.3740   -3.9950   -8.3570 ha        1 FVF      0.125000
     75 H22        -2.9610    2.4590   -0.3900 hn        1 FVF      0.460800
     76 H32        -0.7100    4.6840   -3.7540 hn        1 FVF      0.368300
@<TRIPOS>BOND
     1    1    2 2   
     2    1    3 1   
     3    1   11 1   
     4    3    4 1   
     5    4    5 1   
     6    4   42 1   
     7    4   43 1   
     8    5    6 ar  
     9    5    7 ar  
    10    6    8 ar  
    11    6   44 1   
    12    7    9 ar  
    13    7   45 1   
    14    8   10 ar  
    15    8   46 1   
    16    9   10 ar  
    17    9   47 1   
    18   10   48 1   
    19   11   14 1   
    20   11   49 1   
    21   11   75 1   
    22   12   13 2   
    23   12   14 1   
    24   12   29 1   
    25   14   15 1   
    26   14   50 1   
    27   15   16 1   
    28   15   51 1   
    29   15   52 1   
    30   16   17 ar  
    31   16   18 ar  
    32   17   19 ar  
    33   17   53 1   
    34   18   20 ar  
    35   18   54 1   
    36   19   21 ar  
    37   19   55 1   
    38   20   21 ar  
    39   20   56 1   
    40   21   57 1   
    41   22   23 1   
    42   22   58 1   
    43   22   76 1   
    44   23   24 1   
    45   23   27 1   
    46   23   59 1   
    47   24   25 1   
    48   24   26 1   
    49   24   60 1   
    50   25   61 1   
    51   25   62 1   
    52   25   63 1   
    53   26   64 1   
    54   26   65 1   
    55   26   66 1   
    56   27   28 2   
    57   27   29 1   
    58   27   30 1   
    59   30   31 1   
    60   31   32 1   
    61   31   35 1   
    62   31   67 1   
    63   32   33 1   
    64   32   34 1   
    65   35   36 1   
    66   35   68 1   
    67   35   69 1   
    68   36   37 ar  
    69   36   38 ar  
    70   37   39 ar  
    71   37   70 1   
    72   38   40 ar  
    73   38   71 1   
    74   39   41 ar  
    75   39   72 1   
    76   40   41 ar  
    77   40   73 1   
    78   41   74 1   
@<TRIPOS>SUBSTRUCTURE
     1 FVF         1 TEMP              0 ****  ****    0 ROOT
