@<TRIPOS>MOLECULE
FVF
   76    78     1     0     0
SMALL
bcc


@<TRIPOS>ATOM
      1 C1          0.8500    0.4310   -0.9070 c         1 FVF      0.738100
      2 O1          1.9760    0.9080   -0.6900 o         1 FVF     -0.583000
      3 OA1        -0.1120    0.4710    0.0730 os        1 FVF     -0.416900
      4 CB1         0.2990    1.1310    1.2920 c3        1 FVF      0.196700
      5 CG1        -0.8410    1.0590    2.2500 ca        1 FVF     -0.102300
      6 CDB        -2.1620    0.9200    1.8160 ca        1 FVF     -0.112000
      7 CDC        -0.5660    1.1620    3.6200 ca        1 FVF     -0.112000
      8 CEB        -3.2010    0.8870    2.7460 ca        1 FVF     -0.131000
      9 CEC        -1.6080    1.1350    4.5440 ca        1 FVF     -0.131000
     10 CZ1        -2.9260    0.9970    4.1090 ca        1 FVF     -0.124000
     11 N2          0.3860   -0.1210   -2.0950 ns        1 FVF     -0.549900
     12 C2          1.2620    0.3460   -4.3400 c         1 FVF      0.535100
     13 O2          2.2030    0.9190   -4.8670 o         1 FVF     -0.438100
     14 CA2         1.3420   -0.5450   -3.0780 c3        1 FVF      0.057700
     15 CB2         1.1970   -2.0060   -3.5470 c3        1 FVF     -0.074100
     16 CG2         1.5180   -2.9510   -2.4450 ca        1 FVF     -0.101300
     17 CDL         0.5070   -3.7350   -1.8770 ca        1 FVF     -0.116000
     18 CDM         2.8350   -3.0860   -1.9890 ca        1 FVF     -0.116000
     19 CEL         0.8110   -4.6380   -0.8590 ca        1 FVF     -0.127000
     20 CEM         3.1350   -3.9880   -0.9710 ca        1 FVF     -0.127000
     21 CZ2         2.1230   -4.7650   -0.4040 ca        1 FVF     -0.120000
     22 N3         -0.0830    0.4530   -4.9860 ny        1 FVF     -0.670800
     23 CA3        -0.8010    1.7160   -4.6500 c3        1 FVF     -0.092700
     24 CB3        -0.4500    2.8300   -5.6550 c3        1 FVF     -0.057700
     25 CGD        -1.0350    2.6980   -7.0480 c3        1 FVF     -0.112600
     26 CGN        -0.7280    4.2140   -5.0930 c3        1 FVF     -0.112600
     27 P3         -2.4410    1.2940   -4.2540 p5        1 FVF      1.523300
     28 OPV        -2.3650    0.3350   -3.1580 o         1 FVF     -0.817300
     29 OPW        -3.2360    2.6510   -4.0430 oh        1 FVF     -0.750400
     30 OPX        -3.1290    0.8200   -5.6010 os        1 FVF     -0.614200
     31 CA4        -3.2450   -0.5770   -5.8990 c3        1 FVF      0.070100
     32 C4         -1.8920   -1.1140   -6.4460 c         1 FVF      0.862600
     33 O4         -1.3000   -1.9720   -5.7200 o         1 FVF     -0.818300
     34 O11        -1.3390   -0.5600   -7.4330 o         1 FVF     -0.818300
     35 CB4        -4.3420   -0.7500   -6.9370 c3        1 FVF     -0.032100
     36 CG4        -5.7120   -0.6020   -6.3760 ca        1 FVF     -0.079300
     37 CD5        -6.5520    0.4270   -6.8170 ca        1 FVF     -0.130500
     38 CD6        -6.1860   -1.5080   -5.4180 ca        1 FVF     -0.130500
     39 CE5        -7.8430    0.5510   -6.3050 ca        1 FVF     -0.130000
     40 CE6        -7.4750   -1.3810   -4.9060 ca        1 FVF     -0.130000
     41 CZ4        -8.3060   -0.3510   -5.3480 ca        1 FVF     -0.135000
     42 HB11        1.2110    0.6110    1.6900 h1        1 FVF      0.065200
     43 HB21        0.5560    2.1970    1.0480 h1        1 FVF      0.065200
     44 HD11       -2.3780    0.8260    0.7400 ha        1 FVF      0.143000
     45 HD21        0.4740    1.2650    3.9650 ha        1 FVF      0.143000
     46 HE11       -4.2390    0.7730    2.4000 ha        1 FVF      0.134000
     47 HE21       -1.3890    1.2200    5.6180 ha        1 FVF      0.134000
     48 HZ1        -3.7470    0.9730    4.8400 ha        1 FVF      0.133000
     49 HN2        -0.5180   -0.5570   -2.0840 hn        1 FVF      0.372500
     50 HA2         2.3960   -0.3880   -2.6750 h1        1 FVF      0.133700
     51 HB12        0.1610   -2.2090   -3.9440 hc        1 FVF      0.097200
     52 HB22        1.9150   -2.1650   -4.3990 hc        1 FVF      0.097200
     53 HD12       -0.5290   -3.6450   -2.2410 ha        1 FVF      0.138500
     54 HD22        3.6360   -2.4800   -2.4380 ha        1 FVF      0.138500
     55 HE12        0.0130   -5.2520   -0.4170 ha        1 FVF      0.136500
     56 HE22        4.1710   -4.0890   -0.6160 ha        1 FVF      0.136500
     57 HZ2         2.3620   -5.4780    0.4000 ha        1 FVF      0.135000
     58 HN3         0.0200    0.3690   -6.0260 hn        1 FVF      0.502800
     59 HA3        -0.3690    2.0880   -3.6650 hx        1 FVF      0.125700
     60 HB3         0.6790    2.7760   -5.7800 hc        1 FVF      0.064700
     61 H113       -1.0260    1.6410   -7.4200 hc        1 FVF      0.057533
     62 H123       -2.0880    3.0700   -7.0890 hc        1 FVF      0.057533
     63 H133       -0.4290    3.3210   -7.7520 hc        1 FVF      0.057533
     64 H213       -0.3000    4.3240   -4.0680 hc        1 FVF      0.057533
     65 H223       -0.2470    4.9730   -5.7590 hc        1 FVF      0.057533
     66 H233       -1.8200    4.4410   -5.0510 hc        1 FVF      0.057533
     67 HA4        -3.4970   -1.1010   -4.9330 h1        1 FVF      0.068700
     68 HB14       -4.2270   -1.7790   -7.3750 hc        1 FVF      0.078700
     69 HB24       -4.1650   -0.0080   -7.7620 hc        1 FVF      0.078700
     70 HD14       -6.1920    1.1380   -7.5760 ha        1 FVF      0.134500
     71 HD24       -5.5340   -2.3250   -5.0730 ha        1 FVF      0.134500
     72 HE14       -8.4970    1.3600   -6.6600 ha        1 FVF      0.129500
     73 HE24       -7.8390   -2.0960   -4.1540 ha        1 FVF      0.129500
     74 HZ4        -9.3250   -0.2530   -4.9460 ha        1 FVF      0.130000
     75 H22        -3.9040    2.8640   -4.6970 ho        1 FVF      0.500000
     76 H32        -0.6430   -0.3790   -4.6750 hn        1 FVF      0.502800
@<TRIPOS>BOND
     1    1    2 2   
     2    1    3 1   
     3    1   11 1   
     4    3    4 1   
     5    4    5 1   
     6    4   42 1   
     7    4   43 1   
     8    5    6 ar  
     9    5    7 ar  
    10    6    8 ar  
    11    6   44 1   
    12    7    9 ar  
    13    7   45 1   
    14    8   10 ar  
    15    8   46 1   
    16    9   10 ar  
    17    9   47 1   
    18   10   48 1   
    19   11   14 1   
    20   11   49 1   
    21   12   13 2   
    22   12   14 1   
    23   12   22 1   
    24   14   15 1   
    25   14   50 1   
    26   15   16 1   
    27   15   51 1   
    28   15   52 1   
    29   16   17 ar  
    30   16   18 ar  
    31   17   19 ar  
    32   17   53 1   
    33   18   20 ar  
    34   18   54 1   
    35   19   21 ar  
    36   19   55 1   
    37   20   21 ar  
    38   20   56 1   
    39   21   57 1   
    40   22   23 1   
    41   22   58 1   
    42   22   76 1   
    43   23   24 1   
    44   23   27 1   
    45   23   59 1   
    46   24   25 1   
    47   24   26 1   
    48   24   60 1   
    49   25   61 1   
    50   25   62 1   
    51   25   63 1   
    52   26   64 1   
    53   26   65 1   
    54   26   66 1   
    55   27   28 2   
    56   27   29 1   
    57   27   30 1   
    58   29   75 1   
    59   30   31 1   
    60   31   32 1   
    61   31   35 1   
    62   31   67 1   
    63   32   33 1   
    64   32   34 1   
    65   35   36 1   
    66   35   68 1   
    67   35   69 1   
    68   36   37 ar  
    69   36   38 ar  
    70   37   39 ar  
    71   37   70 1   
    72   38   40 ar  
    73   38   71 1   
    74   39   41 ar  
    75   39   72 1   
    76   40   41 ar  
    77   40   73 1   
    78   41   74 1   
@<TRIPOS>SUBSTRUCTURE
     1 FVF         1 TEMP              0 ****  ****    0 ROOT
