@<TRIPOS>MOLECULE
FVF
   74    76     1     0     0
SMALL
bcc


@<TRIPOS>ATOM
      1 C1          1.3410   -0.9140   -4.2160 c         1 FVF      0.727100
      2 O1          2.4790   -1.4160   -4.1580 o         1 FVF     -0.605000
      3 OA1         0.4920   -1.3690   -5.2180 os        1 FVF     -0.449900
      4 CB1         1.0730   -2.3370   -6.1040 c3        1 FVF      0.193700
      5 CG1         0.0130   -2.7910   -7.0510 ca        1 FVF     -0.080300
      6 CDB        -1.3430   -2.7380   -6.7150 ca        1 FVF     -0.114000
      7 CDC         0.3980   -3.3090   -8.2940 ca        1 FVF     -0.114000
      8 CEB        -2.3040   -3.2010   -7.6130 ca        1 FVF     -0.136500
      9 CEC        -0.5650   -3.7760   -9.1860 ca        1 FVF     -0.136500
     10 CZ1        -1.9180   -3.7220   -8.8470 ca        1 FVF     -0.139000
     11 N2          0.8030    0.1310   -3.4910 n         1 FVF     -0.473900
     12 C2          0.2220    0.0090   -1.0690 c         1 FVF      0.621100
     13 O2         -0.9740   -0.1140   -1.4350 o         1 FVF     -0.675100
     14 CA2         1.3010    0.3740   -2.1450 c3        1 FVF      0.000700
     15 CB2         1.6670    1.8500   -1.9230 c3        1 FVF     -0.048100
     16 CG2         2.6140    2.4330   -2.9090 ca        1 FVF     -0.047300
     17 CDL         2.5440    3.8100   -3.1720 ca        1 FVF     -0.125500
     18 CDM         3.5980    1.6720   -3.5490 ca        1 FVF     -0.125500
     19 CEL         3.4410    4.4100   -4.0530 ca        1 FVF     -0.136000
     20 CEM         4.4940    2.2750   -4.4320 ca        1 FVF     -0.136000
     21 CZ2         4.4190    3.6430   -4.6860 ca        1 FVF     -0.153000
     22 N3          0.6630   -0.0890    0.2060 n         1 FVF     -0.489900
     23 CA3        -0.1580   -0.3820    1.3530 c3        1 FVF     -0.083500
     24 CB3        -0.5570   -1.8670    1.4200 c3        1 FVF     -0.029700
     25 CGD         0.6080   -2.7700    1.7760 c3        1 FVF     -0.091100
     26 CGN        -1.7130   -2.0950    2.3730 c3        1 FVF     -0.091100
     27 P3          0.7550    0.4840    2.7130 p5        1 FVF      1.311600
     28 OPV         2.1870    0.2130    2.4360 o         1 FVF     -0.841000
     29 OPW         0.1880    1.8490    2.7160 o         1 FVF     -0.841000
     30 OPX         0.2180   -0.3690    3.9960 os        1 FVF     -0.577200
     31 CA4        -0.2930    0.3280    5.1070 c3        1 FVF      0.088100
     32 C4          0.4120   -0.1620    6.4070 c         1 FVF      0.911600
     33 O4         -0.0920   -1.1250    7.0620 o         1 FVF     -0.854800
     34 O11         1.4320    0.4730    6.7950 o         1 FVF     -0.854800
     35 CB4        -1.8070    0.0590    5.1970 c3        1 FVF     -0.065100
     36 CG4        -2.5230    1.0300    6.0650 ca        1 FVF     -0.026300
     37 CD5        -3.3590    2.0090    5.5150 ca        1 FVF     -0.127500
     38 CD6        -2.3940    0.9510    7.4620 ca        1 FVF     -0.127500
     39 CE5        -4.0690    2.8790    6.3420 ca        1 FVF     -0.152500
     40 CE6        -3.1040    1.8210    8.2830 ca        1 FVF     -0.152500
     41 CZ4        -3.9500    2.7840    7.7270 ca        1 FVF     -0.172000
     42 HB11        1.9330   -1.8590   -6.6440 h1        1 FVF      0.060700
     43 HB21        1.4580   -3.2030   -5.4980 h1        1 FVF      0.060700
     44 HD11       -1.6430   -2.3220   -5.7390 ha        1 FVF      0.145000
     45 HD21        1.4640   -3.3470   -8.5640 ha        1 FVF      0.145000
     46 HE11       -3.3690   -3.1560   -7.3430 ha        1 FVF      0.125000
     47 HE21       -0.2580   -4.1840  -10.1590 ha        1 FVF      0.125000
     48 HZ1        -2.6760   -4.0890   -9.5530 ha        1 FVF      0.120000
     49 HN2        -0.1900    0.2510   -3.5810 hn        1 FVF      0.331500
     50 HA2         2.2210   -0.2630   -1.9790 h1        1 FVF      0.091700
     51 HB12        0.7210    2.4570   -1.9020 hc        1 FVF      0.085700
     52 HB22        2.1320    1.9300   -0.8980 hc        1 FVF      0.085700
     53 HD12        1.7780    4.4190   -2.6700 ha        1 FVF      0.144500
     54 HD22        3.6620    0.5850   -3.3700 ha        1 FVF      0.144500
     55 HE12        3.3770    5.4900   -4.2470 ha        1 FVF      0.117500
     56 HE22        5.2620    1.6640   -4.9270 ha        1 FVF      0.117500
     57 HZ2         5.1270    4.1160   -5.3800 ha        1 FVF      0.111000
     58 HN3         1.6510   -0.0730    0.4010 hn        1 FVF      0.348500
     59 HA3        -1.1200    0.1960    1.2510 h1        1 FVF      0.070700
     60 HB3        -0.9240   -2.1630    0.3910 hc        1 FVF      0.010700
     61 H113        0.2490   -3.7860    2.0630 hc        1 FVF      0.032533
     62 H123        1.3080   -2.8690    0.9120 hc        1 FVF      0.032533
     63 H133        1.1660   -2.3130    2.6350 hc        1 FVF      0.032533
     64 H213       -1.3840   -1.9980    3.4390 hc        1 FVF      0.032533
     65 H223       -2.5290   -1.3570    2.1840 hc        1 FVF      0.032533
     66 H233       -2.1260   -3.1230    2.2240 hc        1 FVF      0.032533
     67 HA4        -0.1040    1.4310    4.9730 h1        1 FVF      0.053700
     68 HB14       -2.2590    0.0690    4.1700 hc        1 FVF      0.051700
     69 HB24       -1.9290   -0.9770    5.6190 hc        1 FVF      0.051700
     70 HD14       -3.4390    2.1010    4.4210 ha        1 FVF      0.164500
     71 HD24       -1.6940    0.1970    7.8770 ha        1 FVF      0.164500
     72 HE14       -4.7190    3.6460    5.8980 ha        1 FVF      0.102500
     73 HE24       -2.9920    1.7560    9.3740 ha        1 FVF      0.102500
     74 HZ4        -4.5080    3.4690    8.3770 ha        1 FVF      0.093000
@<TRIPOS>BOND
     1    1    2 2   
     2    1    3 1   
     3    1   11 1   
     4    3    4 1   
     5    4    5 1   
     6    4   42 1   
     7    4   43 1   
     8    5    6 ar  
     9    5    7 ar  
    10    6    8 ar  
    11    6   44 1   
    12    7    9 ar  
    13    7   45 1   
    14    8   10 ar  
    15    8   46 1   
    16    9   10 ar  
    17    9   47 1   
    18   10   48 1   
    19   11   14 1   
    20   11   49 1   
    21   12   13 2   
    22   12   14 1   
    23   12   22 1   
    24   14   15 1   
    25   14   50 1   
    26   15   16 1   
    27   15   51 1   
    28   15   52 1   
    29   16   17 ar  
    30   16   18 ar  
    31   17   19 ar  
    32   17   53 1   
    33   18   20 ar  
    34   18   54 1   
    35   19   21 ar  
    36   19   55 1   
    37   20   21 ar  
    38   20   56 1   
    39   21   57 1   
    40   22   23 1   
    41   22   58 1   
    42   23   24 1   
    43   23   27 1   
    44   23   59 1   
    45   24   25 1   
    46   24   26 1   
    47   24   60 1   
    48   25   61 1   
    49   25   62 1   
    50   25   63 1   
    51   26   64 1   
    52   26   65 1   
    53   26   66 1   
    54   27   28 1   
    55   27   29 1   
    56   27   30 1   
    57   30   31 1   
    58   31   32 1   
    59   31   35 1   
    60   31   67 1   
    61   32   33 1   
    62   32   34 1   
    63   35   36 1   
    64   35   68 1   
    65   35   69 1   
    66   36   37 ar  
    67   36   38 ar  
    68   37   39 ar  
    69   37   70 1   
    70   38   40 ar  
    71   38   71 1   
    72   39   41 ar  
    73   39   72 1   
    74   40   41 ar  
    75   40   73 1   
    76   41   74 1   
@<TRIPOS>SUBSTRUCTURE
     1 FVF         1 TEMP              0 ****  ****    0 ROOT
