@<TRIPOS>MOLECULE
FVF
   76    78     1     0     0
SMALL
bcc


@<TRIPOS>ATOM
      1 C1         -1.0610    1.4540   -0.4650 c         1 FVF      0.692100
      2 O1         -0.4690    2.4590   -0.0950 o         1 FVF     -0.470000
      3 OA1        -0.5760    0.2470   -0.7630 os        1 FVF     -0.369900
      4 CB1         0.8280    0.1800   -1.2000 c3        1 FVF      0.206700
      5 CG1         1.4870   -0.8590   -0.3650 ca        1 FVF     -0.139300
      6 CDB         1.4240   -2.1950   -0.7830 ca        1 FVF     -0.093000
      7 CDC         2.1830   -0.5190    0.7990 ca        1 FVF     -0.093000
      8 CEB         2.0620   -3.1820   -0.0330 ca        1 FVF     -0.147500
      9 CEC         2.8200   -1.5110    1.5420 ca        1 FVF     -0.147500
     10 CZ1         2.7580   -2.8420    1.1270 ca        1 FVF     -0.113000
     11 N2         -2.5740    1.4390   -0.4340 n4        1 FVF     -0.635800
     12 C2         -3.4720    1.9420   -2.6880 c         1 FVF      0.716100
     13 O2         -4.2830    2.8500   -2.5130 o         1 FVF     -0.486000
     14 CA2        -3.2290    0.8400   -1.6450 c3        1 FVF      0.028500
     15 CB2        -4.5840    0.1990   -1.3080 c3        1 FVF     -0.046100
     16 CG2        -4.4840   -0.7450   -0.1630 ca        1 FVF     -0.153300
     17 CDL        -5.1410   -0.4640    1.0410 ca        1 FVF     -0.122000
     18 CDM        -3.7570   -1.9350   -0.2990 ca        1 FVF     -0.122000
     19 CEL        -5.0690   -1.3630    2.1030 ca        1 FVF     -0.133000
     20 CEM        -3.6890   -2.8300    0.7700 ca        1 FVF     -0.133000
     21 CZ2        -4.3420   -2.5460    1.9680 ca        1 FVF     -0.116000
     22 N3         -1.3500    4.5200   -4.1680 n3        1 FVF     -0.902800
     23 CA3        -1.0650    3.4260   -5.0840 c3        1 FVF     -0.122700
     24 CB3         0.1690    3.6530   -5.9780 c3        1 FVF     -0.060700
     25 CGD         1.5180    3.7010   -5.2850 c3        1 FVF     -0.105100
     26 CGN         0.2350    2.7260   -7.1790 c3        1 FVF     -0.105100
     27 P3         -1.2410    2.0600   -4.1400 p5        1 FVF      1.657300
     28 OPV        -0.7390    2.0230   -2.7660 o         1 FVF     -0.889300
     29 OPW        -2.8590    1.8760   -3.8820 os        1 FVF     -0.597500
     30 OPX        -0.8600    0.8410   -5.0650 os        1 FVF     -0.609200
     31 CA4        -1.5820   -0.3930   -5.0510 c3        1 FVF      0.072100
     32 C4         -1.2020   -1.3070   -3.8450 c         1 FVF      0.896600
     33 O4         -0.0130   -1.6610   -3.6670 o         1 FVF     -0.820800
     34 O11        -2.1710   -1.6300   -3.0910 o         1 FVF     -0.820800
     35 CB4        -1.2590   -1.0920   -6.3700 c3        1 FVF     -0.037100
     36 CG4        -2.4400   -1.7860   -6.9510 ca        1 FVF     -0.078300
     37 CD5        -2.6920   -1.7060   -8.3260 ca        1 FVF     -0.130500
     38 CD6        -3.2910   -2.5490   -6.1410 ca        1 FVF     -0.130500
     39 CE5        -3.7780   -2.3790   -8.8830 ca        1 FVF     -0.133500
     40 CE6        -4.3760   -3.2200   -6.7020 ca        1 FVF     -0.133500
     41 CZ4        -4.6220   -3.1370   -8.0730 ca        1 FVF     -0.138000
     42 HB11        0.7380   -0.1460   -2.2780 h1        1 FVF      0.108200
     43 HB21        1.3000    1.1900   -1.1130 h1        1 FVF      0.108200
     44 HD11        0.8710   -2.4460   -1.7120 ha        1 FVF      0.163000
     45 HD21        2.2350    0.5310    1.1220 ha        1 FVF      0.163000
     46 HE11        2.0170   -4.2310   -0.3620 ha        1 FVF      0.133000
     47 HE21        3.3720   -1.2440    2.4540 ha        1 FVF      0.133000
     48 HZ1         3.2620   -3.6230    1.7150 ha        1 FVF      0.129000
     49 HN2        -2.8580    0.8750    0.3800 hn        1 FVF      0.460800
     50 HA2        -2.5410    0.0090   -2.0460 hx        1 FVF      0.217700
     51 HB12       -5.3490    0.9960   -1.1090 hc        1 FVF      0.092200
     52 HB22       -4.9000   -0.3620   -2.2330 hc        1 FVF      0.092200
     53 HD12       -5.7350    0.4570    1.1430 ha        1 FVF      0.167500
     54 HD22       -3.2340   -2.1600   -1.2510 ha        1 FVF      0.167500
     55 HE12       -5.5920   -1.1420    3.0450 ha        1 FVF      0.141500
     56 HE22       -3.1160   -3.7640    0.6580 ha        1 FVF      0.141500
     57 HZ2        -4.2890   -3.2560    2.8070 ha        1 FVF      0.137000
     58 HN3        -0.5540    4.6800   -3.5780 hn        1 FVF      0.368300
     59 HA3        -1.9260    3.4180   -5.8330 h1        1 FVF      0.117700
     60 HB3         0.0140    4.6930   -6.4110 hc        1 FVF      0.043700
     61 H113        1.9110    2.6800   -5.0600 hc        1 FVF      0.048367
     62 H123        1.4770    4.2890   -4.3370 hc        1 FVF      0.048367
     63 H133        2.2540    4.1970   -5.9650 hc        1 FVF      0.048367
     64 H213       -0.7510    2.6830   -7.7010 hc        1 FVF      0.048367
     65 H223        0.9990    3.1150   -7.8970 hc        1 FVF      0.048367
     66 H233        0.5310    1.6860   -6.8940 hc        1 FVF      0.048367
     67 HA4        -2.6760   -0.1310   -4.9880 h1        1 FVF      0.047700
     68 HB14       -0.8570   -0.3320   -7.0940 hc        1 FVF      0.070200
     69 HB24       -0.4390   -1.8390   -6.1840 hc        1 FVF      0.070200
     70 HD14       -2.0270   -1.1120   -8.9710 ha        1 FVF      0.147500
     71 HD24       -3.0930   -2.6140   -5.0550 ha        1 FVF      0.147500
     72 HE14       -3.9670   -2.3120   -9.9640 ha        1 FVF      0.126000
     73 HE24       -5.0380   -3.8190   -6.0600 ha        1 FVF      0.126000
     74 HZ4        -5.4770   -3.6680   -8.5130 ha        1 FVF      0.125000
     75 H22        -2.8910    2.4070   -0.3050 hn        1 FVF      0.460800
     76 H32        -1.5720    5.3670   -4.6570 hn        1 FVF      0.368300
@<TRIPOS>BOND
     1    1    2 2   
     2    1    3 1   
     3    1   11 1   
     4    3    4 1   
     5    4    5 1   
     6    4   42 1   
     7    4   43 1   
     8    5    6 ar  
     9    5    7 ar  
    10    6    8 ar  
    11    6   44 1   
    12    7    9 ar  
    13    7   45 1   
    14    8   10 ar  
    15    8   46 1   
    16    9   10 ar  
    17    9   47 1   
    18   10   48 1   
    19   11   14 1   
    20   11   49 1   
    21   11   75 1   
    22   12   13 2   
    23   12   14 1   
    24   12   29 1   
    25   14   15 1   
    26   14   50 1   
    27   15   16 1   
    28   15   51 1   
    29   15   52 1   
    30   16   17 ar  
    31   16   18 ar  
    32   17   19 ar  
    33   17   53 1   
    34   18   20 ar  
    35   18   54 1   
    36   19   21 ar  
    37   19   55 1   
    38   20   21 ar  
    39   20   56 1   
    40   21   57 1   
    41   22   23 1   
    42   22   58 1   
    43   22   76 1   
    44   23   24 1   
    45   23   27 1   
    46   23   59 1   
    47   24   25 1   
    48   24   26 1   
    49   24   60 1   
    50   25   61 1   
    51   25   62 1   
    52   25   63 1   
    53   26   64 1   
    54   26   65 1   
    55   26   66 1   
    56   27   28 2   
    57   27   29 1   
    58   27   30 1   
    59   30   31 1   
    60   31   32 1   
    61   31   35 1   
    62   31   67 1   
    63   32   33 1   
    64   32   34 1   
    65   35   36 1   
    66   35   68 1   
    67   35   69 1   
    68   36   37 ar  
    69   36   38 ar  
    70   37   39 ar  
    71   37   70 1   
    72   38   40 ar  
    73   38   71 1   
    74   39   41 ar  
    75   39   72 1   
    76   40   41 ar  
    77   40   73 1   
    78   41   74 1   
@<TRIPOS>SUBSTRUCTURE
     1 FVF         1 TEMP              0 ****  ****    0 ROOT
