@<TRIPOS>MOLECULE
FVQ
   38    39     1     0     0
SMALL
bcc


@<TRIPOS>ATOM
      1 O6          0.5800    0.5560   -0.4290 oh        1 FVQ     -0.601800
      2 C6          1.3140   -0.5560    0.0570 c3        1 FVQ      0.134400
      3 C5          2.1380   -0.0590    1.2460 c3        1 FVQ      0.145100
      4 O5          1.2730   -0.1250    2.3850 os        1 FVQ     -0.427600
      5 C4          3.3600   -0.9560    1.4920 c3        1 FVQ      0.086100
      6 O4          4.1730   -0.9140    0.3320 oh        1 FVQ     -0.596800
      7 C3          4.1250   -0.4320    2.7200 c3        1 FVQ      0.116100
      8 O3          5.2680   -1.2270    2.9560 oh        1 FVQ     -0.596800
      9 C2          3.2000   -0.3800    3.9420 c3        1 FVQ      0.096100
     10 O2          2.9910   -1.7220    4.3530 oh        1 FVQ     -0.600800
     11 C1          1.8520    0.2880    3.6010 c3        1 FVQ      0.297900
     12 O1          2.1000    1.6790    3.4890 os        1 FVQ     -0.437600
     13 C7          0.9240    2.4830    3.4060 c3        1 FVQ      0.208500
     14 C8          0.2110    2.5590    4.6540 c1        1 FVQ     -0.146100
     15 C9         -0.4000    2.6480    5.6820 cg        1 FVQ     -0.102000
     16 C10        -1.1160    2.7520    6.8840 ca        1 FVQ     -0.096300
     17 C15        -2.5040    2.5400    6.9300 ca        1 FVQ     -0.070000
     18 C14        -3.1640    2.6560    8.1530 ca        1 FVQ     -0.249300
     19 C13        -2.4130    2.9810    9.2970 ca        1 FVQ      0.402200
     20 N12        -1.0810    3.1880    9.2760 nb        1 FVQ     -0.665000
     21 C11        -0.4520    3.0760    8.0940 ca        1 FVQ      0.418200
     22 H6          0.0420    0.2290   -1.1590 ho        1 FVQ      0.402000
     23 H61C        2.0130   -0.9350   -0.7370 h1        1 FVQ      0.047700
     24 H62C        0.6160   -1.3720    0.3810 h1        1 FVQ      0.047700
     25 H5          2.4590    1.0060    1.0810 h1        1 FVQ      0.083700
     26 H4          3.0320   -2.0170    1.6790 h1        1 FVQ      0.060700
     27 H1          1.0670    0.0600    4.3780 h2        1 FVQ      0.083700
     28 HA          5.0560   -1.2040    0.6020 ho        1 FVQ      0.421000
     29 H3          4.5250    0.6010    2.5140 h1        1 FVQ      0.103700
     30 HB          4.9650   -2.0810    3.2940 ho        1 FVQ      0.421000
     31 H2          3.6970    0.2030    4.7670 h1        1 FVQ      0.072700
     32 HC          2.4770   -1.6950    5.1680 ho        1 FVQ      0.415000
     33 H71C        1.3250    3.4970    3.1170 h1        1 FVQ      0.087200
     34 H72C        0.2510    2.0870    2.5930 h1        1 FVQ      0.087200
     35 H15        -3.0580    2.2880    6.0130 ha        1 FVQ      0.147000
     36 H11         0.6390    3.2540    8.1050 h4        1 FVQ      0.031100
     37 H14        -4.2480    2.4990    8.2260 ha        1 FVQ      0.147000
     38 H13        -2.8980    3.0820   10.2840 h4        1 FVQ      0.025100
@<TRIPOS>BOND
     1    1    2 1   
     2    1   22 1   
     3    2    3 1   
     4    2   23 1   
     5    2   24 1   
     6    3    4 1   
     7    3    5 1   
     8    3   25 1   
     9    4   11 1   
    10    5    6 1   
    11    5    7 1   
    12    5   26 1   
    13    6   28 1   
    14    7    8 1   
    15    7    9 1   
    16    7   29 1   
    17    8   30 1   
    18    9   10 1   
    19    9   11 1   
    20    9   31 1   
    21   10   32 1   
    22   11   12 1   
    23   11   27 1   
    24   12   13 1   
    25   13   14 1   
    26   13   33 1   
    27   13   34 1   
    28   14   15 3   
    29   15   16 1   
    30   16   17 ar  
    31   16   21 ar  
    32   17   18 ar  
    33   17   35 1   
    34   18   19 ar  
    35   18   37 1   
    36   19   20 ar  
    37   19   38 1   
    38   20   21 ar  
    39   21   36 1   
@<TRIPOS>SUBSTRUCTURE
     1 FVQ         1 TEMP              0 ****  ****    0 ROOT
