@<TRIPOS>MOLECULE
FVQ
   38    39     1     0     0
SMALL
bcc


@<TRIPOS>ATOM
      1 O6          3.0850    3.3010   -0.6660 oh        1 FVQ     -0.601800
      2 C6          3.6560    2.0170   -0.8590 c3        1 FVQ      0.134400
      3 C5          2.9200    1.0590    0.0780 c3        1 FVQ      0.145100
      4 O5          1.7420    0.6430   -0.6240 os        1 FVQ     -0.427600
      5 C4          3.7750   -0.1750    0.4000 c3        1 FVQ      0.086100
      6 O4          4.9540    0.2690    1.0480 oh        1 FVQ     -0.596800
      7 C3          2.9680   -1.1180    1.3090 c3        1 FVQ      0.116100
      8 O3          3.7400   -2.2540    1.6390 oh        1 FVQ     -0.596800
      9 C2          1.6430   -1.5020    0.6380 c3        1 FVQ      0.096100
     10 O2          1.9630   -2.4030   -0.4100 oh        1 FVQ     -0.600800
     11 C1          0.9180   -0.2620    0.0740 c3        1 FVQ      0.297900
     12 O1          0.3810    0.4390    1.1820 os        1 FVQ     -0.437600
     13 C7         -0.5260    1.4850    0.8330 c3        1 FVQ      0.208500
     14 C8         -1.7900    0.9890    0.3540 c1        1 FVQ     -0.146100
     15 C9         -2.8550    0.6070   -0.0400 cg        1 FVQ     -0.102000
     16 C10        -4.1020    0.1610   -0.5040 ca        1 FVQ     -0.097300
     17 C15        -5.0180   -0.4730    0.3530 ca        1 FVQ     -0.069000
     18 C14        -6.2430   -0.8950   -0.1630 ca        1 FVQ     -0.250300
     19 C13        -6.5160   -0.6700   -1.5250 ca        1 FVQ      0.403200
     20 N12        -5.6530   -0.0640   -2.3640 nb        1 FVQ     -0.665000
     21 C11        -4.4750    0.3410   -1.8600 ca        1 FVQ      0.419200
     22 H6          3.5180    3.8890   -1.2950 ho        1 FVQ      0.402000
     23 H61C        3.5330    1.6910   -1.9260 h1        1 FVQ      0.047700
     24 H62C        4.7450    2.0340   -0.5820 h1        1 FVQ      0.047700
     25 H5          2.6230    1.5890    1.0250 h1        1 FVQ      0.083700
     26 H4          4.0510   -0.7140   -0.5490 h1        1 FVQ      0.060700
     27 H1          0.1220   -0.5500   -0.6710 h2        1 FVQ      0.083700
     28 HA          5.3180   -0.4980    1.5140 ho        1 FVQ      0.421000
     29 H3          2.7530   -0.6150    2.2940 h1        1 FVQ      0.103700
     30 HB          3.8120   -2.7990    0.8430 ho        1 FVQ      0.421000
     31 H2          0.9720   -2.0060    1.3880 h1        1 FVQ      0.072700
     32 HC          1.1300   -2.7000   -0.7960 ho        1 FVQ      0.416000
     33 H71C       -0.6610    2.0430    1.8040 h1        1 FVQ      0.087200
     34 H72C       -0.0520    2.1580    0.0630 h1        1 FVQ      0.087200
     35 H15        -4.7690   -0.6300    1.4120 ha        1 FVQ      0.147000
     36 H11        -3.7880    0.8370   -2.5700 h4        1 FVQ      0.031100
     37 H14        -6.9830   -1.3940    0.4770 ha        1 FVQ      0.147000
     38 H13        -7.4740   -0.9900   -1.9720 h4        1 FVQ      0.025100
@<TRIPOS>BOND
     1    1    2 1   
     2    1   22 1   
     3    2    3 1   
     4    2   23 1   
     5    2   24 1   
     6    3    4 1   
     7    3    5 1   
     8    3   25 1   
     9    4   11 1   
    10    5    6 1   
    11    5    7 1   
    12    5   26 1   
    13    6   28 1   
    14    7    8 1   
    15    7    9 1   
    16    7   29 1   
    17    8   30 1   
    18    9   10 1   
    19    9   11 1   
    20    9   31 1   
    21   10   32 1   
    22   11   12 1   
    23   11   27 1   
    24   12   13 1   
    25   13   14 1   
    26   13   33 1   
    27   13   34 1   
    28   14   15 3   
    29   15   16 1   
    30   16   17 ar  
    31   16   21 ar  
    32   17   18 ar  
    33   17   35 1   
    34   18   19 ar  
    35   18   37 1   
    36   19   20 ar  
    37   19   38 1   
    38   20   21 ar  
    39   21   36 1   
@<TRIPOS>SUBSTRUCTURE
     1 FVQ         1 TEMP              0 ****  ****    0 ROOT
