@<TRIPOS>MOLECULE
FVQ
   38    39     1     0     0
SMALL
bcc


@<TRIPOS>ATOM
      1 O6         -0.1340   -0.7760    0.1540 oh        1 FVQ     -0.601800
      2 C6          1.2640   -0.9980    0.0560 c3        1 FVQ      0.135400
      3 C5          1.9000   -0.3500    1.2860 c3        1 FVQ      0.144100
      4 O5          1.7820   -1.3080    2.3450 os        1 FVQ     -0.429600
      5 C4          3.3870   -0.0430    1.0550 c3        1 FVQ      0.087100
      6 O4          3.4820    0.8580   -0.0340 oh        1 FVQ     -0.596800
      7 C3          3.9700    0.5780    2.3360 c3        1 FVQ      0.116100
      8 O3          5.3340    0.8910    2.1470 oh        1 FVQ     -0.595800
      9 C2          3.7590   -0.3620    3.5310 c3        1 FVQ      0.095100
     10 O2          4.6700   -1.4380    3.3690 oh        1 FVQ     -0.599800
     11 C1          2.3130   -0.8970    3.5830 c3        1 FVQ      0.305900
     12 O1          1.5060    0.1640    4.0600 os        1 FVQ     -0.445600
     13 C7          0.1260   -0.2040    4.2270 c3        1 FVQ      0.216500
     14 C8         -0.5170    0.8160    5.0080 c1        1 FVQ     -0.111100
     15 C9         -1.0730    1.6580    5.6540 cg        1 FVQ     -0.096000
     16 C10        -1.7340    2.6380    6.4080 ca        1 FVQ     -0.091300
     17 C15        -1.3740    3.9940    6.3210 ca        1 FVQ     -0.070000
     18 C14        -2.0640    4.9260    7.0940 ca        1 FVQ     -0.248300
     19 C13        -3.0970    4.4740    7.9350 ca        1 FVQ      0.399200
     20 N12        -3.4600    3.1800    8.0340 nb        1 FVQ     -0.665000
     21 C11        -2.7910    2.2870    7.2860 ca        1 FVQ      0.415200
     22 H6         -0.5330   -1.2060   -0.6100 ho        1 FVQ      0.403000
     23 H61C        1.4830   -2.0980    0.0350 h1        1 FVQ      0.048200
     24 H62C        1.6710   -0.5030   -0.8670 h1        1 FVQ      0.048200
     25 H5          1.3440    0.5860    1.5660 h1        1 FVQ      0.084700
     26 H4          3.9460   -0.9880    0.8060 h1        1 FVQ      0.060700
     27 H1          2.2370   -1.8130    4.2370 h2        1 FVQ      0.073700
     28 HA          4.3490    1.2820    0.0320 ho        1 FVQ      0.422000
     29 H3          3.4700    1.5650    2.5500 h1        1 FVQ      0.104700
     30 HB          5.8240    0.0580    2.1180 ho        1 FVQ      0.421000
     31 H2          3.9780    0.1910    4.4870 h1        1 FVQ      0.074700
     32 HC          4.6280   -1.9700    4.1720 ho        1 FVQ      0.415000
     33 H71C       -0.3420   -0.2850    3.2040 h1        1 FVQ      0.067700
     34 H72C        0.0590   -1.2000    4.7480 h1        1 FVQ      0.067700
     35 H15        -0.5600    4.3080    5.6510 ha        1 FVQ      0.149000
     36 H11        -3.1100    1.2330    7.3870 h4        1 FVQ      0.029100
     37 H14        -1.8090    5.9930    7.0510 ha        1 FVQ      0.146000
     38 H13        -3.6680    5.1810    8.5630 h4        1 FVQ      0.024100
@<TRIPOS>BOND
     1    1    2 1   
     2    1   22 1   
     3    2    3 1   
     4    2   23 1   
     5    2   24 1   
     6    3    4 1   
     7    3    5 1   
     8    3   25 1   
     9    4   11 1   
    10    5    6 1   
    11    5    7 1   
    12    5   26 1   
    13    6   28 1   
    14    7    8 1   
    15    7    9 1   
    16    7   29 1   
    17    8   30 1   
    18    9   10 1   
    19    9   11 1   
    20    9   31 1   
    21   10   32 1   
    22   11   12 1   
    23   11   27 1   
    24   12   13 1   
    25   13   14 1   
    26   13   33 1   
    27   13   34 1   
    28   14   15 3   
    29   15   16 1   
    30   16   17 ar  
    31   16   21 ar  
    32   17   18 ar  
    33   17   35 1   
    34   18   19 ar  
    35   18   37 1   
    36   19   20 ar  
    37   19   38 1   
    38   20   21 ar  
    39   21   36 1   
@<TRIPOS>SUBSTRUCTURE
     1 FVQ         1 TEMP              0 ****  ****    0 ROOT
