@<TRIPOS>MOLECULE
FVQ
   38    36     1     0     0
SMALL
bcc


@<TRIPOS>ATOM
      1 O6         -1.5890    1.2090   -4.9700 oh        1 FVQ     -0.331000
      2 C6         -1.4520   -0.1210   -4.5460 c3        1 FVQ     -0.026000
      3 C5         -0.9220   -0.1450   -3.1370 c3        1 FVQ     -0.033000
      4 O5         -1.7190   -1.0770   -2.3480 os        1 FVQ     -0.282000
      5 C4          0.5620   -0.5260   -3.1700 c3        1 FVQ     -0.025000
      6 O4          1.2970    0.5260   -3.8110 oh        1 FVQ     -0.342000
      7 C3          1.1160   -0.7420   -1.8170 c3        1 FVQ      0.004000
      8 O3          2.4770   -1.2850   -1.9430 oh        1 FVQ     -0.340000
      9 C2          0.3070   -1.6790   -1.0300 c3        1 FVQ      0.024000
     10 O2          0.4370   -2.9990   -1.5990 oh        1 FVQ     -0.326000
     11 C1         -1.1780   -1.2940   -1.0090 c3        1 FVQ      0.144000
     12 O1         -1.3320   -0.1320   -0.2710 os        1 FVQ     -0.295000
     13 C7         -2.0950   -0.3010    0.9200 c3        1 FVQ      0.092000
     14 C8         -1.2940    0.2200    2.1080 c1        1 FVQ     -0.182000
     15 C9         -0.6600    0.6310    3.0410 c1        1 FVQ     -0.091000
     16 C10         0.1570    1.1590    4.2360 c1        1 FVQ     -0.028000
     17 C15         1.3240    1.8350    4.0180 c2        1 FVQ     -0.070000
     18 C14         2.0800    2.2600    5.0820 c1        1 FVQ     -0.182000
     19 C13         1.6620    2.0050    6.3740 c1        1 FVQ     -0.064000
     20 N12         0.4940    1.3290    6.5940 n1        1 FVQ     -0.138000
     21 C11        -0.2630    0.9040    5.5350 c1        1 FVQ     -0.047000
     22 H6         -1.7150    1.2280   -5.8310 ho        1 FVQ      0.207000
     23 H61C       -0.8200   -0.5960   -5.1450 h1        1 FVQ      0.104500
     24 H62C       -2.3430   -0.5730   -4.5750 h1        1 FVQ      0.104500
     25 H5         -1.0120    0.7710   -2.7420 h1        1 FVQ      0.099000
     26 H4          0.6640   -1.3150   -3.6690 h1        1 FVQ      0.107000
     27 H1         -1.6880   -2.0190   -0.5730 h2        1 FVQ      0.147000
     28 HA          1.5020    0.2810   -4.6450 ho        1 FVQ      0.231000
     29 H3          1.1560    0.0910   -1.3630 h1        1 FVQ      0.110000
     30 HB          3.0420   -0.7950   -1.4510 ho        1 FVQ      0.231000
     31 H2          0.6380   -1.6950   -0.1250 h1        1 FVQ      0.111000
     32 HC          0.7620   -3.5890   -0.9500 ho        1 FVQ      0.230000
     33 H71C       -2.9310    0.1990    0.8460 h1        1 FVQ      0.116500
     34 H72C       -2.2930   -1.2440    1.0490 h1        1 FVQ      0.116500
     35 H15         1.6140    2.0130    3.1260 ha        1 FVQ      0.148000
     36 H11        -1.1220    0.4060    5.6980 ha        1 FVQ      0.166000
     37 H14         2.9120    2.7400    4.9270 ha        1 FVQ      0.148000
     38 H13         2.2270    2.3230    7.1650 ha        1 FVQ      0.162000
@<TRIPOS>BOND
     1    1    2 1   
     2    1   22 1   
     3    2    3 1   
     4    2   23 1   
     5    2   24 1   
     6    3    4 1   
     7    3    5 1   
     8    3   25 1   
     9    4   11 1   
    10    5    6 1   
    11    5    7 1   
    12    5   26 1   
    13    6   28 1   
    14    7    8 1   
    15    7    9 1   
    16    7   29 1   
    17    8   30 1   
    18    9   10 1   
    19    9   11 1   
    20    9   31 1   
    21   10   32 1   
    22   11   12 1   
    23   11   27 1   
    24   12   13 1   
    25   13   14 1   
    26   13   33 1   
    27   13   34 1   
    28   14   15 1   
    29   16   17 1   
    30   16   21 1   
    31   17   18 1   
    32   17   35 1   
    33   18   37 1   
    34   19   20 1   
    35   19   38 1   
    36   21   36 1   
@<TRIPOS>SUBSTRUCTURE
     1 FVQ         1 TEMP              0 ****  ****    0 ROOT
