@<TRIPOS>MOLECULE
FVS
   88    91     1     0     0
SMALL
bcc


@<TRIPOS>ATOM
      1 FAE         0.2650    0.0190    0.7230 f         1 FVS     -0.219633
      2 CBM         1.5970    0.1130    0.4400 c3        1 FVS      0.580900
      3 FAF         2.2470   -0.0970    1.6240 f         1 FVS     -0.219633
      4 FAG         1.8920   -0.9670   -0.3430 f         1 FVS     -0.219633
      5 CBO         2.0060    1.5160   -0.2530 c3        1 FVS      0.395600
      6 FAH         1.2490    1.7020   -1.3830 f         1 FVS     -0.208300
      7 FAI         1.6100    2.5510    0.5600 f         1 FVS     -0.208300
      8 CBA         3.5260    1.4870   -0.5200 c3        1 FVS     -0.118400
      9 CAT         4.0040    2.7660   -1.1680 c3        1 FVS     -0.062400
     10 CAY         5.5010    2.7550   -1.3380 c3        1 FVS     -0.091100
     11 SBI         6.0130    4.2210   -2.1730 s4        1 FVS      0.259600
     12 OAB         5.4780    4.0990   -3.5560 o         1 FVS     -0.495200
     13 CAX         7.7280    3.8600   -2.2870 c3        1 FVS     -0.094100
     14 CAS         8.4530    5.0590   -2.8470 c3        1 FVS     -0.059400
     15 CAQ         9.9430    4.8080   -2.9470 c3        1 FVS     -0.074400
     16 CAO        10.6640    6.0130   -3.5120 c3        1 FVS     -0.079400
     17 CAM        12.1530    5.7630   -3.6110 c3        1 FVS     -0.078400
     18 CAN        12.8740    6.9640   -4.1850 c3        1 FVS     -0.079400
     19 CAP        14.3640    6.7160   -4.2800 c3        1 FVS     -0.079400
     20 CAR        15.0840    7.9130   -4.8640 c3        1 FVS     -0.078400
     21 CAU        16.5760    7.6640   -4.9480 c3        1 FVS     -0.078400
     22 CBH        17.3150    8.8410   -5.5680 c3        1 FVS     -0.054700
     23 CBN        18.7960    8.8970   -5.2040 c3        1 FVS     -0.044700
     24 CBK        19.0600    9.1060   -3.7310 c3        1 FVS     -0.065700
     25 CAZ        18.3790   10.2490   -2.9910 c3        1 FVS     -0.068400
     26 CAV        19.2580   10.4910   -1.7620 c3        1 FVS     -0.117400
     27 CBG        20.5510    9.6690   -1.9620 c3        1 FVS      0.141100
     28 OAD        21.7130   10.3970   -1.6140 oh        1 FVS     -0.591800
     29 CBL        20.5710    9.3260   -3.4730 c3        1 FVS     -0.044000
     30 CAA        21.1630   10.5010   -4.2330 c3        1 FVS     -0.078100
     31 CBC        21.2850    8.0400   -3.8440 c3        1 FVS     -0.064400
     32 CBB        20.9960    7.6450   -5.2840 c3        1 FVS     -0.071400
     33 CBJ        19.5110    7.6060   -5.6380 c3        1 FVS     -0.008400
     34 CBF        19.2700    7.3360   -7.0910 ca        1 FVS     -0.100300
     35 CAK        20.1200    6.4750   -7.8010 ca        1 FVS     -0.097000
     36 CAJ        19.9010    6.1720   -9.1380 ca        1 FVS     -0.159000
     37 CBD        18.7950    6.7410   -9.7890 ca        1 FVS      0.123100
     38 OAC        18.6200    6.4110  -11.1140 oh        1 FVS     -0.498100
     39 CAL        17.9280    7.5950   -9.1010 ca        1 FVS     -0.218000
     40 CBE        18.1620    7.8930   -7.7520 ca        1 FVS     -0.031300
     41 CAW        17.2080    8.8250   -7.0870 c3        1 FVS     -0.036100
     42 H1          3.7390    0.6090   -1.1840 hc        1 FVS      0.084200
     43 H2          4.0400    1.3260    0.4630 hc        1 FVS      0.084200
     44 H3          3.5100    2.8820   -2.1720 hc        1 FVS      0.069200
     45 H4          3.6920    3.6380   -0.5320 hc        1 FVS      0.069200
     46 H5          6.0030    2.7140   -0.3400 h1        1 FVS      0.083200
     47 H6          5.8050    1.8330   -1.8940 h1        1 FVS      0.083200
     48 H8          7.9310    2.9720   -2.9370 h1        1 FVS      0.084700
     49 H9          8.1260    3.6150   -1.2710 h1        1 FVS      0.084700
     50 H10         8.0450    5.2970   -3.8670 hc        1 FVS      0.049700
     51 H11         8.2720    5.9540   -2.1930 hc        1 FVS      0.049700
     52 H12        10.3520    4.5650   -1.9310 hc        1 FVS      0.042200
     53 H13        10.1290    3.9160   -3.6010 hc        1 FVS      0.042200
     54 H14        10.2540    6.2520   -4.5290 hc        1 FVS      0.041200
     55 H15        10.4740    6.9060   -2.8600 hc        1 FVS      0.041200
     56 H16        12.3420    4.8660   -4.2580 hc        1 FVS      0.040200
     57 H17        12.5640    5.5290   -2.5930 hc        1 FVS      0.040200
     58 H18        12.4650    7.1960   -5.2040 hc        1 FVS      0.039700
     59 H19        12.6820    7.8620   -3.5400 hc        1 FVS      0.039700
     60 H20        14.5550    5.8140   -4.9190 hc        1 FVS      0.040700
     61 H21        14.7740    6.4910   -3.2600 hc        1 FVS      0.040700
     62 H22        14.8870    8.8160   -4.2280 hc        1 FVS      0.038700
     63 H23        14.6740    8.1330   -5.8850 hc        1 FVS      0.038700
     64 H24        16.9670    7.4760   -3.9130 hc        1 FVS      0.046700
     65 H25        16.7700    6.7390   -5.5520 hc        1 FVS      0.046700
     66 H26        16.8380    9.7910   -5.1900 hc        1 FVS      0.049700
     67 H27        19.2370    9.7610   -5.7790 hc        1 FVS      0.061700
     68 H28        18.7710    8.1540   -3.1930 hc        1 FVS      0.046700
     69 H29        17.3350    9.9770   -2.7000 hc        1 FVS      0.045200
     70 H30        18.3280   11.1650   -3.6300 hc        1 FVS      0.045200
     71 H31        19.5090   11.5760   -1.6630 hc        1 FVS      0.047200
     72 H32        18.7370   10.1680   -0.8290 hc        1 FVS      0.047200
     73 H33        20.5120    8.7230   -1.3540 h1        1 FVS      0.033700
     74 H34        21.6080   10.6520   -0.6900 ho        1 FVS      0.398000
     75 H35        20.5780   11.4290   -4.0240 hc        1 FVS      0.041367
     76 H36        22.2160   10.6650   -3.8980 hc        1 FVS      0.041367
     77 H37        21.1670   10.3190   -5.3340 hc        1 FVS      0.041367
     78 H38        20.9560    7.2170   -3.1560 hc        1 FVS      0.044700
     79 H39        22.3910    8.1700   -3.7120 hc        1 FVS      0.044700
     80 H40        21.5200    8.3500   -5.9810 hc        1 FVS      0.043700
     81 H41        21.4370    6.6250   -5.4470 hc        1 FVS      0.043700
     82 H42        19.0480    6.7500   -5.0610 hc        1 FVS      0.055700
     83 H43        20.9860    6.0180   -7.2970 ha        1 FVS      0.135000
     84 H44        20.5720    5.5000   -9.6900 ha        1 FVS      0.149000
     85 H45        17.8290    6.8690  -11.4320 ho        1 FVS      0.417000
     86 H46        17.0610    8.0340   -9.6160 ha        1 FVS      0.131000
     87 H47        16.1580    8.5590   -7.3840 hc        1 FVS      0.052200
     88 H48        17.4090    9.8620   -7.4750 hc        1 FVS      0.052200
@<TRIPOS>BOND
     1    1    2 1   
     2    2    3 1   
     3    2    4 1   
     4    2    5 1   
     5    5    6 1   
     6    5    7 1   
     7    5    8 1   
     8    8    9 1   
     9    8   42 1   
    10    8   43 1   
    11    9   10 1   
    12    9   44 1   
    13    9   45 1   
    14   10   11 1   
    15   10   46 1   
    16   10   47 1   
    17   11   12 2   
    18   11   13 1   
    19   13   14 1   
    20   13   48 1   
    21   13   49 1   
    22   14   15 1   
    23   14   50 1   
    24   14   51 1   
    25   15   16 1   
    26   15   52 1   
    27   15   53 1   
    28   16   17 1   
    29   16   54 1   
    30   16   55 1   
    31   17   18 1   
    32   17   56 1   
    33   17   57 1   
    34   18   19 1   
    35   18   58 1   
    36   18   59 1   
    37   19   20 1   
    38   19   60 1   
    39   19   61 1   
    40   20   21 1   
    41   20   62 1   
    42   20   63 1   
    43   21   22 1   
    44   21   64 1   
    45   21   65 1   
    46   22   23 1   
    47   22   41 1   
    48   22   66 1   
    49   23   24 1   
    50   23   33 1   
    51   23   67 1   
    52   24   25 1   
    53   24   29 1   
    54   24   68 1   
    55   25   26 1   
    56   25   69 1   
    57   25   70 1   
    58   26   27 1   
    59   26   71 1   
    60   26   72 1   
    61   27   28 1   
    62   27   29 1   
    63   27   73 1   
    64   28   74 1   
    65   29   30 1   
    66   29   31 1   
    67   30   75 1   
    68   30   76 1   
    69   30   77 1   
    70   31   32 1   
    71   31   78 1   
    72   31   79 1   
    73   32   33 1   
    74   32   80 1   
    75   32   81 1   
    76   33   34 1   
    77   33   82 1   
    78   34   35 ar  
    79   34   40 ar  
    80   35   36 ar  
    81   35   83 1   
    82   36   37 ar  
    83   36   84 1   
    84   37   38 1   
    85   37   39 ar  
    86   38   85 1   
    87   39   40 ar  
    88   39   86 1   
    89   40   41 1   
    90   41   87 1   
    91   41   88 1   
@<TRIPOS>SUBSTRUCTURE
     1 FVS         1 TEMP              0 ****  ****    0 ROOT
