@<TRIPOS>MOLECULE
FVS
   88    87     1     0     0
SMALL
bcc


@<TRIPOS>ATOM
      1 FAE       -12.9530   -3.0280    8.1550 f         1 FVS     -0.148333
      2 CBM       -11.6780   -3.4140    8.0180 c3        1 FVS      0.367000
      3 FAF       -11.0280   -3.2230    9.1730 f         1 FVS     -0.148333
      4 FAG       -11.6380   -4.7120    7.6920 f         1 FVS     -0.148333
      5 CBO       -11.0180   -2.5990    6.9260 c3        1 FVS      0.253000
      6 FAH       -11.7090   -2.7370    5.7870 f         1 FVS     -0.136000
      7 FAI       -10.9990   -1.3080    7.2830 f         1 FVS     -0.136000
      8 CBA        -9.5990   -3.0870    6.7190 c3        1 FVS     -0.197000
      9 CAT        -8.9330   -2.2590    5.6370 c3        1 FVS     -0.141000
     10 CAY        -7.5940   -2.8780    5.2790 c3        1 FVS     -0.596000
     11 SBI        -6.8230   -1.9200    3.9930 s4        1 FVS      1.384000
     12 OAB        -7.6090   -1.0120    3.2040 o         1 FVS     -0.767000
     13 CAX        -5.0800   -2.0930    3.6780 c3        1 FVS     -0.599000
     14 CAS        -4.7690   -1.6090    2.2730 c3        1 FVS     -0.138000
     15 CAQ        -3.3170   -1.9160    1.9410 c3        1 FVS     -0.153000
     16 CAO        -2.8480   -1.0000    0.8220 c3        1 FVS     -0.159000
     17 CAM        -1.4670   -1.4340    0.3570 c3        1 FVS     -0.157000
     18 CAN        -0.9530   -0.4530   -0.6860 c3        1 FVS     -0.158000
     19 CAP         0.5200   -0.7220   -0.9520 c3        1 FVS     -0.158000
     20 CAR         1.0510    0.3030   -1.9430 c3        1 FVS     -0.157000
     21 CAU         2.5710    0.3020   -1.9080 c3        1 FVS     -0.157000
     22 CBH         3.1940    1.7370   -2.8020 c3        1 FVS     -0.094000
     23 CBN         4.1340    1.8160   -2.6100 c3        1 FVS     -0.084000
     24 CBK         4.3100    2.0490   -1.4170 c3        1 FVS     -0.105000
     25 CAZ         3.6840    3.1710   -0.9730 c3        1 FVS     -0.147000
     26 CAV         4.4570    3.4370    0.4980 c3        1 FVS     -0.196000
     27 CBG         5.8910    2.5260    0.2970 c3        1 FVS      0.030000
     28 OAD         6.9780    3.2120    0.7730 oh        1 FVS     -0.319000
     29 CBL         5.9520    2.3980   -1.0270 c3        1 FVS     -0.044000
     30 CAA         6.3420    3.7250   -1.6420 c3        1 FVS     -0.196000
     31 CBC         6.7920    1.4540   -1.4470 c3        1 FVS     -0.142000
     32 CBB         6.5990    1.1760   -2.7590 c3        1 FVS     -0.150000
     33 CBJ         4.9770    0.8430   -3.0950 c3        1 FVS     -0.055000
     34 CBF         4.8420    0.5050   -4.6840 c2        1 FVS     -0.093000
     35 CAK         5.8600   -0.1270   -5.4290 c2        1 FVS     -0.091000
     36 CAJ         5.6910   -0.3450   -6.7790 c1        1 FVS     -0.215000
     37 CBD         4.5370    0.0510   -7.3960 c1        1 FVS      0.078000
     38 OAC         4.3490   -0.2050   -8.7650 o         1 FVS     -0.253000
     39 CAL         3.5460    0.6670   -6.6690 c1        1 FVS     -0.162000
     40 CBE         3.7200    0.8900   -5.2840 c1        1 FVS     -0.029000
     41 CAW         2.7640    1.5440   -4.4720 c2        1 FVS     -0.123000
     42 H1         -9.6140   -4.0270    6.4470 hc        1 FVS      0.123000
     43 H2         -9.0980   -2.9970    7.5540 hc        1 FVS      0.123000
     44 H3         -8.7930   -1.3470    5.9640 hc        1 FVS      0.109000
     45 H4         -9.5050   -2.2370    4.8440 hc        1 FVS      0.109000
     46 H5         -7.0180   -2.8880    6.0690 h1        1 FVS      0.122500
     47 H6         -7.7330   -3.7940    4.9650 h1        1 FVS      0.122500
     48 H8         -4.8250   -3.0340    3.7630 h1        1 FVS      0.124500
     49 H9         -4.5770   -1.5600    4.3260 h1        1 FVS      0.124500
     50 H10        -4.9180   -0.6440    2.2200 hc        1 FVS      0.089000
     51 H11        -5.3520   -2.0650    1.6350 hc        1 FVS      0.089000
     52 H12        -3.2380   -2.8480    1.6540 hc        1 FVS      0.081500
     53 H13        -2.7630   -1.7710    2.7340 hc        1 FVS      0.081500
     54 H14        -2.8080   -0.0800    1.1500 hc        1 FVS      0.081000
     55 H15        -3.4760   -1.0530    0.0740 hc        1 FVS      0.081000
     56 H16        -0.8560   -1.4490    1.1200 hc        1 FVS      0.079500
     57 H17        -1.5210   -2.3280   -0.0360 hc        1 FVS      0.079500
     58 H18        -1.0620    0.4610   -0.3550 hc        1 FVS      0.079500
     59 H19        -1.4600   -0.5630   -1.5150 hc        1 FVS      0.079500
     60 H20         0.6250   -1.6200   -1.3250 hc        1 FVS      0.080000
     61 H21         1.0200   -0.6560   -0.1150 hc        1 FVS      0.080000
     62 H22         0.7200    1.1920   -1.7020 hc        1 FVS      0.078500
     63 H23         0.7460    0.0750   -2.8440 hc        1 FVS      0.078500
     64 H24         2.8760    0.3390   -0.9800 hc        1 FVS      0.085500
     65 H25         2.9060   -0.5150   -2.3280 hc        1 FVS      0.085500
     66 H26         2.7430    2.5350   -2.4590 hc        1 FVS      0.090000
     67 H27         4.4150    2.6380   -3.0730 hc        1 FVS      0.101000
     68 H28         4.0100    1.2820   -0.8910 hc        1 FVS      0.086000
     69 H29         3.8320    3.9200   -1.5870 hc        1 FVS      0.085000
     70 H30         2.7260    3.0080   -0.8410 hc        1 FVS      0.085000
     71 H31         4.6600    4.3850    0.6200 hc        1 FVS      0.086500
     72 H32         3.9240    3.0910    1.2410 hc        1 FVS      0.086500
     73 H33         5.8120    1.6500    0.7290 h1        1 FVS      0.073000
     74 H34         7.1410    2.9650    1.6110 ho        1 FVS      0.197000
     75 H35         7.2830    3.9140   -1.4420 hc        1 FVS      0.081000
     76 H36         6.2150    3.6860   -2.6130 hc        1 FVS      0.081000
     77 H37         5.7800    4.4350   -1.2680 hc        1 FVS      0.081000
     78 H38         6.6480    0.6380   -0.9220 hc        1 FVS      0.084000
     79 H39         7.7140    1.7630   -1.3160 hc        1 FVS      0.084000
     80 H40         7.1310    0.3880   -2.9900 hc        1 FVS      0.082500
     81 H41         6.8690    1.9580   -3.2840 hc        1 FVS      0.082500
     82 H42         4.7550    0.0220   -2.6160 hc        1 FVS      0.095000
     83 H43         6.6840   -0.4090   -4.9880 ha        1 FVS      0.133000
     84 H44         6.3930   -0.7870   -7.2930 ha        1 FVS      0.132000
     85 H45         4.9920    0.1890   -9.2310 ho        1 FVS      0.217000
     86 H46         2.7220    0.9500   -7.1090 ha        1 FVS      0.148000
     87 H47         2.6000    2.4330   -4.8490 ha        1 FVS      0.093500
     88 H48         1.9290    1.0340   -4.5140 ha        1 FVS      0.093500
@<TRIPOS>BOND
     1    1    2 1   
     2    2    3 1   
     3    2    4 1   
     4    2    5 1   
     5    5    6 1   
     6    5    7 1   
     7    5    8 1   
     8    8    9 1   
     9    8   42 1   
    10    8   43 1   
    11    9   10 1   
    12    9   44 1   
    13    9   45 1   
    14   10   11 1   
    15   10   46 1   
    16   10   47 1   
    17   11   12 1   
    18   11   13 1   
    19   13   14 1   
    20   13   48 1   
    21   13   49 1   
    22   14   15 1   
    23   14   50 1   
    24   14   51 1   
    25   15   16 1   
    26   15   52 1   
    27   15   53 1   
    28   16   17 1   
    29   16   54 1   
    30   16   55 1   
    31   17   18 1   
    32   17   56 1   
    33   17   57 1   
    34   18   19 1   
    35   18   58 1   
    36   18   59 1   
    37   19   20 1   
    38   19   60 1   
    39   19   61 1   
    40   20   21 1   
    41   20   62 1   
    42   20   63 1   
    43   21   22 1   
    44   21   64 1   
    45   21   65 1   
    46   22   23 1   
    47   22   41 1   
    48   22   66 1   
    49   23   24 1   
    50   23   33 1   
    51   23   67 1   
    52   24   25 1   
    53   24   29 1   
    54   24   68 1   
    55   25   26 1   
    56   25   69 1   
    57   25   70 1   
    58   26   27 1   
    59   26   71 1   
    60   26   72 1   
    61   27   28 1   
    62   27   29 1   
    63   27   73 1   
    64   28   74 1   
    65   29   30 1   
    66   29   31 1   
    67   30   75 1   
    68   30   76 1   
    69   30   77 1   
    70   31   32 1   
    71   31   78 1   
    72   31   79 1   
    73   32   33 1   
    74   32   80 1   
    75   32   81 1   
    76   33   34 1   
    77   33   82 1   
    78   34   35 1   
    79   34   40 1   
    80   35   36 1   
    81   35   83 1   
    82   36   84 1   
    83   37   39 1   
    84   38   85 1   
    85   39   86 1   
    86   41   87 1   
    87   41   88 1   
@<TRIPOS>SUBSTRUCTURE
     1 FVS         1 TEMP              0 ****  ****    0 ROOT
