@<TRIPOS>MOLECULE
FVS
   88    91     1     0     0
SMALL
bcc


@<TRIPOS>ATOM
      1 FAE       -13.8440    1.0530    0.6850 f         1 FVS     -0.219633
      2 CBM       -12.5520    0.9610    1.1160 c3        1 FVS      0.580900
      3 FAF       -12.3160    2.0970    1.8390 f         1 FVS     -0.219633
      4 FAG       -12.5280   -0.0660    2.0170 f         1 FVS     -0.219633
      5 CBO       -11.4900    0.7590   -0.0880 c3        1 FVS      0.395600
      6 FAH       -11.8440   -0.3450   -0.8240 f         1 FVS     -0.207300
      7 FAI       -11.6280    1.7890   -0.9870 f         1 FVS     -0.207300
      8 CBA       -10.0820    0.6660    0.5350 c3        1 FVS     -0.118400
      9 CAT        -9.0150    0.4780   -0.5200 c3        1 FVS     -0.062400
     10 CAY        -7.6410    0.4810    0.0980 c3        1 FVS     -0.091100
     11 SBI        -6.4300    0.1720   -1.1460 s4        1 FVS      0.259600
     12 OAB        -6.6630   -1.2300   -1.5870 o         1 FVS     -0.495200
     13 CAX        -5.0120    0.1180   -0.1100 c3        1 FVS     -0.094100
     14 CAS        -3.7720    0.0710   -0.9680 c3        1 FVS     -0.059400
     15 CAQ        -2.5160    0.0510   -0.1230 c3        1 FVS     -0.074400
     16 CAO        -1.2750    0.0070   -0.9900 c3        1 FVS     -0.080400
     17 CAM        -0.0190   -0.0120   -0.1460 c3        1 FVS     -0.078400
     18 CAN         1.2220   -0.0580   -1.0110 c3        1 FVS     -0.079400
     19 CAP         2.4790   -0.0750   -0.1670 c3        1 FVS     -0.079400
     20 CAR         3.7200   -0.1250   -1.0330 c3        1 FVS     -0.078400
     21 CAU         4.9760   -0.1330   -0.1850 c3        1 FVS     -0.078400
     22 CBH         6.2360   -0.2130   -1.0340 c3        1 FVS     -0.054700
     23 CBN         7.4880    0.3000   -0.3280 c3        1 FVS     -0.044700
     24 CBK         7.4390    1.7710    0.0170 c3        1 FVS     -0.065700
     25 CAZ         7.0860    2.7920   -1.0570 c3        1 FVS     -0.068400
     26 CAV         7.6590    4.1120   -0.5360 c3        1 FVS     -0.117400
     27 CBG         8.5450    3.7710    0.6830 c3        1 FVS      0.141100
     28 OAD         9.7730    4.4750    0.6720 oh        1 FVS     -0.591800
     29 CBL         8.8050    2.2480    0.5680 c3        1 FVS     -0.044000
     30 CAA         9.9680    2.0200   -0.3820 c3        1 FVS     -0.078100
     31 CBC         9.0410    1.5230    1.8800 c3        1 FVS     -0.063400
     32 CBB         8.9890    0.0140    1.6920 c3        1 FVS     -0.071400
     33 CBJ         7.7390   -0.4850    0.9700 c3        1 FVS     -0.008400
     34 CBF         7.7810   -1.9570    0.6930 ca        1 FVS     -0.100300
     35 CAK         8.3860   -2.8300    1.6060 ca        1 FVS     -0.091000
     36 CAJ         8.4040   -4.2050    1.3940 ca        1 FVS     -0.215000
     37 CBD         7.7960   -4.7230    0.2440 ca        1 FVS      0.123100
     38 OAC         7.7670   -6.0700   -0.0430 oh        1 FVS     -0.499100
     39 CAL         7.1760   -3.8720   -0.6790 ca        1 FVS     -0.162000
     40 CBE         7.1670   -2.4910   -0.4550 ca        1 FVS     -0.036300
     41 CAW         6.5080   -1.6420   -1.4880 c3        1 FVS     -0.037100
     42 H1         -9.9020    1.6100    1.1130 hc        1 FVS      0.083700
     43 H2        -10.0810   -0.1980    1.2500 hc        1 FVS      0.083700
     44 H3         -9.1880   -0.4970   -1.0550 hc        1 FVS      0.069700
     45 H4         -9.1010    1.3020   -1.2790 hc        1 FVS      0.069700
     46 H5         -7.4310    1.4740    0.5660 h1        1 FVS      0.083200
     47 H6         -7.6000   -0.2800    0.9160 h1        1 FVS      0.083200
     48 H8         -4.9900    1.0270    0.5420 h1        1 FVS      0.085200
     49 H9         -5.0210   -0.7690    0.5710 h1        1 FVS      0.085200
     50 H10        -3.8020   -0.8470   -1.6150 hc        1 FVS      0.049700
     51 H11        -3.7460    0.9640   -1.6490 hc        1 FVS      0.049700
     52 H12        -2.4880    0.9620    0.5310 hc        1 FVS      0.042200
     53 H13        -2.5350   -0.8430    0.5540 hc        1 FVS      0.042200
     54 H14        -1.3050   -0.9050   -1.6420 hc        1 FVS      0.041700
     55 H15        -1.2580    0.8990   -1.6690 hc        1 FVS      0.041700
     56 H16         0.0110    0.9000    0.5060 hc        1 FVS      0.040200
     57 H17        -0.0360   -0.9040    0.5350 hc        1 FVS      0.040200
     58 H18         1.1930   -0.9720   -1.6610 hc        1 FVS      0.040200
     59 H19         1.2390    0.8320   -1.6930 hc        1 FVS      0.040200
     60 H20         2.5090    0.8390    0.4810 hc        1 FVS      0.040700
     61 H21         2.4610   -0.9650    0.5160 hc        1 FVS      0.040700
     62 H22         3.6890   -1.0420   -1.6780 hc        1 FVS      0.039200
     63 H23         3.7350    0.7620   -1.7200 hc        1 FVS      0.039200
     64 H24         4.9970    0.8030    0.4340 hc        1 FVS      0.046200
     65 H25         4.9460   -1.0010    0.5250 hc        1 FVS      0.046200
     66 H26         6.0790    0.4250   -1.9510 hc        1 FVS      0.050700
     67 H27         8.3510    0.1190   -1.0300 hc        1 FVS      0.061700
     68 H28         6.6850    1.9020    0.8500 hc        1 FVS      0.046700
     69 H29         7.5480    2.5170   -2.0370 hc        1 FVS      0.045700
     70 H30         5.9810    2.8550   -1.2050 hc        1 FVS      0.045700
     71 H31         8.2730    4.6140   -1.3230 hc        1 FVS      0.047200
     72 H32         6.8410    4.8100   -0.2340 hc        1 FVS      0.047200
     73 H33         7.9990    3.9960    1.6400 h1        1 FVS      0.033700
     74 H34         9.5480    5.4130    0.6570 ho        1 FVS      0.398000
     75 H35         9.7510    2.4820   -1.3750 hc        1 FVS      0.041700
     76 H36        10.8870    2.5010    0.0360 hc        1 FVS      0.041700
     77 H37        10.1740    0.9340   -0.5280 hc        1 FVS      0.041700
     78 H38        10.0430    1.8080    2.2950 hc        1 FVS      0.044700
     79 H39         8.2640    1.8350    2.6260 hc        1 FVS      0.044700
     80 H40         9.8970   -0.3280    1.1310 hc        1 FVS      0.043200
     81 H41         9.0320   -0.4530    2.7130 hc        1 FVS      0.043200
     82 H42         6.8570   -0.3030    1.6550 hc        1 FVS      0.055700
     83 H43         8.8610   -2.4350    2.5170 ha        1 FVS      0.133000
     84 H44         8.8870   -4.8740    2.1190 ha        1 FVS      0.132000
     85 H45         8.2280   -6.5340    0.6710 ho        1 FVS      0.418000
     86 H46         6.7000   -4.2990   -1.5740 ha        1 FVS      0.148000
     87 H47         5.5450   -2.1230   -1.8060 hc        1 FVS      0.054200
     88 H48         7.1780   -1.6130   -2.3910 hc        1 FVS      0.054200
@<TRIPOS>BOND
     1    1    2 1   
     2    2    3 1   
     3    2    4 1   
     4    2    5 1   
     5    5    6 1   
     6    5    7 1   
     7    5    8 1   
     8    8    9 1   
     9    8   42 1   
    10    8   43 1   
    11    9   10 1   
    12    9   44 1   
    13    9   45 1   
    14   10   11 1   
    15   10   46 1   
    16   10   47 1   
    17   11   12 2   
    18   11   13 1   
    19   13   14 1   
    20   13   48 1   
    21   13   49 1   
    22   14   15 1   
    23   14   50 1   
    24   14   51 1   
    25   15   16 1   
    26   15   52 1   
    27   15   53 1   
    28   16   17 1   
    29   16   54 1   
    30   16   55 1   
    31   17   18 1   
    32   17   56 1   
    33   17   57 1   
    34   18   19 1   
    35   18   58 1   
    36   18   59 1   
    37   19   20 1   
    38   19   60 1   
    39   19   61 1   
    40   20   21 1   
    41   20   62 1   
    42   20   63 1   
    43   21   22 1   
    44   21   64 1   
    45   21   65 1   
    46   22   23 1   
    47   22   41 1   
    48   22   66 1   
    49   23   24 1   
    50   23   33 1   
    51   23   67 1   
    52   24   25 1   
    53   24   29 1   
    54   24   68 1   
    55   25   26 1   
    56   25   69 1   
    57   25   70 1   
    58   26   27 1   
    59   26   71 1   
    60   26   72 1   
    61   27   28 1   
    62   27   29 1   
    63   27   73 1   
    64   28   74 1   
    65   29   30 1   
    66   29   31 1   
    67   30   75 1   
    68   30   76 1   
    69   30   77 1   
    70   31   32 1   
    71   31   78 1   
    72   31   79 1   
    73   32   33 1   
    74   32   80 1   
    75   32   81 1   
    76   33   34 1   
    77   33   82 1   
    78   34   35 ar  
    79   34   40 ar  
    80   35   36 ar  
    81   35   83 1   
    82   36   37 ar  
    83   36   84 1   
    84   37   38 1   
    85   37   39 ar  
    86   38   85 1   
    87   39   40 ar  
    88   39   86 1   
    89   40   41 1   
    90   41   87 1   
    91   41   88 1   
@<TRIPOS>SUBSTRUCTURE
     1 FVS         1 TEMP              0 ****  ****    0 ROOT
