@<TRIPOS>MOLECULE
FVS
   88    91     1     0     0
SMALL
bcc


@<TRIPOS>ATOM
      1 FAE         0.2790    0.0170    0.6990 f         1 FVS     -0.219633
      2 CBM         1.6100    0.1100    0.4120 c3        1 FVS      0.580900
      3 FAF         2.2640   -0.1100    1.5930 f         1 FVS     -0.219633
      4 FAG         1.9000   -0.9660   -0.3800 f         1 FVS     -0.219633
      5 CBO         2.0190    1.5170   -0.2710 c3        1 FVS      0.395600
      6 FAH         1.2580    1.7120   -1.3970 f         1 FVS     -0.208300
      7 FAI         1.6290    2.5470    0.5500 f         1 FVS     -0.208300
      8 CBA         3.5380    1.4860   -0.5450 c3        1 FVS     -0.118400
      9 CAT         4.0160    2.7700   -1.1850 c3        1 FVS     -0.062400
     10 CAY         5.5120    2.7570   -1.3610 c3        1 FVS     -0.091100
     11 SBI         6.0250    4.2290   -2.1860 s4        1 FVS      0.259600
     12 OAB         5.4820    4.1190   -3.5670 o         1 FVS     -0.495200
     13 CAX         7.7380    3.8630   -2.3130 c3        1 FVS     -0.094100
     14 CAS         8.4640    5.0680   -2.8600 c3        1 FVS     -0.059400
     15 CAQ         9.9520    4.8130   -2.9700 c3        1 FVS     -0.074400
     16 CAO        10.6740    6.0240   -3.5210 c3        1 FVS     -0.079400
     17 CAM        12.1630    5.7710   -3.6300 c3        1 FVS     -0.078400
     18 CAN        12.8850    6.9790   -4.1890 c3        1 FVS     -0.079400
     19 CAP        14.3740    6.7280   -4.2940 c3        1 FVS     -0.079400
     20 CAR        15.0950    7.9330   -4.8610 c3        1 FVS     -0.078400
     21 CAU        16.5860    7.6820   -4.9530 c3        1 FVS     -0.078400
     22 CBH        17.3260    8.8660   -5.5560 c3        1 FVS     -0.054700
     23 CBN        18.8090    8.9140   -5.1950 c3        1 FVS     -0.044700
     24 CBK        19.0760    9.0980   -3.7190 c3        1 FVS     -0.065700
     25 CAZ        18.3990   10.2310   -2.9590 c3        1 FVS     -0.068400
     26 CAV        19.2820   10.4510   -1.7290 c3        1 FVS     -0.117400
     27 CBG        20.5720    9.6290   -1.9450 c3        1 FVS      0.141100
     28 OAD        21.7370   10.3500   -1.5890 oh        1 FVS     -0.591800
     29 CBL        20.5880    9.3110   -3.4620 c3        1 FVS     -0.044000
     30 CAA        21.1810   10.4960   -4.2050 c3        1 FVS     -0.078100
     31 CBC        21.2990    8.0290   -3.8550 c3        1 FVS     -0.064400
     32 CBB        21.0060    7.6580   -5.3010 c3        1 FVS     -0.071400
     33 CBJ        19.5190    7.6280   -5.6510 c3        1 FVS     -0.008400
     34 CBF        19.2740    7.3830   -7.1080 ca        1 FVS     -0.100300
     35 CAK        20.1210    6.5320   -7.8340 ca        1 FVS     -0.097000
     36 CAJ        19.8980    6.2510   -9.1750 ca        1 FVS     -0.159000
     37 CBD        18.7920    6.8330   -9.8140 ca        1 FVS      0.123100
     38 OAC        18.6130    6.5240  -11.1440 oh        1 FVS     -0.498100
     39 CAL        17.9280    7.6770   -9.1100 ca        1 FVS     -0.218000
     40 CBE        18.1650    7.9520   -7.7580 ca        1 FVS     -0.031300
     41 CAW        17.2150    8.8760   -7.0750 c3        1 FVS     -0.036100
     42 H1          4.0560    1.3180    0.4350 hc        1 FVS      0.084200
     43 H2          3.7460    0.6130   -1.2160 hc        1 FVS      0.084200
     44 H3          3.5180    2.8950   -2.1860 hc        1 FVS      0.069200
     45 H4          3.7080    3.6380   -0.5410 hc        1 FVS      0.069200
     46 H5          6.0180    2.7070   -0.3650 h1        1 FVS      0.083200
     47 H6          5.8120    1.8390   -1.9250 h1        1 FVS      0.083200
     48 H8          7.9340    2.9840   -2.9770 h1        1 FVS      0.084700
     49 H9          8.1400    3.6030   -1.3030 h1        1 FVS      0.084700
     50 H10         8.0520    5.3210   -3.8750 hc        1 FVS      0.049700
     51 H11         8.2880    5.9540   -2.1930 hc        1 FVS      0.049700
     52 H12        10.3660    4.5540   -1.9600 hc        1 FVS      0.042200
     53 H13        10.1330    3.9300   -3.6380 hc        1 FVS      0.042200
     54 H14        10.2610    6.2800   -4.5330 hc        1 FVS      0.041200
     55 H15        10.4910    6.9080   -2.8560 hc        1 FVS      0.041200
     56 H16        12.5770    5.5210   -2.6180 hc        1 FVS      0.040200
     57 H17        12.3470    4.8840   -4.2910 hc        1 FVS      0.040200
     58 H18        12.4730    7.2270   -5.2020 hc        1 FVS      0.039700
     59 H19        12.6980    7.8670   -3.5290 hc        1 FVS      0.039700
     60 H20        14.7870    6.4860   -3.2790 hc        1 FVS      0.040700
     61 H21        14.5600    5.8360   -4.9480 hc        1 FVS      0.040700
     62 H22        14.9020    8.8260   -4.2100 hc        1 FVS      0.038700
     63 H23        14.6830    8.1700   -5.8770 hc        1 FVS      0.038700
     64 H24        16.7770    6.7660   -5.5730 hc        1 FVS      0.046700
     65 H25        16.9800    7.4750   -3.9230 hc        1 FVS      0.046700
     66 H26        16.8520    9.8110   -5.1610 hc        1 FVS      0.049700
     67 H27        19.2500    9.7860   -5.7570 hc        1 FVS      0.061700
     68 H28        18.7860    8.1380   -3.1970 hc        1 FVS      0.046700
     69 H29        18.3490   11.1570   -3.5840 hc        1 FVS      0.045200
     70 H30        17.3560    9.9560   -2.6710 hc        1 FVS      0.045200
     71 H31        19.5360   11.5330   -1.6130 hc        1 FVS      0.047200
     72 H32        18.7620   10.1140   -0.8000 hc        1 FVS      0.047200
     73 H33        20.5330    8.6740   -1.3530 h1        1 FVS      0.033700
     74 H34        21.6340   10.5900   -0.6600 ho        1 FVS      0.398000
     75 H35        21.1820   10.3320   -5.3080 hc        1 FVS      0.041367
     76 H36        20.5990   11.4220   -3.9780 hc        1 FVS      0.041367
     77 H37        22.2360   10.6530   -3.8690 hc        1 FVS      0.041367
     78 H38        20.9700    7.1960   -3.1800 hc        1 FVS      0.044700
     79 H39        22.4050    8.1550   -3.7240 hc        1 FVS      0.044700
     80 H40        21.4440    6.6400   -5.4810 hc        1 FVS      0.043700
     81 H41        21.5300    8.3730   -5.9870 hc        1 FVS      0.043700
     82 H42        19.0560    6.7640   -5.0880 hc        1 FVS      0.055700
     83 H43        20.9870    6.0650   -7.3400 ha        1 FVS      0.135000
     84 H44        20.5670    5.5870   -9.7400 ha        1 FVS      0.149000
     85 H45        17.8230    6.9890  -11.4530 ho        1 FVS      0.417000
     86 H46        17.0610    8.1260   -9.6160 ha        1 FVS      0.131000
     87 H47        17.4170    9.9180   -7.4470 hc        1 FVS      0.052200
     88 H48        16.1640    8.6150   -7.3740 hc        1 FVS      0.052200
@<TRIPOS>BOND
     1    1    2 1   
     2    2    3 1   
     3    2    4 1   
     4    2    5 1   
     5    5    6 1   
     6    5    7 1   
     7    5    8 1   
     8    8    9 1   
     9    8   42 1   
    10    8   43 1   
    11    9   10 1   
    12    9   44 1   
    13    9   45 1   
    14   10   11 1   
    15   10   46 1   
    16   10   47 1   
    17   11   12 2   
    18   11   13 1   
    19   13   14 1   
    20   13   48 1   
    21   13   49 1   
    22   14   15 1   
    23   14   50 1   
    24   14   51 1   
    25   15   16 1   
    26   15   52 1   
    27   15   53 1   
    28   16   17 1   
    29   16   54 1   
    30   16   55 1   
    31   17   18 1   
    32   17   56 1   
    33   17   57 1   
    34   18   19 1   
    35   18   58 1   
    36   18   59 1   
    37   19   20 1   
    38   19   60 1   
    39   19   61 1   
    40   20   21 1   
    41   20   62 1   
    42   20   63 1   
    43   21   22 1   
    44   21   64 1   
    45   21   65 1   
    46   22   23 1   
    47   22   41 1   
    48   22   66 1   
    49   23   24 1   
    50   23   33 1   
    51   23   67 1   
    52   24   25 1   
    53   24   29 1   
    54   24   68 1   
    55   25   26 1   
    56   25   69 1   
    57   25   70 1   
    58   26   27 1   
    59   26   71 1   
    60   26   72 1   
    61   27   28 1   
    62   27   29 1   
    63   27   73 1   
    64   28   74 1   
    65   29   30 1   
    66   29   31 1   
    67   30   75 1   
    68   30   76 1   
    69   30   77 1   
    70   31   32 1   
    71   31   78 1   
    72   31   79 1   
    73   32   33 1   
    74   32   80 1   
    75   32   81 1   
    76   33   34 1   
    77   33   82 1   
    78   34   35 ar  
    79   34   40 ar  
    80   35   36 ar  
    81   35   83 1   
    82   36   37 ar  
    83   36   84 1   
    84   37   38 1   
    85   37   39 ar  
    86   38   85 1   
    87   39   40 ar  
    88   39   86 1   
    89   40   41 1   
    90   41   87 1   
    91   41   88 1   
@<TRIPOS>SUBSTRUCTURE
     1 FVS         1 TEMP              0 ****  ****    0 ROOT
