@<TRIPOS>MOLECULE
FVX
   43    43     1     0     0
SMALL
bcc


@<TRIPOS>ATOM
      1 C1          5.4710    4.6300   -0.2710 c3        1 FVX      0.116700
      2 O2          4.6330    3.7950    0.5080 os        1 FVX     -0.422600
      3 C3          3.9010    2.8620   -0.2850 c3        1 FVX      0.129400
      4 C4          3.0480    2.0520    0.6740 c3        1 FVX     -0.084400
      5 C5          2.2410    1.0200   -0.0820 c3        1 FVX     -0.077400
      6 C6          1.3840    0.2070    0.8700 c3        1 FVX     -0.137700
      7 C7          0.5700   -0.8240    0.1380 ce        1 FVX      0.389900
      8 N8          1.0290   -1.9050   -0.4480 n2        1 FVX     -0.417200
      9 O9          2.3350   -2.0850   -0.3850 os        1 FVX     -0.201300
     10 C10         2.7830   -3.3120   -1.0360 c3        1 FVX      0.139400
     11 C11         4.2870   -3.3700   -0.7570 c3        1 FVX      0.153800
     12 N12         4.6040   -3.7040    0.6100 n3        1 FVX     -0.915800
     13 C13        -0.8880   -0.5820    0.1030 ca        1 FVX     -0.087900
     14 C14        -1.3690    0.6910   -0.2310 ca        1 FVX     -0.113500
     15 C15        -2.7390    0.9390   -0.2540 ca        1 FVX     -0.085000
     16 C16        -3.6340   -0.0880    0.0600 ca        1 FVX     -0.164300
     17 C17        -3.1630   -1.3590    0.3930 ca        1 FVX     -0.085000
     18 C18        -1.7920   -1.6070    0.4120 ca        1 FVX     -0.113500
     19 C19        -5.1330    0.1790    0.0200 c3        1 FVX      0.687200
     20 F20        -5.8740   -0.5900    0.8840 f         1 FVX     -0.237300
     21 F21        -5.4920    1.4700    0.3270 f         1 FVX     -0.237300
     22 F22        -5.7120   -0.0440   -1.2060 f         1 FVX     -0.237300
     23 H1          6.2290    4.0220   -0.8250 h1        1 FVX      0.032700
     24 H2          4.8670    5.2340   -0.9930 h1        1 FVX      0.032700
     25 H3          5.9720    5.2970    0.4750 h1        1 FVX      0.032700
     26 H4          3.2620    3.4150   -1.0240 h1        1 FVX      0.026200
     27 H5          4.6160    2.2020   -0.8450 h1        1 FVX      0.026200
     28 H6          3.7110    1.5510    1.4270 hc        1 FVX      0.055700
     29 H7          2.3680    2.7420    1.2390 hc        1 FVX      0.055700
     30 H8          1.5880    1.5300   -0.8380 hc        1 FVX      0.048700
     31 H9          2.9290    0.3320   -0.6420 hc        1 FVX      0.048700
     32 H10         2.0470   -0.3150    1.6130 hc        1 FVX      0.061700
     33 H11         0.7040    0.8890    1.4460 hc        1 FVX      0.061700
     34 H12         2.2390   -4.1940   -0.6130 h1        1 FVX      0.060200
     35 H13         2.5990   -3.2320   -2.1370 h1        1 FVX      0.060200
     36 H14         4.7180   -4.1770   -1.4160 h1        1 FVX      0.039200
     37 H15         4.7360   -2.3850   -1.0830 h1        1 FVX      0.039200
     38 H16         5.5800   -3.5710    0.7830 hn        1 FVX      0.355800
     39 H17         4.0740   -3.1410    1.2460 hn        1 FVX      0.355800
     40 H19        -0.6620    1.4980   -0.4790 ha        1 FVX      0.151000
     41 H20        -3.1200    1.9390   -0.5130 ha        1 FVX      0.153500
     42 H21        -3.8760   -2.1620    0.6410 ha        1 FVX      0.153500
     43 H22        -1.4230   -2.6120    0.6690 ha        1 FVX      0.151000
@<TRIPOS>BOND
     1    1    2 1   
     2    1   23 1   
     3    1   24 1   
     4    1   25 1   
     5    2    3 1   
     6    3    4 1   
     7    3   26 1   
     8    3   27 1   
     9    4    5 1   
    10    4   28 1   
    11    4   29 1   
    12    5    6 1   
    13    5   30 1   
    14    5   31 1   
    15    6    7 1   
    16    6   32 1   
    17    6   33 1   
    18    7    8 2   
    19    7   13 1   
    20    8    9 1   
    21    9   10 1   
    22   10   11 1   
    23   10   34 1   
    24   10   35 1   
    25   11   12 1   
    26   11   36 1   
    27   11   37 1   
    28   12   38 1   
    29   12   39 1   
    30   13   14 ar  
    31   13   18 ar  
    32   14   15 ar  
    33   14   40 1   
    34   15   16 ar  
    35   15   41 1   
    36   16   17 ar  
    37   16   19 1   
    38   17   18 ar  
    39   17   42 1   
    40   18   43 1   
    41   19   20 1   
    42   19   21 1   
    43   19   22 1   
@<TRIPOS>SUBSTRUCTURE
     1 FVX         1 TEMP              0 ****  ****    0 ROOT
