@<TRIPOS>MOLECULE
FVX
   44    44     1     0     0
SMALL
bcc


@<TRIPOS>ATOM
      1 C1         -0.2830   -0.0690   -0.1750 c3        1 FVX      0.114700
      2 O2          1.1240    0.1080   -0.1790 os        1 FVX     -0.419600
      3 C3          1.7070   -0.0920    1.1050 c3        1 FVX      0.131400
      4 C4          3.1880    0.2100    0.9520 c3        1 FVX     -0.087400
      5 C5          3.9260   -0.0860    2.2380 c3        1 FVX     -0.070400
      6 C6          5.3940    0.2700    2.0970 c3        1 FVX     -0.159700
      7 C7          6.1630   -0.0420    3.3510 ce        1 FVX      0.511900
      8 N8          6.4460   -1.2310    3.8240 n2        1 FVX     -0.566200
      9 O9          6.0520   -2.2680    3.0800 os        1 FVX     -0.167300
     10 C10         5.7780   -3.4550    3.8380 c3        1 FVX      0.115400
     11 C11         7.0620   -4.1190    4.3400 c3        1 FVX      0.071800
     12 N12         7.8030   -3.2920    5.3330 nz        1 FVX     -0.828600
     13 C13         6.6680    1.1370    4.0930 ca        1 FVX     -0.139900
     14 C14         5.7560    2.0660    4.6070 ca        1 FVX     -0.114000
     15 C15         6.2200    3.1880    5.2930 ca        1 FVX     -0.076000
     16 C16         7.5940    3.3800    5.4560 ca        1 FVX     -0.146300
     17 C17         8.5070    2.4620    4.9350 ca        1 FVX     -0.076000
     18 C18         8.0440    1.3350    4.2570 ca        1 FVX     -0.114000
     19 C19         8.1060    4.6150    6.1960 c3        1 FVX      0.687200
     20 F20         9.2750    4.4060    6.8860 f         1 FVX     -0.225633
     21 F21         8.3770    5.6810    5.3750 f         1 FVX     -0.225633
     22 F22         7.2360    5.1110    7.1340 f         1 FVX     -0.225633
     23 H1         -0.5880    0.1160   -1.2360 h1        1 FVX      0.038700
     24 H2         -0.5480   -1.1100    0.1340 h1        1 FVX      0.038700
     25 H3         -0.7710    0.6680    0.5090 h1        1 FVX      0.038700
     26 H4          1.5420   -1.1540    1.4310 h1        1 FVX      0.025200
     27 H5          1.2310    0.5960    1.8530 h1        1 FVX      0.025200
     28 H6          3.3170    1.2870    0.6660 hc        1 FVX      0.064200
     29 H7          3.6060   -0.4070    0.1130 hc        1 FVX      0.064200
     30 H8          3.8250   -1.1740    2.4920 hc        1 FVX      0.043700
     31 H9          3.4730    0.5020    3.0790 hc        1 FVX      0.043700
     32 H10         5.4960    1.3620    1.8560 hc        1 FVX      0.082700
     33 H11         5.8400   -0.3090    1.2420 hc        1 FVX      0.082700
     34 H12         5.0620   -3.2560    4.6770 h1        1 FVX      0.102700
     35 H13         5.3020   -4.1320    3.0740 h1        1 FVX      0.102700
     36 H14         6.7990   -5.1030    4.8250 hx        1 FVX      0.117700
     37 H15         7.7540   -4.3090    3.4680 hx        1 FVX      0.117700
     38 H16         8.2830   -2.5180    4.8550 hn        1 FVX      0.465467
     39 H17         7.1490   -2.8870    6.0120 hn        1 FVX      0.465467
     40 H19         4.6740    1.9160    4.4670 ha        1 FVX      0.146000
     41 H20         5.5070    3.9210    5.7060 ha        1 FVX      0.168000
     42 H21         9.5890    2.6310    5.0620 ha        1 FVX      0.168000
     43 H22         8.7630    0.6190    3.8350 ha        1 FVX      0.146000
     44 H123        8.4960   -3.8630    5.8250 hn        1 FVX      0.465467
@<TRIPOS>BOND
     1    1    2 1   
     2    1   23 1   
     3    1   24 1   
     4    1   25 1   
     5    2    3 1   
     6    3    4 1   
     7    3   26 1   
     8    3   27 1   
     9    4    5 1   
    10    4   28 1   
    11    4   29 1   
    12    5    6 1   
    13    5   30 1   
    14    5   31 1   
    15    6    7 1   
    16    6   32 1   
    17    6   33 1   
    18    7    8 2   
    19    7   13 1   
    20    8    9 1   
    21    9   10 1   
    22   10   11 1   
    23   10   34 1   
    24   10   35 1   
    25   11   12 1   
    26   11   36 1   
    27   11   37 1   
    28   12   38 1   
    29   12   39 1   
    30   12   44 1   
    31   13   14 ar  
    32   13   18 ar  
    33   14   15 ar  
    34   14   40 1   
    35   15   16 ar  
    36   15   41 1   
    37   16   17 ar  
    38   16   19 1   
    39   17   18 ar  
    40   17   42 1   
    41   18   43 1   
    42   19   20 1   
    43   19   21 1   
    44   19   22 1   
@<TRIPOS>SUBSTRUCTURE
     1 FVX         1 TEMP              0 ****  ****    0 ROOT
