@<TRIPOS>MOLECULE
FVX
   44    44     1     0     0
SMALL
bcc


@<TRIPOS>ATOM
      1 C1         -0.3580   -0.0980   -0.0570 c3        1 FVX      0.114700
      2 O2          1.0480    0.0830   -0.0930 os        1 FVX     -0.419600
      3 C3          1.6600   -0.1110    1.1780 c3        1 FVX      0.131400
      4 C4          3.1360    0.1930    0.9910 c3        1 FVX     -0.087400
      5 C5          3.9040   -0.0950    2.2630 c3        1 FVX     -0.070400
      6 C6          5.3670    0.2630    2.0870 c3        1 FVX     -0.159700
      7 C7          6.1630   -0.0390    3.3270 ce        1 FVX      0.511900
      8 N8          6.4610   -1.2230    3.8010 n2        1 FVX     -0.565200
      9 O9          6.0560   -2.2670    3.0710 os        1 FVX     -0.167300
     10 C10         5.8060   -3.4510    3.8420 c3        1 FVX      0.115400
     11 C11         7.1040   -4.1040    4.3210 c3        1 FVX      0.072800
     12 N12         7.8580   -3.2680    5.2960 n4        1 FVX     -0.828600
     13 C13         6.6790    1.1460    4.0520 ca        1 FVX     -0.140900
     14 C14         5.7740    2.0620    4.6010 ca        1 FVX     -0.114500
     15 C15         6.2470    3.1870    5.2740 ca        1 FVX     -0.076500
     16 C16         7.6230    3.3970    5.3880 ca        1 FVX     -0.146300
     17 C17         8.5290    2.4940    4.8280 ca        1 FVX     -0.076500
     18 C18         8.0560    1.3630    4.1640 ca        1 FVX     -0.114500
     19 C19         8.1460    4.6160    6.1470 c3        1 FVX      0.687200
     20 F20         8.3860    4.3700    7.4770 f         1 FVX     -0.225967
     21 F21         9.3350    5.1080    5.6700 f         1 FVX     -0.225967
     22 F22         7.2960    5.6920    6.1430 f         1 FVX     -0.225967
     23 H1         -0.8330    0.6400    0.6360 h1        1 FVX      0.038700
     24 H2         -0.6130   -1.1390    0.2610 h1        1 FVX      0.038700
     25 H3         -0.6870    0.0830   -1.1110 h1        1 FVX      0.038700
     26 H4          1.1990    0.5790    1.9350 h1        1 FVX      0.025200
     27 H5          1.5050   -1.1720    1.5120 h1        1 FVX      0.025200
     28 H6          3.2560    1.2690    0.6980 hc        1 FVX      0.064200
     29 H7          3.5370   -0.4270    0.1470 hc        1 FVX      0.064200
     30 H8          3.4670    0.4970    3.1110 hc        1 FVX      0.043700
     31 H9          3.8100   -1.1820    2.5240 hc        1 FVX      0.043700
     32 H10         5.7950   -0.3200    1.2260 hc        1 FVX      0.082700
     33 H11         5.4620    1.3540    1.8370 hc        1 FVX      0.082700
     34 H12         5.1050   -3.2510    4.6940 h1        1 FVX      0.102200
     35 H13         5.3180   -4.1360    3.0920 h1        1 FVX      0.102200
     36 H14         6.8570   -5.0880    4.8150 hx        1 FVX      0.117700
     37 H15         7.7800   -4.2930    3.4370 hx        1 FVX      0.117700
     38 H16         7.2150   -2.8640    5.9860 hn        1 FVX      0.465467
     39 H17         8.5640   -3.8310    5.7770 hn        1 FVX      0.465467
     40 H19         4.6890    1.8990    4.4990 ha        1 FVX      0.146500
     41 H20         5.5400    3.9150    5.7070 ha        1 FVX      0.168000
     42 H21         9.6130    2.6840    4.9060 ha        1 FVX      0.168000
     43 H22         8.7700    0.6590    3.7110 ha        1 FVX      0.146500
     44 H123        8.3230   -2.4920    4.8060 hn        1 FVX      0.465467
@<TRIPOS>BOND
     1    1    2 1   
     2    1   23 1   
     3    1   24 1   
     4    1   25 1   
     5    2    3 1   
     6    3    4 1   
     7    3   26 1   
     8    3   27 1   
     9    4    5 1   
    10    4   28 1   
    11    4   29 1   
    12    5    6 1   
    13    5   30 1   
    14    5   31 1   
    15    6    7 1   
    16    6   32 1   
    17    6   33 1   
    18    7    8 2   
    19    7   13 1   
    20    8    9 1   
    21    9   10 1   
    22   10   11 1   
    23   10   34 1   
    24   10   35 1   
    25   11   12 1   
    26   11   36 1   
    27   11   37 1   
    28   12   38 1   
    29   12   39 1   
    30   12   44 1   
    31   13   14 ar  
    32   13   18 ar  
    33   14   15 ar  
    34   14   40 1   
    35   15   16 ar  
    36   15   41 1   
    37   16   17 ar  
    38   16   19 1   
    39   17   18 ar  
    40   17   42 1   
    41   18   43 1   
    42   19   20 1   
    43   19   21 1   
    44   19   22 1   
@<TRIPOS>SUBSTRUCTURE
     1 FVX         1 TEMP              0 ****  ****    0 ROOT
