@<TRIPOS>MOLECULE
FVX
   44    44     1     0     0
SMALL
bcc


@<TRIPOS>ATOM
      1 C1         -0.0610    0.2700   -0.4940 c3        1 FVX      0.114700
      2 O2          1.3520    0.1670   -0.4280 os        1 FVX     -0.420600
      3 C3          1.8390    0.1450    0.9110 c3        1 FVX      0.130400
      4 C4          3.3550    0.1230    0.8120 c3        1 FVX     -0.086400
      5 C5          3.9730   -0.0350    2.1840 c3        1 FVX     -0.070400
      6 C6          5.4870   -0.0000    2.0860 c3        1 FVX     -0.156700
      7 C7          6.1180   -0.1980    3.4370 ce        1 FVX      0.506900
      8 N8          6.3030   -1.3400    4.0510 n2        1 FVX     -0.565200
      9 O9          5.9230   -2.4310    3.3800 os        1 FVX     -0.168300
     10 C10         5.7050   -3.5750    4.2180 c3        1 FVX      0.117400
     11 C11         7.0250   -4.1960    4.6810 c3        1 FVX      0.070800
     12 N12         7.8250   -3.2940    5.5560 n4        1 FVX     -0.827600
     13 C13         6.5830    1.0340    4.1150 ca        1 FVX     -0.142900
     14 C14         6.0600    1.3940    5.3620 ca        1 FVX     -0.113000
     15 C15         6.4860    2.5680    5.9820 ca        1 FVX     -0.078500
     16 C16         7.4430    3.3710    5.3590 ca        1 FVX     -0.145300
     17 C17         7.9660    3.0180    4.1130 ca        1 FVX     -0.078500
     18 C18         7.5340    1.8490    3.4880 ca        1 FVX     -0.113000
     19 C19         7.9350    4.6380    6.0570 c3        1 FVX      0.687200
     20 F20         8.3600    5.6250    5.2040 f         1 FVX     -0.225967
     21 F21         6.9950    5.2440    6.8520 f         1 FVX     -0.225967
     22 F22         9.0040    4.4210    6.8930 f         1 FVX     -0.225967
     23 H1         -0.2860    0.2740   -1.5890 h1        1 FVX      0.038367
     24 H2         -0.5430   -0.6070    0.0050 h1        1 FVX      0.038367
     25 H3         -0.4100    1.2200   -0.0180 h1        1 FVX      0.038367
     26 H4          1.4540   -0.7710    1.4350 h1        1 FVX      0.026700
     27 H5          1.4840    1.0560    1.4630 h1        1 FVX      0.026700
     28 H6          3.7060    1.0740    0.3330 hc        1 FVX      0.062200
     29 H7          3.6690   -0.7210    0.1440 hc        1 FVX      0.062200
     30 H8          3.6490   -1.0090    2.6370 hc        1 FVX      0.047700
     31 H9          3.6180    0.7890    2.8580 hc        1 FVX      0.047700
     32 H10         5.8150    0.9850    1.6590 hc        1 FVX      0.077200
     33 H11         5.8340   -0.8070    1.3840 hc        1 FVX      0.077200
     34 H12         5.0350   -3.3370    5.0840 h1        1 FVX      0.103200
     35 H13         5.1950   -4.3000    3.5220 h1        1 FVX      0.103200
     36 H14         6.8020   -5.1410    5.2550 hx        1 FVX      0.117200
     37 H15         7.6590   -4.4500    3.7810 hx        1 FVX      0.117200
     38 H16         8.2690   -2.5590    4.9900 hn        1 FVX      0.465467
     39 H17         7.2130   -2.8380    6.2430 hn        1 FVX      0.465467
     40 H19         5.2990    0.7650    5.8480 ha        1 FVX      0.149000
     41 H20         6.0660    2.8680    6.9560 ha        1 FVX      0.168000
     42 H21         8.7110    3.6670    3.6230 ha        1 FVX      0.168000
     43 H22         7.9410    1.5740    2.5020 ha        1 FVX      0.149000
     44 H123        8.5510   -3.8240    6.0450 hn        1 FVX      0.465467
@<TRIPOS>BOND
     1    1    2 1   
     2    1   23 1   
     3    1   24 1   
     4    1   25 1   
     5    2    3 1   
     6    3    4 1   
     7    3   26 1   
     8    3   27 1   
     9    4    5 1   
    10    4   28 1   
    11    4   29 1   
    12    5    6 1   
    13    5   30 1   
    14    5   31 1   
    15    6    7 1   
    16    6   32 1   
    17    6   33 1   
    18    7    8 2   
    19    7   13 1   
    20    8    9 1   
    21    9   10 1   
    22   10   11 1   
    23   10   34 1   
    24   10   35 1   
    25   11   12 1   
    26   11   36 1   
    27   11   37 1   
    28   12   38 1   
    29   12   39 1   
    30   12   44 1   
    31   13   14 ar  
    32   13   18 ar  
    33   14   15 ar  
    34   14   40 1   
    35   15   16 ar  
    36   15   41 1   
    37   16   17 ar  
    38   16   19 1   
    39   17   18 ar  
    40   17   42 1   
    41   18   43 1   
    42   19   20 1   
    43   19   21 1   
    44   19   22 1   
@<TRIPOS>SUBSTRUCTURE
     1 FVX         1 TEMP              0 ****  ****    0 ROOT
