@<TRIPOS>MOLECULE
FW1
   65    67     1     0     0
SMALL
bcc


@<TRIPOS>ATOM
      1 CAA        -1.0050    2.0640   -0.1130 c3        1 FW1     -0.027700
      2 CAB        -1.4380    0.7530   -0.7640 c3        1 FW1     -0.021500
      3 CAC        -2.1820   -0.2060    0.1170 c2        1 FW1     -0.090400
      4 CAD        -1.6840   -1.0700    1.0060 c2        1 FW1     -0.132200
      5 CAE        -0.2660   -1.3330    1.3900 c3        1 FW1      0.040400
      6 CAF         0.7470   -0.3980    0.7420 c2        1 FW1     -0.107400
      7 CAG         0.9280    0.9680    1.3020 c3        1 FW1      0.169300
      8 CAH        -0.2680    1.9460    1.2260 c3        1 FW1      0.130100
      9 CAI         0.1740   -2.7420    0.8530 c3        1 FW1      0.140100
     10 CAJ         1.0630   -2.4630   -0.3690 c3        1 FW1     -0.089200
     11 CAK         1.4440   -1.0160   -0.2400 c2        1 FW1     -0.088400
     12 CAL        -2.3730    0.9840   -1.9620 c3        1 FW1     -0.078400
     13 CAM        -3.7860    0.7020   -1.4700 c3        1 FW1     -0.070400
     14 CAN        -3.6440   -0.2220   -0.2570 c3        1 FW1     -0.031500
     15 CAO        -0.1500   -1.3350    2.9080 c3        1 FW1     -0.087100
     16 CAP        -4.5350    0.1870    0.9080 c3        1 FW1      0.137400
     17 CAQ        -2.1440    3.0510    0.0770 c3        1 FW1     -0.089100
     18 OAR        -1.2170    1.6720    2.2460 oh        1 FW1     -0.579800
     19 OAS        -5.8670   -0.2040    0.5690 os        1 FW1     -0.427600
     20 CAT         2.4680   -0.4520   -1.1570 c3        1 FW1     -0.021500
     21 CAU         2.4300   -1.1100   -2.5230 c3        1 FW1     -0.089100
     22 CAV         3.8500   -0.6020   -0.5190 c3        1 FW1      0.150400
     23 OAW         2.0580    1.5760    0.6780 oh        1 FW1     -0.595800
     24 OAX         4.7760    0.0790   -1.3840 os        1 FW1     -0.441900
     25 OAY        -0.9670   -3.5180    0.5430 oh        1 FW1     -0.586800
     26 CAZ        -6.7970    0.1060    1.5910 c3        1 FW1      0.118700
     27 CBA         6.0570    0.2080   -0.9260 c         1 FW1      0.632100
     28 CBB         6.9440    0.9340   -1.8770 c3        1 FW1     -0.150100
     29 OBC         6.3410   -0.2680    0.1750 o         1 FW1     -0.549000
     30 HAA        -0.2540    2.5250   -0.8220 hc        1 FW1      0.048700
     31 HAB        -0.5020    0.2520   -1.1450 hc        1 FW1      0.065700
     32 HAD        -2.3810   -1.7560    1.5260 ha        1 FW1      0.133000
     33 HAG         1.1660    0.8320    2.4050 h1        1 FW1      0.033700
     34 HAH         0.1720    2.9750    1.4310 h1        1 FW1      0.014700
     35 HAI         0.7690   -3.2740    1.6470 h1        1 FW1      0.038700
     36 HAJ         1.9700   -3.1160   -0.3710 hc        1 FW1      0.061700
     37 HAJA        0.4990   -2.6380   -1.3210 hc        1 FW1      0.061700
     38 HAL        -2.2740    2.0120   -2.3830 hc        1 FW1      0.041200
     39 HALA       -2.1040    0.2640   -2.7770 hc        1 FW1      0.041200
     40 HAM        -4.2950    1.6550   -1.1790 hc        1 FW1      0.046200
     41 HAMA       -4.4040    0.2170   -2.2640 hc        1 FW1      0.046200
     42 HAN        -3.9310   -1.2700   -0.5550 hc        1 FW1      0.073700
     43 HAO         0.9180   -1.4270    3.2200 hc        1 FW1      0.041033
     44 HAOA       -0.5740   -0.3930    3.3300 hc        1 FW1      0.041033
     45 HAOB       -0.7220   -2.1980    3.3260 hc        1 FW1      0.041033
     46 HAP        -4.2180   -0.3440    1.8460 h1        1 FW1      0.032700
     47 HAPA       -4.5050    1.2940    1.0870 h1        1 FW1      0.032700
     48 HAQ        -1.7770    3.9640    0.6060 hc        1 FW1      0.038700
     49 HAQA       -2.5750    3.3660   -0.9020 hc        1 FW1      0.038700
     50 HAQB       -2.9510    2.5870    0.6950 hc        1 FW1      0.038700
     51 HOAR       -0.7530    1.7610    3.0880 ho        1 FW1      0.392000
     52 HAT         2.2710    0.6520   -1.2980 hc        1 FW1      0.090700
     53 HAU         1.4140   -1.0080   -2.9740 hc        1 FW1      0.038700
     54 HAUA        3.1760   -0.6180   -3.1920 hc        1 FW1      0.038700
     55 HAUB        2.6820   -2.1960   -2.4520 hc        1 FW1      0.038700
     56 HAV         3.8710   -0.1190    0.4940 h1        1 FW1      0.056200
     57 HAVA        4.1600   -1.6750   -0.4410 h1        1 FW1      0.056200
     58 HOAW        2.2430    2.3880    1.1650 ho        1 FW1      0.400000
     59 HOAY       -0.6460   -4.3020    0.0810 ho        1 FW1      0.400000
     60 HAZ        -6.5370   -0.4290    2.5380 h1        1 FW1      0.030033
     61 HAZA       -6.8280    1.2090    1.7770 h1        1 FW1      0.030033
     62 HAZB       -7.7800   -0.2520    1.1960 h1        1 FW1      0.030033
     63 HBB         6.3810    1.2540   -2.7860 hc        1 FW1      0.074700
     64 HBBA        7.3650    1.8330   -1.3630 hc        1 FW1      0.074700
     65 HBBB        7.7830    0.2590   -2.1760 hc        1 FW1      0.074700
@<TRIPOS>BOND
     1    1    2 1   
     2    1    8 1   
     3    1   17 1   
     4    1   30 1   
     5    2    3 1   
     6    2   12 1   
     7    2   31 1   
     8    3    4 2   
     9    3   14 1   
    10    4    5 1   
    11    4   32 1   
    12    5    6 1   
    13    5    9 1   
    14    5   15 1   
    15    6    7 1   
    16    6   11 2   
    17    7    8 1   
    18    7   23 1   
    19    7   33 1   
    20    8   18 1   
    21    8   34 1   
    22    9   10 1   
    23    9   25 1   
    24    9   35 1   
    25   10   11 1   
    26   10   36 1   
    27   10   37 1   
    28   11   20 1   
    29   12   13 1   
    30   12   38 1   
    31   12   39 1   
    32   13   14 1   
    33   13   40 1   
    34   13   41 1   
    35   14   16 1   
    36   14   42 1   
    37   15   43 1   
    38   15   44 1   
    39   15   45 1   
    40   16   19 1   
    41   16   46 1   
    42   16   47 1   
    43   17   48 1   
    44   17   49 1   
    45   17   50 1   
    46   18   51 1   
    47   19   26 1   
    48   20   21 1   
    49   20   22 1   
    50   20   52 1   
    51   21   53 1   
    52   21   54 1   
    53   21   55 1   
    54   22   24 1   
    55   22   56 1   
    56   22   57 1   
    57   23   58 1   
    58   24   27 1   
    59   25   59 1   
    60   26   60 1   
    61   26   61 1   
    62   26   62 1   
    63   27   28 1   
    64   27   29 2   
    65   28   63 1   
    66   28   64 1   
    67   28   65 1   
@<TRIPOS>SUBSTRUCTURE
     1 FW1         1 TEMP              0 ****  ****    0 ROOT
