@<TRIPOS>MOLECULE
FW1
   65    66     1     0     0
SMALL
bcc


@<TRIPOS>ATOM
      1 CAA         0.3040    1.3290   -2.9490 c3        1 FW1     -0.119000
      2 CAB         1.7880    0.8970   -2.9120 c3        1 FW1     -0.074000
      3 CAC         2.2600    0.8750   -1.6460 c2        1 FW1     -0.128000
      4 CAD         1.3080    1.1270   -0.4600 c1        1 FW1     -0.129000
      5 CAE         0.4960   -0.0700    0.1700 c2        1 FW1      0.039000
      6 CAF        -0.7220    0.1960    0.2450 c2        1 FW1     -0.138000
      7 CAG        -1.1800    1.0100   -0.9680 c3        1 FW1      0.042000
      8 CAH        -0.5610    0.3500   -2.1870 c3        1 FW1      0.021000
      9 CAI         0.9510   -0.3060    1.7320 c3        1 FW1      0.033000
     10 CAJ        -0.3610    0.1010    2.6110 c3        1 FW1     -0.175000
     11 CAK        -1.1640    0.5870    1.6130 c2        1 FW1     -0.091000
     12 CAL         1.9360   -0.6040   -3.4520 c3        1 FW1     -0.160000
     13 CAM         2.8430   -1.3700   -2.4020 c3        1 FW1     -0.157000
     14 CAN         3.4010   -0.3740   -1.5700 c3        1 FW1     -0.094000
     15 CAO         0.7130   -1.3480   -0.6410 c3        1 FW1     -0.209000
     16 CAP         3.7010   -0.8460   -0.1640 c3        1 FW1     -0.021000
     17 CAQ        -0.1580    1.3900   -4.3790 c3        1 FW1     -0.213000
     18 OAR         0.2270   -0.7370   -1.7730 oh        1 FW1     -0.323000
     19 OAS         4.8160   -1.7160   -0.1870 os        1 FW1     -0.275000
     20 CAT        -2.6420    0.8800    1.8890 c3        1 FW1     -0.076000
     21 CAU        -2.7550    2.0290    2.8600 c3        1 FW1     -0.198000
     22 CAV        -3.2960   -0.3440    2.4810 c3        1 FW1     -0.008000
     23 OAW        -0.7920    2.3470   -0.8050 oh        1 FW1     -0.328000
     24 OAX        -4.6720   -0.0660    2.7490 os        1 FW1     -0.279000
     25 OAY         1.9110    0.4240    2.0200 oh        1 FW1     -0.316000
     26 CAZ         5.9050   -1.2720    0.5970 c3        1 FW1     -0.078000
     27 CBA        -5.3980   -1.1790    3.2430 c2        1 FW1      0.304000
     28 CBB        -6.8020   -0.9840    3.8030 c3        1 FW1     -0.218000
     29 OBC        -4.9250   -2.2940    3.1650 o         1 FW1     -0.359000
     30 HAA         0.2170    2.2130   -2.5460 hc        1 FW1      0.084000
     31 HAB         2.3260    1.5030   -3.4590 hc        1 FW1      0.100000
     32 HAD         1.2240    2.0250   -0.0850 ha        1 FW1      0.128000
     33 HAG        -2.1450    1.1070   -1.0810 h1        1 FW1      0.129000
     34 HAH        -1.2700    0.0270   -2.7730 h1        1 FW1      0.122000
     35 HAI         1.1820   -1.2460    1.8800 h1        1 FW1      0.083000
     36 HAJ        -0.7240   -0.5480    3.2520 hc        1 FW1      0.102500
     37 HAJA       -0.1260    0.8420    3.2100 hc        1 FW1      0.102500
     38 HAL         1.0590   -1.0270   -3.5090 hc        1 FW1      0.093500
     39 HALA        2.3680   -0.6040   -4.3340 hc        1 FW1      0.093500
     40 HAM         3.5550   -1.8600   -2.8650 hc        1 FW1      0.093000
     41 HAMA        2.3000   -1.9840   -1.8730 hc        1 FW1      0.093000
     42 HAN         4.2850   -0.0860   -1.8790 hc        1 FW1      0.102000
     43 HAO         1.1590   -2.0220   -0.0790 hc        1 FW1      0.084333
     44 HAOA        1.2720   -1.1500   -1.4170 hc        1 FW1      0.084333
     45 HAOB       -0.1560   -1.6970   -0.9440 hc        1 FW1      0.084333
     46 HAP         2.9250   -1.3210    0.1930 h1        1 FW1      0.092000
     47 HAPA        3.9010   -0.0740    0.4050 h1        1 FW1      0.092000
     48 HAQ        -0.2940    0.4780   -4.7180 hc        1 FW1      0.079333
     49 HAQA        0.5210    1.8430   -4.9230 hc        1 FW1      0.079333
     50 HAQB       -1.0010    1.8860   -4.4290 hc        1 FW1      0.079333
     51 HOAR        0.0120   -1.4570   -2.2480 ho        1 FW1      0.210000
     52 HAT        -3.0880    1.1150    1.0550 hc        1 FW1      0.138000
     53 HAU        -3.6370    2.4510    2.7670 hc        1 FW1      0.077667
     54 HAUA       -2.0560    2.6880    2.6690 hc        1 FW1      0.077667
     55 HAUB       -2.6470    1.6940    3.7780 hc        1 FW1      0.077667
     56 HAV        -2.8430   -0.5840    3.3150 h1        1 FW1      0.091500
     57 HAVA       -3.2300   -1.0880    1.8470 h1        1 FW1      0.091500
     58 HOAW       -1.5050    2.8740   -0.8790 ho        1 FW1      0.201000
     59 HOAY        2.1230    0.3100    2.8780 ho        1 FW1      0.199000
     60 HAZ         6.7260   -1.7220    0.3010 h1        1 FW1      0.072333
     61 HAZA        6.0090   -0.3000    0.4950 h1        1 FW1      0.072333
     62 HAZB        5.7380   -1.4850    1.5390 h1        1 FW1      0.072333
     63 HBB        -6.8950   -0.0670    4.1430 hc        1 FW1      0.116000
     64 HBBA       -7.4610   -1.1390    3.0950 hc        1 FW1      0.116000
     65 HBBB       -6.9540   -1.6210    4.5350 hc        1 FW1      0.116000
@<TRIPOS>BOND
     1    1    2 1   
     2    1    8 1   
     3    1   17 1   
     4    1   30 1   
     5    2    3 1   
     6    2   12 1   
     7    2   31 1   
     8    3    4 1   
     9    3   14 1   
    10    4   32 1   
    11    5    6 1   
    12    5    9 1   
    13    5   15 1   
    14    6    7 1   
    15    6   11 1   
    16    7    8 1   
    17    7   23 1   
    18    7   33 1   
    19    8   18 1   
    20    8   34 1   
    21    9   10 1   
    22    9   25 1   
    23    9   35 1   
    24   10   11 1   
    25   10   36 1   
    26   10   37 1   
    27   11   20 1   
    28   12   13 1   
    29   12   38 1   
    30   12   39 1   
    31   13   14 1   
    32   13   40 1   
    33   13   41 1   
    34   14   16 1   
    35   14   42 1   
    36   15   43 1   
    37   15   44 1   
    38   15   45 1   
    39   16   19 1   
    40   16   46 1   
    41   16   47 1   
    42   17   48 1   
    43   17   49 1   
    44   17   50 1   
    45   18   51 1   
    46   19   26 1   
    47   20   21 1   
    48   20   22 1   
    49   20   52 1   
    50   21   53 1   
    51   21   54 1   
    52   21   55 1   
    53   22   24 1   
    54   22   56 1   
    55   22   57 1   
    56   23   58 1   
    57   24   27 1   
    58   25   59 1   
    59   26   60 1   
    60   26   61 1   
    61   26   62 1   
    62   27   28 1   
    63   27   29 1   
    64   28   63 1   
    65   28   64 1   
    66   28   65 1   
@<TRIPOS>SUBSTRUCTURE
     1 FW1         1 TEMP              0 ****  ****    0 ROOT
