@<TRIPOS>MOLECULE
FW1
   65    67     1     0     0
SMALL
bcc


@<TRIPOS>ATOM
      1 CAA         0.3870    0.2970    0.1520 c3        1 FW1     -0.071700
      2 CAB         1.4510    0.9160    1.0570 c3        1 FW1     -0.028500
      3 CAC         2.0790   -0.0020    2.0640 c2        1 FW1     -0.113400
      4 CAD         1.6040   -0.3710    3.2590 c2        1 FW1     -0.148200
      5 CAE         0.3210   -0.0040    3.9290 c3        1 FW1      0.030400
      6 CAF        -0.6110    0.8470    3.0790 c2        1 FW1     -0.114400
      7 CAG        -1.4440    0.1840    2.0410 c3        1 FW1      0.166300
      8 CAH        -0.7230   -0.4940    0.8530 c3        1 FW1      0.128100
      9 CAI         0.6240    0.9300    5.1550 c3        1 FW1      0.142100
     10 CAJ         0.2340    2.3470    4.7030 c3        1 FW1     -0.090200
     11 CAK        -0.6250    2.1380    3.4900 c2        1 FW1     -0.087400
     12 CAL         2.6360    1.4770    0.2550 c3        1 FW1     -0.077400
     13 CAM         3.7610    0.4580    0.3690 c3        1 FW1     -0.071400
     14 CAN         3.4850   -0.3500    1.6400 c3        1 FW1     -0.035500
     15 CAO        -0.3640   -1.2660    4.4350 c3        1 FW1     -0.095100
     16 CAP         3.6660   -1.8500    1.4440 c3        1 FW1      0.134400
     17 CAQ         0.9640   -0.5900   -0.9360 c3        1 FW1     -0.090100
     18 OAR        -0.3400   -1.8090    1.2110 oh        1 FW1     -0.604800
     19 OAS         5.0700   -2.1060    1.4860 os        1 FW1     -0.422600
     20 CAT        -1.3420    3.2980    2.9000 c3        1 FW1     -0.021500
     21 CAU        -0.5580    4.5860    3.0550 c3        1 FW1     -0.089100
     22 CAV        -2.7210    3.4170    3.5490 c3        1 FW1      0.150400
     23 OAW        -2.3810    1.1280    1.5230 oh        1 FW1     -0.599800
     24 OAX        -3.4140    4.4650    2.8470 os        1 FW1     -0.441900
     25 OAY         1.9860    0.8210    5.5210 oh        1 FW1     -0.588800
     26 CAZ         5.3740   -3.4790    1.3180 c3        1 FW1      0.116700
     27 CBA        -4.7230    4.6640    3.1860 c         1 FW1      0.632100
     28 CBB        -5.3690    5.7520    2.3990 c3        1 FW1     -0.150100
     29 OBC        -5.2170    3.9600    4.0690 o         1 FW1     -0.548000
     30 HAA        -0.1310    1.1700   -0.3460 hc        1 FW1      0.058700
     31 HAB         0.9600    1.7740    1.6000 hc        1 FW1      0.072700
     32 HAD         2.2440   -0.9970    3.9120 ha        1 FW1      0.139000
     33 HAG        -2.0200   -0.6420    2.5680 h1        1 FW1      0.056700
     34 HAH        -1.5270   -0.6770    0.0700 h1        1 FW1      0.058700
     35 HAI        -0.0130    0.6160    6.0280 h1        1 FW1      0.041700
     36 HAJ         1.1440    2.9470    4.4430 hc        1 FW1      0.062700
     37 HAJA       -0.3290    2.8890    5.5020 hc        1 FW1      0.062700
     38 HAL         2.3650    1.6830   -0.8080 hc        1 FW1      0.044700
     39 HALA        2.9560    2.4490    0.7110 hc        1 FW1      0.044700
     40 HAM         3.7720   -0.2120   -0.5280 hc        1 FW1      0.047700
     41 HAMA        4.7580    0.9580    0.4290 hc        1 FW1      0.047700
     42 HAN         4.1990   -0.0220    2.4480 hc        1 FW1      0.080700
     43 HAO        -1.3480   -1.0140    4.8990 hc        1 FW1      0.046700
     44 HAOA        0.2790   -1.7610    5.2030 hc        1 FW1      0.046700
     45 HAOB       -0.5370   -1.9830    3.5970 hc        1 FW1      0.046700
     46 HAP         3.2520   -2.1950    0.4600 h1        1 FW1      0.029200
     47 HAPA        3.1590   -2.4160    2.2720 h1        1 FW1      0.029200
     48 HAQ         1.5930   -0.0030   -1.6470 hc        1 FW1      0.038367
     49 HAQA        1.5920   -1.3950   -0.4860 hc        1 FW1      0.038367
     50 HAQB        0.1400   -1.0720   -1.5160 hc        1 FW1      0.038367
     51 HOAR        0.5150   -1.7580    1.6600 ho        1 FW1      0.414000
     52 HAT        -1.4960    3.1150    1.7950 hc        1 FW1      0.091700
     53 HAU         0.4520    4.4830    2.5910 hc        1 FW1      0.038367
     54 HAUA       -0.4310    4.8510    4.1320 hc        1 FW1      0.038367
     55 HAUB       -1.1070    5.4170    2.5500 hc        1 FW1      0.038367
     56 HAV        -2.6510    3.6990    4.6310 h1        1 FW1      0.056700
     57 HAVA       -3.2960    2.4610    3.4360 h1        1 FW1      0.056700
     58 HOAW       -3.0450    0.6200    1.0420 ho        1 FW1      0.403000
     59 HOAY        2.1480    1.5100    6.1770 ho        1 FW1      0.402000
     60 HAZ         6.4900   -3.5280    1.3750 h1        1 FW1      0.032033
     61 HAZA        5.0160   -3.8460    0.3240 h1        1 FW1      0.032033
     62 HAZB        4.9130   -4.0890    2.1340 h1        1 FW1      0.032033
     63 HBB        -4.6470    6.2100    1.6810 hc        1 FW1      0.074700
     64 HBBA       -5.7430    6.5340    3.1030 hc        1 FW1      0.074700
     65 HBBB       -6.2330    5.3240    1.8350 hc        1 FW1      0.074700
@<TRIPOS>BOND
     1    1    2 1   
     2    1    8 1   
     3    1   17 1   
     4    1   30 1   
     5    2    3 1   
     6    2   12 1   
     7    2   31 1   
     8    3    4 2   
     9    3   14 1   
    10    4    5 1   
    11    4   32 1   
    12    5    6 1   
    13    5    9 1   
    14    5   15 1   
    15    6    7 1   
    16    6   11 2   
    17    7    8 1   
    18    7   23 1   
    19    7   33 1   
    20    8   18 1   
    21    8   34 1   
    22    9   10 1   
    23    9   25 1   
    24    9   35 1   
    25   10   11 1   
    26   10   36 1   
    27   10   37 1   
    28   11   20 1   
    29   12   13 1   
    30   12   38 1   
    31   12   39 1   
    32   13   14 1   
    33   13   40 1   
    34   13   41 1   
    35   14   16 1   
    36   14   42 1   
    37   15   43 1   
    38   15   44 1   
    39   15   45 1   
    40   16   19 1   
    41   16   46 1   
    42   16   47 1   
    43   17   48 1   
    44   17   49 1   
    45   17   50 1   
    46   18   51 1   
    47   19   26 1   
    48   20   21 1   
    49   20   22 1   
    50   20   52 1   
    51   21   53 1   
    52   21   54 1   
    53   21   55 1   
    54   22   24 1   
    55   22   56 1   
    56   22   57 1   
    57   23   58 1   
    58   24   27 1   
    59   25   59 1   
    60   26   60 1   
    61   26   61 1   
    62   26   62 1   
    63   27   28 1   
    64   27   29 2   
    65   28   63 1   
    66   28   64 1   
    67   28   65 1   
@<TRIPOS>SUBSTRUCTURE
     1 FW1         1 TEMP              0 ****  ****    0 ROOT
