@<TRIPOS>MOLECULE
FW1
   65    67     1     0     0
SMALL
bcc


@<TRIPOS>ATOM
      1 CAA         0.4980    0.1650    0.0010 c3        1 FW1     -0.079700
      2 CAB         1.3940    0.8760    1.0130 c3        1 FW1     -0.030500
      3 CAC         2.0140   -0.0010    2.0600 c2        1 FW1     -0.114400
      4 CAD         1.4560   -0.4590    3.1850 c2        1 FW1     -0.144200
      5 CAE         0.0870   -0.2340    3.7340 c3        1 FW1      0.031400
      6 CAF        -0.8480    0.5750    2.8430 c2        1 FW1     -0.135400
      7 CAG        -1.5000   -0.0910    1.6800 c3        1 FW1      0.159300
      8 CAH        -0.6040   -0.7250    0.5900 c3        1 FW1      0.122100
      9 CAI         0.2000    0.6490    5.0290 c3        1 FW1      0.142100
     10 CAJ        -0.3200    2.0380    4.6310 c3        1 FW1     -0.092200
     11 CAK        -1.0680    1.8150    3.3480 c2        1 FW1     -0.102400
     12 CAL         2.5830    1.5770    0.3380 c3        1 FW1     -0.077400
     13 CAM         3.7970    0.6830    0.5550 c3        1 FW1     -0.071400
     14 CAN         3.4850   -0.1830    1.7780 c3        1 FW1     -0.034500
     15 CAO        -0.5390   -1.5680    4.1180 c3        1 FW1     -0.097100
     16 CAP         3.8530   -1.6480    1.5800 c3        1 FW1      0.134400
     17 CAQ         1.2700   -0.6630   -1.0090 c3        1 FW1     -0.089100
     18 OAR        -0.1510   -2.0030    0.9860 oh        1 FW1     -0.597800
     19 OAS         5.2610   -1.7520    1.7950 os        1 FW1     -0.423600
     20 CAT        -1.8910    2.9210    2.7930 c3        1 FW1     -0.035500
     21 CAU        -1.0760    3.7640    1.8270 c3        1 FW1     -0.087100
     22 CAV        -2.4490    3.8020    3.9120 c3        1 FW1      0.143400
     23 OAW        -2.4460    0.7360    1.0180 oh        1 FW1     -0.592800
     24 OAX        -3.4400    4.6460    3.3000 os        1 FW1     -0.443900
     25 OAY         1.5380    0.6730    5.4870 oh        1 FW1     -0.589800
     26 CAZ         5.7340   -3.0790    1.6460 c3        1 FW1      0.115700
     27 CBA        -4.1110    5.4990    4.1320 c         1 FW1      0.633100
     28 CBB        -5.1310    6.3210    3.4230 c3        1 FW1     -0.150100
     29 OBC        -3.8170    5.5000    5.3290 o         1 FW1     -0.546000
     30 HAA        -0.0360    0.9870   -0.5630 hc        1 FW1      0.043700
     31 HAB         0.7630    1.6620    1.5200 hc        1 FW1      0.066700
     32 HAD         2.0850   -1.0460    3.8840 ha        1 FW1      0.141000
     33 HAG        -2.1400   -0.9300    2.1030 h1        1 FW1      0.097700
     34 HAH        -1.3160   -0.9680   -0.2630 h1        1 FW1      0.078700
     35 HAI        -0.4520    0.2110    5.8360 h1        1 FW1      0.042700
     36 HAJ        -0.9800    2.4530    5.4330 hc        1 FW1      0.062700
     37 HAJA        0.5270    2.7520    4.4690 hc        1 FW1      0.062700
     38 HAL         2.3970    1.7680   -0.7460 hc        1 FW1      0.044700
     39 HALA        2.7480    2.5700    0.8290 hc        1 FW1      0.044700
     40 HAM         4.7210    1.2890    0.7270 hc        1 FW1      0.048700
     41 HAMA        3.9750    0.0430   -0.3450 hc        1 FW1      0.048700
     42 HAN         4.0710    0.2000    2.6620 hc        1 FW1      0.081700
     43 HAO         0.0860   -2.0670    4.8970 hc        1 FW1      0.048033
     44 HAOA       -1.5660   -1.4090    4.5270 hc        1 FW1      0.048033
     45 HAOB       -0.6140   -2.2430    3.2310 hc        1 FW1      0.048033
     46 HAP         3.3140   -2.2920    2.3270 h1        1 FW1      0.029700
     47 HAPA        3.6070   -2.0050    0.5450 h1        1 FW1      0.029700
     48 HAQ         1.9100   -1.4140   -0.4850 hc        1 FW1      0.040367
     49 HAQA        1.9230   -0.0200   -1.6450 hc        1 FW1      0.040367
     50 HAQB        0.5610   -1.2130   -1.6750 hc        1 FW1      0.040367
     51 HOAR        0.6560   -1.8880    1.5060 ho        1 FW1      0.412000
     52 HAT        -2.7840    2.4960    2.2470 hc        1 FW1      0.095700
     53 HAU        -0.1540    4.1510    2.3240 hc        1 FW1      0.039367
     54 HAUA       -1.6880    4.6310    1.4790 hc        1 FW1      0.039367
     55 HAUB       -0.7720    3.1590    0.9390 hc        1 FW1      0.039367
     56 HAV        -1.6580    4.4500    4.3710 h1        1 FW1      0.054700
     57 HAVA       -2.9460    3.1890    4.7090 h1        1 FW1      0.054700
     58 HOAW       -1.9520    1.4340    0.5680 ho        1 FW1      0.400000
     59 HOAY        1.5680    1.3170    6.2060 ho        1 FW1      0.403000
     60 HAZ         6.8330   -3.0070    1.8430 h1        1 FW1      0.032367
     61 HAZA        5.5450   -3.4520    0.6090 h1        1 FW1      0.032367
     62 HAZB        5.2460   -3.7580    2.3880 h1        1 FW1      0.032367
     63 HBB        -4.9020    7.4020    3.5880 hc        1 FW1      0.076700
     64 HBBA       -5.1330    6.1010    2.3290 hc        1 FW1      0.076700
     65 HBBB       -6.1380    6.0920    3.8510 hc        1 FW1      0.076700
@<TRIPOS>BOND
     1    1    2 1   
     2    1    8 1   
     3    1   17 1   
     4    1   30 1   
     5    2    3 1   
     6    2   12 1   
     7    2   31 1   
     8    3    4 2   
     9    3   14 1   
    10    4    5 1   
    11    4   32 1   
    12    5    6 1   
    13    5    9 1   
    14    5   15 1   
    15    6    7 1   
    16    6   11 2   
    17    7    8 1   
    18    7   23 1   
    19    7   33 1   
    20    8   18 1   
    21    8   34 1   
    22    9   10 1   
    23    9   25 1   
    24    9   35 1   
    25   10   11 1   
    26   10   36 1   
    27   10   37 1   
    28   11   20 1   
    29   12   13 1   
    30   12   38 1   
    31   12   39 1   
    32   13   14 1   
    33   13   40 1   
    34   13   41 1   
    35   14   16 1   
    36   14   42 1   
    37   15   43 1   
    38   15   44 1   
    39   15   45 1   
    40   16   19 1   
    41   16   46 1   
    42   16   47 1   
    43   17   48 1   
    44   17   49 1   
    45   17   50 1   
    46   18   51 1   
    47   19   26 1   
    48   20   21 1   
    49   20   22 1   
    50   20   52 1   
    51   21   53 1   
    52   21   54 1   
    53   21   55 1   
    54   22   24 1   
    55   22   56 1   
    56   22   57 1   
    57   23   58 1   
    58   24   27 1   
    59   25   59 1   
    60   26   60 1   
    61   26   61 1   
    62   26   62 1   
    63   27   28 1   
    64   27   29 2   
    65   28   63 1   
    66   28   64 1   
    67   28   65 1   
@<TRIPOS>SUBSTRUCTURE
     1 FW1         1 TEMP              0 ****  ****    0 ROOT
