@<TRIPOS>MOLECULE
FWD
   23    23     1     0     0
SMALL
bcc


@<TRIPOS>ATOM
      1 N1         -0.0090   -0.1560    0.1230 n         1 FWD     -0.372000
      2 C2          1.4000   -0.2270    0.2180 c         1 FWD      0.809500
      3 O2          2.0980   -0.4930   -0.7940 o         1 FWD     -0.703500
      4 N3          2.0110   -0.0300    1.4590 n         1 FWD     -0.574500
      5 C4          1.2940    0.2280    2.6420 c         1 FWD      0.699700
      6 O4          1.9090    0.4020    3.7010 o         1 FWD     -0.560500
      7 C5         -0.1820    0.2620    2.4880 cc        1 FWD     -0.019700
      8 F5         -0.9160    0.4740    3.5990 f         1 FWD     -0.123500
      9 C6         -0.7660    0.0840    1.2610 cd        1 FWD     -0.001400
     10 C7         -0.6400   -0.1690   -1.1850 c3        1 FWD      0.090000
     11 C8         -0.7820   -1.5490   -1.8260 c3        1 FWD     -0.110500
     12 N8          0.4840   -2.0740   -2.4020 n4        1 FWD     -0.824600
     13 C9         -1.9090   -1.4430   -2.9920 c         1 FWD      0.946600
     14 O91        -2.9360   -0.8350   -2.6540 o         1 FWD     -0.746800
     15 O92        -1.5910   -2.0100   -4.0640 o         1 FWD     -0.746800
     16 H3          3.0100   -0.0600    1.4870 hn        1 FWD      0.362500
     17 H6         -1.8650    0.1190    1.1250 h4        1 FWD      0.198000
     18 H71        -0.0590    0.5210   -1.8640 h1        1 FWD      0.110200
     19 H72        -1.6950    0.2390   -1.0900 h1        1 FWD      0.110200
     20 H8         -1.1790   -2.3050   -1.0950 hx        1 FWD      0.097700
     21 H81         0.9040   -2.7760   -1.8000 hn        1 FWD      0.453467
     22 H82         1.1590   -1.3130   -2.5360 hn        1 FWD      0.453467
     23 H83         0.2390   -2.4860   -3.3280 hn        1 FWD      0.453467
@<TRIPOS>BOND
     1    1    2 1   
     2    1    9 1   
     3    1   10 1   
     4    2    3 2   
     5    2    4 1   
     6    4    5 1   
     7    4   16 1   
     8    5    6 2   
     9    5    7 1   
    10    7    8 1   
    11    7    9 2   
    12    9   17 1   
    13   10   11 1   
    14   10   18 1   
    15   10   19 1   
    16   11   12 1   
    17   11   13 1   
    18   11   20 1   
    19   12   21 1   
    20   12   22 1   
    21   12   23 1   
    22   13   14 1   
    23   13   15 1   
@<TRIPOS>SUBSTRUCTURE
     1 FWD         1 TEMP              0 ****  ****    0 ROOT
