@<TRIPOS>MOLECULE
FWD
   22    22     1     0     0
SMALL
bcc


@<TRIPOS>ATOM
      1 N1         -0.3130   -0.5450   -0.2990 n         1 FWD     -0.330000
      2 C2         -1.5370   -0.1520   -0.8950 c         1 FWD      0.794500
      3 O2         -2.6210   -0.1460   -0.2730 o         1 FWD     -0.635500
      4 N3         -1.5400    0.1990   -2.2610 n         1 FWD     -0.591500
      5 C4         -0.3920    0.2100   -3.0630 c         1 FWD      0.710700
      6 O4         -0.4860    0.5430   -4.2580 o         1 FWD     -0.636500
      7 C5          0.8510   -0.1940   -2.3810 cc        1 FWD     -0.105700
      8 F5          1.9900   -0.2250   -3.1110 f         1 FWD     -0.155500
      9 C6          0.8450   -0.5200   -1.0430 cd        1 FWD      0.067600
     10 C7         -0.2480   -0.7580    1.1440 c3        1 FWD      0.104000
     11 C8          0.3120    0.4130    1.9740 c3        1 FWD     -0.012500
     12 N8          1.5950    0.8860    1.4810 n3        1 FWD     -0.908800
     13 C9          0.3340   -0.1020    3.4630 c         1 FWD      0.896600
     14 O91         1.4390   -0.0720    4.0710 o         1 FWD     -0.822800
     15 O92        -0.7570   -0.5070    3.9400 o         1 FWD     -0.822800
     16 H3         -2.4130    0.4760   -2.6530 hn        1 FWD      0.342500
     17 H6          1.7780   -0.7920   -0.5110 h4        1 FWD      0.193000
     18 H71         0.3890   -1.6730    1.3080 h1        1 FWD      0.085700
     19 H72        -1.2910   -0.9630    1.5260 h1        1 FWD      0.085700
     20 H8         -0.4290    1.2600    1.9320 h1        1 FWD      0.053700
     21 H81         1.7260    1.8290    1.7950 hn        1 FWD      0.343300
     22 H82         2.3200    0.3350    1.9140 hn        1 FWD      0.343300
@<TRIPOS>BOND
     1    1    2 1   
     2    1    9 1   
     3    1   10 1   
     4    2    3 2   
     5    2    4 1   
     6    4    5 1   
     7    4   16 1   
     8    5    6 2   
     9    5    7 1   
    10    7    8 1   
    11    7    9 2   
    12    9   17 1   
    13   10   11 1   
    14   10   18 1   
    15   10   19 1   
    16   11   12 1   
    17   11   13 1   
    18   11   20 1   
    19   12   21 1   
    20   12   22 1   
    21   13   14 1   
    22   13   15 1   
@<TRIPOS>SUBSTRUCTURE
     1 FWD         1 TEMP              0 ****  ****    0 ROOT
