@<TRIPOS>MOLECULE
FWD
   22    19     1     0     0
SMALL
bcc


@<TRIPOS>ATOM
      1 N1          0.2860    0.5980    0.3160 n2        1 FWD     -0.642900
      2 C2          1.6450    0.6230    0.3120 c1        1 FWD      0.840900
      3 O2          2.2480    0.5740   -0.7420 o         1 FWD     -0.615500
      4 N3          2.3420    0.5940    1.5100 n2        1 FWD     -0.834800
      5 C4          1.6730    0.5410    2.6800 c1        1 FWD      0.598900
      6 O4          2.2810    0.6510    3.7330 o         1 FWD     -0.617900
      7 C5          0.3040    0.5160    2.6820 cg        1 FWD     -0.176200
      8 F5         -0.3700    0.5270    3.8520 f         1 FWD     -0.088000
      9 C6         -0.3880    0.5460    1.4890 ce        1 FWD      0.479100
     10 C7         -0.4630    0.6240   -0.9690 c3        1 FWD      0.193800
     11 C8         -0.7560   -0.7830   -1.4060 c3        1 FWD     -0.003500
     12 N8         -0.2470   -0.9900   -2.7400 n3        1 FWD     -0.881800
     13 C9         -2.2490   -1.0150   -1.3960 c         1 FWD      0.887600
     14 O91        -2.7350   -1.9340   -0.7000 o         1 FWD     -0.830300
     15 O92        -3.0070   -0.3050   -2.1290 o         1 FWD     -0.830300
     16 H3          3.2470    0.5480    1.5050 hn        1 FWD      0.498400
     17 H6         -1.3580    0.5680    1.4920 h4        1 FWD      0.134800
     18 H71         0.0820    1.0770   -1.6590 h1        1 FWD      0.077700
     19 H72        -1.3090    1.1120   -0.8450 h1        1 FWD      0.077700
     20 H8         -0.3220   -1.4150   -0.7880 h1        1 FWD      0.054700
     21 H81         0.0030   -1.8710   -2.8390 hn        1 FWD      0.338800
     22 H82        -0.9070   -0.7850   -3.3600 hn        1 FWD      0.338800
@<TRIPOS>BOND
     1    1    9 2   
     2    1   10 1   
     3    2    3 2   
     4    2    4 2   
     5    4   16 1   
     6    5    6 1   
     7    5    7 3   
     8    7    9 1   
     9    9   17 1   
    10   10   11 1   
    11   10   18 1   
    12   10   19 1   
    13   11   12 1   
    14   11   13 1   
    15   11   20 1   
    16   12   21 1   
    17   12   22 1   
    18   13   14 1   
    19   13   15 1   
@<TRIPOS>SUBSTRUCTURE
     1 FWD         1 TEMP              0 ****  ****    0 ROOT
