@<TRIPOS>MOLECULE
FWD
   23    23     1     0     0
SMALL
bcc


@<TRIPOS>ATOM
      1 N1          0.0020   -0.1490    0.1160 n         1 FWD     -0.372000
      2 C2          1.4110   -0.2310    0.1970 c         1 FWD      0.809500
      3 O2          2.0960   -0.5170   -0.8180 o         1 FWD     -0.703500
      4 N3          2.0370   -0.0240    1.4290 ns        1 FWD     -0.574500
      5 C4          1.3350    0.2570    2.6150 c         1 FWD      0.699700
      6 O4          1.9620    0.4390    3.6650 o         1 FWD     -0.560500
      7 C5         -0.1430    0.3020    2.4770 cc        1 FWD     -0.019700
      8 F5         -0.8630    0.5360    3.5930 f         1 FWD     -0.123500
      9 C6         -0.7410    0.1140    1.2580 cd        1 FWD     -0.001400
     10 C7         -0.6440   -0.1730   -1.1850 c3        1 FWD      0.090000
     11 C8         -0.8050   -1.5600   -1.8060 c3        1 FWD     -0.110500
     12 N8          0.4500   -2.1050   -2.3880 nz        1 FWD     -0.824600
     13 C9         -1.9430   -1.4600   -2.9610 c         1 FWD      0.946600
     14 O91        -2.9610   -0.8380   -2.6200 o         1 FWD     -0.746800
     15 O92        -1.6410   -2.0440   -4.0280 o         1 FWD     -0.746800
     16 H3          3.0350   -0.0630    1.4470 hn        1 FWD      0.362500
     17 H6         -1.8410    0.1570    1.1330 h4        1 FWD      0.198000
     18 H71        -0.0640    0.5020   -1.8790 h1        1 FWD      0.110200
     19 H72        -1.6940    0.2450   -1.0850 h1        1 FWD      0.110200
     20 H8         -1.2010   -2.3030   -1.0610 hx        1 FWD      0.097700
     21 H81         0.1920   -2.5270   -3.3060 hn        1 FWD      0.453467
     22 H82         0.8710   -2.8030   -1.7820 hn        1 FWD      0.453467
     23 H83         1.1300   -1.3520   -2.5390 hn        1 FWD      0.453467
@<TRIPOS>BOND
     1    1    2 1   
     2    1    9 1   
     3    1   10 1   
     4    2    3 2   
     5    2    4 1   
     6    4    5 1   
     7    4   16 1   
     8    5    6 2   
     9    5    7 1   
    10    7    8 1   
    11    7    9 2   
    12    9   17 1   
    13   10   11 1   
    14   10   18 1   
    15   10   19 1   
    16   11   12 1   
    17   11   13 1   
    18   11   20 1   
    19   12   21 1   
    20   12   22 1   
    21   12   23 1   
    22   13   14 1   
    23   13   15 1   
@<TRIPOS>SUBSTRUCTURE
     1 FWD         1 TEMP              0 ****  ****    0 ROOT
