@<TRIPOS>MOLECULE
FWD
   23    23     1     0     0
SMALL
bcc


@<TRIPOS>ATOM
      1 N1          0.0020   -0.1440    0.1110 n         1 FWD     -0.372000
      2 C2          1.4100   -0.2360    0.2030 c         1 FWD      0.809500
      3 O2          2.1000   -0.5370   -0.8040 o         1 FWD     -0.703500
      4 N3          2.0280   -0.0210    1.4370 n         1 FWD     -0.574500
      5 C4          1.3190    0.2770    2.6160 c         1 FWD      0.699700
      6 O4          1.9400    0.4650    3.6690 o         1 FWD     -0.560500
      7 C5         -0.1570    0.3320    2.4660 cc        1 FWD     -0.019700
      8 F5         -0.8830    0.5830    3.5740 f         1 FWD     -0.123500
      9 C6         -0.7470    0.1360    1.2450 cd        1 FWD     -0.001400
     10 C7         -0.6340   -0.1760   -1.1940 c3        1 FWD      0.090000
     11 C8         -0.8010   -1.5680   -1.8030 c3        1 FWD     -0.110500
     12 N8          0.4540   -2.1280   -2.3710 n4        1 FWD     -0.824600
     13 C9         -1.9310   -1.4710   -2.9680 c         1 FWD      0.946600
     14 O91        -2.9460   -0.8380   -2.6400 o         1 FWD     -0.746800
     15 O92        -1.6250   -2.0670   -4.0270 o         1 FWD     -0.746800
     16 H3          3.0260   -0.0680    1.4630 hn        1 FWD      0.362500
     17 H6         -1.8460    0.1860    1.1110 h4        1 FWD      0.198000
     18 H71        -0.0440    0.4870   -1.8910 h1        1 FWD      0.110200
     19 H72        -1.6820    0.2510   -1.1060 h1        1 FWD      0.110200
     20 H8         -1.2080   -2.3000   -1.0540 hx        1 FWD      0.097700
     21 H81         0.1990   -2.5570   -3.2860 hn        1 FWD      0.453467
     22 H82         0.8640   -2.8230   -1.7540 hn        1 FWD      0.453467
     23 H83         1.1410   -1.3810   -2.5240 hn        1 FWD      0.453467
@<TRIPOS>BOND
     1    1    2 1   
     2    1    9 1   
     3    1   10 1   
     4    2    3 2   
     5    2    4 1   
     6    4    5 1   
     7    4   16 1   
     8    5    6 2   
     9    5    7 1   
    10    7    8 1   
    11    7    9 2   
    12    9   17 1   
    13   10   11 1   
    14   10   18 1   
    15   10   19 1   
    16   11   12 1   
    17   11   13 1   
    18   11   20 1   
    19   12   21 1   
    20   12   22 1   
    21   12   23 1   
    22   13   14 1   
    23   13   15 1   
@<TRIPOS>SUBSTRUCTURE
     1 FWD         1 TEMP              0 ****  ****    0 ROOT
