@<TRIPOS>MOLECULE
FWF
   70    71     1     0     0
SMALL
bcc


@<TRIPOS>ATOM
      1 O3          2.3030   -1.4360   -1.3550 o         1 FWF     -0.550300
      2 S2          1.8040   -0.6430   -0.3400 s6        1 FWF      1.357900
      3 O4          0.4490   -0.4410   -0.1760 o         1 FWF     -0.550300
      4 C20         2.6760   -0.7720    1.0960 c3        1 FWF     -0.322900
      5 N1          2.3940    1.0660   -0.8630 n4        1 FWF     -0.708900
      6 C15         1.7660    1.4490   -2.1530 c3        1 FWF      0.090800
      7 C14         2.1770    2.8380   -2.6650 c3        1 FWF     -0.024400
      8 C16         1.8230    3.9250   -1.6690 c3        1 FWF     -0.116100
      9 C1          1.5100    3.0670   -3.9850 ca        1 FWF     -0.110300
     10 C6          0.1210    3.2260   -4.0720 ca        1 FWF     -0.113500
     11 C5         -0.4840    3.4730   -5.3010 ca        1 FWF     -0.107000
     12 C4          0.2890    3.5730   -6.4670 cp        1 FWF     -0.025000
     13 C3          1.6780    3.4070   -6.3780 ca        1 FWF     -0.107000
     14 C2          2.2820    3.1550   -5.1490 ca        1 FWF     -0.113500
     15 C10        -0.3460    3.8610   -7.7530 cp        1 FWF     -0.025000
     16 C9          0.2480    4.7610   -8.6510 ca        1 FWF     -0.107000
     17 C8         -0.3690    5.0580   -9.8630 ca        1 FWF     -0.113500
     18 C11        -1.5620    3.2570   -8.1000 ca        1 FWF     -0.107000
     19 C12        -2.1760    3.5510   -9.3160 ca        1 FWF     -0.113500
     20 C7         -1.5870    4.4580  -10.2050 ca        1 FWF     -0.110300
     21 C13        -2.2790    4.7970  -11.4880 c3        1 FWF     -0.024400
     22 C17        -2.5040    6.2900  -11.6190 c3        1 FWF     -0.116100
     23 C18        -1.4330    4.2500  -12.6490 c3        1 FWF      0.090800
     24 N2         -2.0260    4.4760  -13.9910 n4        1 FWF     -0.708900
     25 S1         -0.8960    3.7750  -15.3230 s6        1 FWF      1.357900
     26 O1          0.2430    4.5380  -15.1630 o         1 FWF     -0.550300
     27 O2         -0.9130    2.4260  -15.0260 o         1 FWF     -0.550300
     28 C19        -1.8280    4.1730  -16.6680 c3        1 FWF     -0.322900
     29 C21        -2.0340    5.6620  -16.8570 c3        1 FWF     -0.101600
     30 C22        -1.1200    3.5980  -17.8920 c3        1 FWF     -0.101600
     31 C23         2.3140    0.2710    2.1340 c3        1 FWF     -0.101600
     32 C24         2.4100   -2.1650    1.6600 c3        1 FWF     -0.101600
     33 H1          3.7940   -0.7160    0.9330 h1        1 FWF      0.152700
     34 H2          3.4060    1.0980   -0.9760 hn        1 FWF      0.452300
     35 H3          0.6450    1.4250   -2.0070 hx        1 FWF      0.116700
     36 H4          2.0570    0.6720   -2.9200 hx        1 FWF      0.116700
     37 H5          3.2960    2.8470   -2.8200 hc        1 FWF      0.071700
     38 H6          2.4970    3.8890   -0.7790 hc        1 FWF      0.056700
     39 H7          1.9460    4.9290   -2.1470 hc        1 FWF      0.056700
     40 H8          0.7630    3.8320   -1.3290 hc        1 FWF      0.056700
     41 H9         -0.5000    3.1720   -3.1650 ha        1 FWF      0.139000
     42 H10        -1.5770    3.6070   -5.3540 ha        1 FWF      0.150000
     43 H11         2.2990    3.4750   -7.2860 ha        1 FWF      0.150000
     44 H12         3.3760    3.0340   -5.0990 ha        1 FWF      0.139000
     45 H13         1.2010    5.2480   -8.3900 ha        1 FWF      0.150000
     46 H14         0.1020    5.7820  -10.5460 ha        1 FWF      0.139000
     47 H15        -2.0380    2.5430   -7.4090 ha        1 FWF      0.150000
     48 H16        -3.1340    3.0710   -9.5660 ha        1 FWF      0.139000
     49 H17        -3.2840    4.2820  -11.5030 hc        1 FWF      0.071700
     50 H18        -3.2210    6.5180  -12.4450 hc        1 FWF      0.056700
     51 H19        -2.9420    6.6890  -10.6700 hc        1 FWF      0.056700
     52 H20        -1.5440    6.8280  -11.8090 hc        1 FWF      0.056700
     53 H21        -0.4190    4.7500  -12.6360 hx        1 FWF      0.116700
     54 H22        -1.3000    3.1360  -12.5160 hx        1 FWF      0.116700
     55 H23        -2.9490    4.0430  -14.0120 hn        1 FWF      0.452300
     56 H24        -2.8500    3.6880  -16.6490 h1        1 FWF      0.152700
     57 H25        -1.0780    6.2210  -16.6940 hc        1 FWF      0.081867
     58 H26        -2.3730    5.8730  -17.9040 hc        1 FWF      0.081867
     59 H27        -2.8240    6.0540  -16.1710 hc        1 FWF      0.081867
     60 H28        -1.7540    3.7520  -18.8020 hc        1 FWF      0.081867
     61 H29        -0.9550    2.4980  -17.7740 hc        1 FWF      0.081867
     62 H30        -0.1450    4.1170  -18.0660 hc        1 FWF      0.081867
     63 H31         2.6770   -0.0510    3.1440 hc        1 FWF      0.081867
     64 H32         2.7960    1.2540    1.9090 hc        1 FWF      0.081867
     65 H33         1.2040    0.3980    2.2010 hc        1 FWF      0.081867
     66 H34         1.3410   -2.2680    1.9730 hc        1 FWF      0.081867
     67 H35         3.0470   -2.3330    2.5650 hc        1 FWF      0.081867
     68 H36         2.6690   -2.9530    0.9080 hc        1 FWF      0.081867
     69 H121        2.1490    1.7730   -0.1680 hn        1 FWF      0.452300
     70 H221       -2.1650    5.4810  -14.1130 hn        1 FWF      0.452300
@<TRIPOS>BOND
     1    1    2 2   
     2    2    3 2   
     3    2    4 1   
     4    2    5 1   
     5    4   31 1   
     6    4   32 1   
     7    4   33 1   
     8    5    6 1   
     9    5   34 1   
    10    5   69 1   
    11    6    7 1   
    12    6   35 1   
    13    6   36 1   
    14    7    8 1   
    15    7    9 1   
    16    7   37 1   
    17    8   38 1   
    18    8   39 1   
    19    8   40 1   
    20    9   10 ar  
    21    9   14 ar  
    22   10   11 ar  
    23   10   41 1   
    24   11   12 ar  
    25   11   42 1   
    26   12   13 ar  
    27   12   15 1   
    28   13   14 ar  
    29   13   43 1   
    30   14   44 1   
    31   15   16 ar  
    32   15   18 ar  
    33   16   17 ar  
    34   16   45 1   
    35   17   20 ar  
    36   17   46 1   
    37   18   19 ar  
    38   18   47 1   
    39   19   20 ar  
    40   19   48 1   
    41   20   21 1   
    42   21   22 1   
    43   21   23 1   
    44   21   49 1   
    45   22   50 1   
    46   22   51 1   
    47   22   52 1   
    48   23   24 1   
    49   23   53 1   
    50   23   54 1   
    51   24   25 1   
    52   24   55 1   
    53   24   70 1   
    54   25   26 2   
    55   25   27 2   
    56   25   28 1   
    57   28   29 1   
    58   28   30 1   
    59   28   56 1   
    60   29   57 1   
    61   29   58 1   
    62   29   59 1   
    63   30   60 1   
    64   30   61 1   
    65   30   62 1   
    66   31   63 1   
    67   31   64 1   
    68   31   65 1   
    69   32   66 1   
    70   32   67 1   
    71   32   68 1   
@<TRIPOS>SUBSTRUCTURE
     1 FWF         1 TEMP              0 ****  ****    0 ROOT
