@<TRIPOS>MOLECULE
FWF
   70    71     1     0     0
SMALL
bcc


@<TRIPOS>ATOM
      1 O3          2.3380   -1.4240   -1.3610 o         1 FWF     -0.550300
      2 S2          1.8380   -0.6340   -0.3440 s6        1 FWF      1.357900
      3 O4          0.4820   -0.4390   -0.1770 o         1 FWF     -0.550300
      4 C20         2.7140   -0.7590    1.0890 c3        1 FWF     -0.322900
      5 N1          2.4170    1.0790   -0.8680 ny        1 FWF     -0.708900
      6 C15         1.7850    1.4590   -2.1560 c3        1 FWF      0.090800
      7 C14         2.1880    2.8500   -2.6690 c3        1 FWF     -0.024400
      8 C16         1.8300    3.9340   -1.6720 c3        1 FWF     -0.116100
      9 C1          1.5160    3.0770   -3.9870 ca        1 FWF     -0.110300
     10 C6          0.1270    3.2290   -4.0720 ca        1 FWF     -0.113500
     11 C5         -0.4820    3.4730   -5.2990 ca        1 FWF     -0.107000
     12 C4          0.2880    3.5760   -6.4670 cp        1 FWF     -0.025000
     13 C3          1.6780    3.4170   -6.3810 ca        1 FWF     -0.107000
     14 C2          2.2860    3.1670   -5.1530 ca        1 FWF     -0.113500
     15 C10        -0.3500    3.8620   -7.7520 cp        1 FWF     -0.025000
     16 C9          0.2380    4.7630   -8.6510 ca        1 FWF     -0.107000
     17 C8         -0.3830    5.0570   -9.8620 ca        1 FWF     -0.113500
     18 C11        -1.5650    3.2530   -8.0960 ca        1 FWF     -0.107000
     19 C12        -2.1830    3.5440   -9.3100 ca        1 FWF     -0.113500
     20 C7         -1.5990    4.4530  -10.2010 ca        1 FWF     -0.110300
     21 C13        -2.2950    4.7880  -11.4830 c3        1 FWF     -0.024400
     22 C17        -2.5250    6.2800  -11.6150 c3        1 FWF     -0.116100
     23 C18        -1.4520    4.2420  -12.6450 c3        1 FWF      0.090800
     24 N2         -2.0480    4.4650  -13.9860 ny        1 FWF     -0.708900
     25 S1         -0.9190    3.7640  -15.3200 s6        1 FWF      1.357900
     26 O1          0.2180    4.5310  -15.1650 o         1 FWF     -0.550300
     27 O2         -0.9320    2.4160  -15.0200 o         1 FWF     -0.550300
     28 C19        -1.8560    4.1580  -16.6630 c3        1 FWF     -0.322900
     29 C21        -2.0670    5.6460  -16.8540 c3        1 FWF     -0.101600
     30 C22        -1.1500    3.5820  -17.8880 c3        1 FWF     -0.101600
     31 C23         2.3490    0.2810    2.1280 c3        1 FWF     -0.101600
     32 C24         2.4580   -2.1540    1.6520 c3        1 FWF     -0.101600
     33 H1          3.8320   -0.6960    0.9240 h1        1 FWF      0.152700
     34 H2          2.1690    1.7840   -0.1720 hn        1 FWF      0.452300
     35 H3          0.6640    1.4290   -2.0080 hx        1 FWF      0.116700
     36 H4          2.0780    0.6830   -2.9240 hx        1 FWF      0.116700
     37 H5          3.3060    2.8650   -2.8260 hc        1 FWF      0.071700
     38 H6          1.9470    4.9390   -2.1500 hc        1 FWF      0.056700
     39 H7          2.5060    3.9030   -0.7830 hc        1 FWF      0.056700
     40 H8          0.7710    3.8360   -1.3300 hc        1 FWF      0.056700
     41 H9         -0.4920    3.1720   -3.1630 ha        1 FWF      0.139000
     42 H10        -1.5750    3.6020   -5.3500 ha        1 FWF      0.150000
     43 H11         2.2960    3.4870   -7.2900 ha        1 FWF      0.150000
     44 H12         3.3800    3.0510   -5.1060 ha        1 FWF      0.139000
     45 H13         1.1900    5.2540   -8.3920 ha        1 FWF      0.150000
     46 H14         0.0840    5.7830  -10.5460 ha        1 FWF      0.139000
     47 H15        -2.0360    2.5380   -7.4030 ha        1 FWF      0.150000
     48 H16        -3.1400    3.0600   -9.5590 ha        1 FWF      0.139000
     49 H17        -3.2990    4.2710  -11.4940 hc        1 FWF      0.071700
     50 H18        -1.5670    6.8210  -11.8090 hc        1 FWF      0.056700
     51 H19        -2.9610    6.6800  -10.6650 hc        1 FWF      0.056700
     52 H20        -3.2440    6.5050  -12.4390 hc        1 FWF      0.056700
     53 H21        -1.3150    3.1280  -12.5110 hx        1 FWF      0.116700
     54 H22        -0.4380    4.7440  -12.6350 hx        1 FWF      0.116700
     55 H23        -2.9700    4.0300  -14.0050 hn        1 FWF      0.452300
     56 H24        -2.8770    3.6700  -16.6410 h1        1 FWF      0.152700
     57 H25        -2.8570    6.0360  -16.1670 hc        1 FWF      0.082033
     58 H26        -1.1130    6.2080  -16.6950 hc        1 FWF      0.082033
     59 H27        -2.4090    5.8530  -17.9010 hc        1 FWF      0.082033
     60 H28        -0.1770    4.1030  -18.0650 hc        1 FWF      0.082033
     61 H29        -0.9820    2.4820  -17.7680 hc        1 FWF      0.082033
     62 H30        -1.7870    3.7330  -18.7960 hc        1 FWF      0.082033
     63 H31         2.7170   -0.0390    3.1370 hc        1 FWF      0.082033
     64 H32         1.2380    0.4020    2.1990 hc        1 FWF      0.082033
     65 H33         2.8240    1.2660    1.9030 hc        1 FWF      0.082033
     66 H34         2.7190   -2.9390    0.9000 hc        1 FWF      0.082033
     67 H35         1.3900   -2.2640    1.9680 hc        1 FWF      0.082033
     68 H36         3.0980   -2.3200    2.5560 hc        1 FWF      0.082033
     69 H121        3.4290    1.1170   -0.9830 hn        1 FWF      0.452300
     70 H221       -2.1890    5.4700  -14.1090 hn        1 FWF      0.452300
@<TRIPOS>BOND
     1    1    2 2   
     2    2    3 2   
     3    2    4 1   
     4    2    5 1   
     5    4   31 1   
     6    4   32 1   
     7    4   33 1   
     8    5    6 1   
     9    5   34 1   
    10    5   69 1   
    11    6    7 1   
    12    6   35 1   
    13    6   36 1   
    14    7    8 1   
    15    7    9 1   
    16    7   37 1   
    17    8   38 1   
    18    8   39 1   
    19    8   40 1   
    20    9   10 ar  
    21    9   14 ar  
    22   10   11 ar  
    23   10   41 1   
    24   11   12 ar  
    25   11   42 1   
    26   12   13 ar  
    27   12   15 1   
    28   13   14 ar  
    29   13   43 1   
    30   14   44 1   
    31   15   16 ar  
    32   15   18 ar  
    33   16   17 ar  
    34   16   45 1   
    35   17   20 ar  
    36   17   46 1   
    37   18   19 ar  
    38   18   47 1   
    39   19   20 ar  
    40   19   48 1   
    41   20   21 1   
    42   21   22 1   
    43   21   23 1   
    44   21   49 1   
    45   22   50 1   
    46   22   51 1   
    47   22   52 1   
    48   23   24 1   
    49   23   53 1   
    50   23   54 1   
    51   24   25 1   
    52   24   55 1   
    53   24   70 1   
    54   25   26 2   
    55   25   27 2   
    56   25   28 1   
    57   28   29 1   
    58   28   30 1   
    59   28   56 1   
    60   29   57 1   
    61   29   58 1   
    62   29   59 1   
    63   30   60 1   
    64   30   61 1   
    65   30   62 1   
    66   31   63 1   
    67   31   64 1   
    68   31   65 1   
    69   32   66 1   
    70   32   67 1   
    71   32   68 1   
@<TRIPOS>SUBSTRUCTURE
     1 FWF         1 TEMP              0 ****  ****    0 ROOT
