@<TRIPOS>MOLECULE
FWF
   70    71     1     0     0
SMALL
bcc


@<TRIPOS>ATOM
      1 O3          2.2970   -1.4320   -1.3500 o         1 FWF     -0.550300
      2 S2          1.8040   -0.6360   -0.3350 s6        1 FWF      1.357900
      3 O4          0.4490   -0.4300   -0.1660 o         1 FWF     -0.550300
      4 C20         2.6800   -0.7650    1.0990 c3        1 FWF     -0.322900
      5 N1          2.3960    1.0710   -0.8620 n4        1 FWF     -0.708900
      6 C15         1.7670    1.4530   -2.1510 c3        1 FWF      0.090800
      7 C14         2.1790    2.8400   -2.6660 c3        1 FWF     -0.024400
      8 C16         1.8280    3.9290   -1.6720 c3        1 FWF     -0.116100
      9 C1          1.5120    3.0680   -3.9860 ca        1 FWF     -0.110300
     10 C6          0.1230    3.2280   -4.0730 ca        1 FWF     -0.113500
     11 C5         -0.4830    3.4750   -5.3020 ca        1 FWF     -0.107000
     12 C4          0.2900    3.5730   -6.4680 cp        1 FWF     -0.025000
     13 C3          1.6790    3.4060   -6.3800 ca        1 FWF     -0.107000
     14 C2          2.2840    3.1540   -5.1500 ca        1 FWF     -0.113500
     15 C10        -0.3450    3.8610   -7.7540 cp        1 FWF     -0.025000
     16 C9          0.2500    4.7580   -8.6530 ca        1 FWF     -0.107000
     17 C8         -0.3670    5.0550   -9.8660 ca        1 FWF     -0.113500
     18 C11        -1.5620    3.2590   -8.1000 ca        1 FWF     -0.107000
     19 C12        -2.1760    3.5520   -9.3150 ca        1 FWF     -0.113500
     20 C7         -1.5860    4.4570  -10.2060 ca        1 FWF     -0.110300
     21 C13        -2.2790    4.7960  -11.4890 c3        1 FWF     -0.024400
     22 C17        -2.5000    6.2890  -11.6210 c3        1 FWF     -0.116100
     23 C18        -1.4360    4.2460  -12.6500 c3        1 FWF      0.090800
     24 N2         -2.0300    4.4710  -13.9920 n4        1 FWF     -0.708900
     25 S1         -0.9030    3.7660  -15.3240 s6        1 FWF      1.357900
     26 O1          0.2380    4.5280  -15.1670 o         1 FWF     -0.550300
     27 O2         -0.9230    2.4180  -15.0260 o         1 FWF     -0.550300
     28 C19        -1.8360    4.1660  -16.6690 c3        1 FWF     -0.322900
     29 C21        -2.0410    5.6550  -16.8580 c3        1 FWF     -0.101600
     30 C22        -1.1300    3.5890  -17.8930 c3        1 FWF     -0.101600
     31 C23         2.3250    0.2810    2.1350 c3        1 FWF     -0.101600
     32 C24         2.4120   -2.1560    1.6660 c3        1 FWF     -0.101600
     33 H1          3.7980   -0.7130    0.9320 h1        1 FWF      0.152700
     34 H2          2.1530    1.7800   -0.1680 hn        1 FWF      0.452300
     35 H3          2.0550    0.6740   -2.9180 hx        1 FWF      0.116700
     36 H4          0.6460    1.4310   -2.0030 hx        1 FWF      0.116700
     37 H5          3.2980    2.8480   -2.8220 hc        1 FWF      0.071700
     38 H6          2.5020    3.8940   -0.7820 hc        1 FWF      0.056700
     39 H7          0.7680    3.8390   -1.3320 hc        1 FWF      0.056700
     40 H8          1.9520    4.9320   -2.1520 hc        1 FWF      0.056700
     41 H9         -0.4980    3.1750   -3.1650 ha        1 FWF      0.139000
     42 H10        -1.5750    3.6090   -5.3550 ha        1 FWF      0.150000
     43 H11         2.2990    3.4720   -7.2880 ha        1 FWF      0.150000
     44 H12         3.3770    3.0320   -5.1020 ha        1 FWF      0.139000
     45 H13         1.2040    5.2440   -8.3930 ha        1 FWF      0.150000
     46 H14         0.1050    5.7770  -10.5490 ha        1 FWF      0.139000
     47 H15        -2.0380    2.5460   -7.4080 ha        1 FWF      0.150000
     48 H16        -3.1360    3.0730   -9.5650 ha        1 FWF      0.139000
     49 H17        -3.2860    4.2840  -11.5010 hc        1 FWF      0.071700
     50 H18        -3.2180    6.5180  -12.4460 hc        1 FWF      0.056700
     51 H19        -1.5390    6.8250  -11.8140 hc        1 FWF      0.056700
     52 H20        -2.9360    6.6910  -10.6720 hc        1 FWF      0.056700
     53 H21        -0.4210    4.7430  -12.6390 hx        1 FWF      0.116700
     54 H22        -1.3060    3.1310  -12.5160 hx        1 FWF      0.116700
     55 H23        -2.9540    4.0410  -14.0110 hn        1 FWF      0.452300
     56 H24        -2.8580    3.6820  -16.6480 h1        1 FWF      0.152700
     57 H25        -1.0840    6.2130  -16.6950 hc        1 FWF      0.081867
     58 H26        -2.8300    6.0480  -16.1720 hc        1 FWF      0.081867
     59 H27        -2.3790    5.8660  -17.9050 hc        1 FWF      0.081867
     60 H28        -0.9670    2.4890  -17.7740 hc        1 FWF      0.081867
     61 H29        -0.1540    4.1070  -18.0670 hc        1 FWF      0.081867
     62 H30        -1.7650    3.7440  -18.8020 hc        1 FWF      0.081867
     63 H31         2.6910   -0.0400    3.1450 hc        1 FWF      0.081867
     64 H32         2.8090    1.2610    1.9070 hc        1 FWF      0.081867
     65 H33         1.2160    0.4120    2.2060 hc        1 FWF      0.081867
     66 H34         2.6650   -2.9460    0.9150 hc        1 FWF      0.081867
     67 H35         3.0510   -2.3250    2.5690 hc        1 FWF      0.081867
     68 H36         1.3430   -2.2550    1.9830 hc        1 FWF      0.081867
     69 H121        3.4080    1.1010   -0.9770 hn        1 FWF      0.452300
     70 H221       -2.1670    5.4770  -14.1140 hn        1 FWF      0.452300
@<TRIPOS>BOND
     1    1    2 2   
     2    2    3 2   
     3    2    4 1   
     4    2    5 1   
     5    4   31 1   
     6    4   32 1   
     7    4   33 1   
     8    5    6 1   
     9    5   34 1   
    10    5   69 1   
    11    6    7 1   
    12    6   35 1   
    13    6   36 1   
    14    7    8 1   
    15    7    9 1   
    16    7   37 1   
    17    8   38 1   
    18    8   39 1   
    19    8   40 1   
    20    9   10 ar  
    21    9   14 ar  
    22   10   11 ar  
    23   10   41 1   
    24   11   12 ar  
    25   11   42 1   
    26   12   13 ar  
    27   12   15 1   
    28   13   14 ar  
    29   13   43 1   
    30   14   44 1   
    31   15   16 ar  
    32   15   18 ar  
    33   16   17 ar  
    34   16   45 1   
    35   17   20 ar  
    36   17   46 1   
    37   18   19 ar  
    38   18   47 1   
    39   19   20 ar  
    40   19   48 1   
    41   20   21 1   
    42   21   22 1   
    43   21   23 1   
    44   21   49 1   
    45   22   50 1   
    46   22   51 1   
    47   22   52 1   
    48   23   24 1   
    49   23   53 1   
    50   23   54 1   
    51   24   25 1   
    52   24   55 1   
    53   24   70 1   
    54   25   26 2   
    55   25   27 2   
    56   25   28 1   
    57   28   29 1   
    58   28   30 1   
    59   28   56 1   
    60   29   57 1   
    61   29   58 1   
    62   29   59 1   
    63   30   60 1   
    64   30   61 1   
    65   30   62 1   
    66   31   63 1   
    67   31   64 1   
    68   31   65 1   
    69   32   66 1   
    70   32   67 1   
    71   32   68 1   
@<TRIPOS>SUBSTRUCTURE
     1 FWF         1 TEMP              0 ****  ****    0 ROOT
