@<TRIPOS>MOLECULE
FX1
   22    22     1     0     0
SMALL
bcc


@<TRIPOS>ATOM
      1 C1          1.5310   -0.1020    0.3370 c3        1 FX1      0.119400
      2 O1          1.8490    1.1210    0.9610 oh        1 FX1     -0.592800
      3 C2          0.1390   -0.0180   -0.3000 c3        1 FX1      0.256600
      4 O2         -0.8520    0.4170    0.5960 oh        1 FX1     -0.611800
      5 C3         -0.3480   -1.3290   -0.9670 c3        1 FX1      0.048100
      6 O3         -1.2330   -2.0700   -0.1740 oh        1 FX1     -0.551800
      7 C4         -0.9540   -0.8460   -2.2850 c         1 FX1      0.520100
      8 O4         -1.5800   -1.5290   -3.0850 o         1 FX1     -0.465100
      9 C5         -0.6310    0.6280   -2.4350 c3        1 FX1     -0.005900
     10 O5          0.1730    1.0050   -1.3050 os        1 FX1     -0.453600
     11 C6         -1.8950    1.4890   -2.4640 c3        1 FX1      0.127400
     12 O6         -1.5800    2.8320   -2.7550 oh        1 FX1     -0.587800
     13 H1          2.2890   -0.3720   -0.4430 h1        1 FX1      0.072700
     14 H1A         1.5180   -0.8630    1.1620 h1        1 FX1      0.072700
     15 HO1         1.9440    1.7830    0.2620 ho        1 FX1      0.417000
     16 HO2        -0.4680    1.1250    1.1340 ho        1 FX1      0.441000
     17 H3          0.5170   -2.0190   -1.1700 h1        1 FX1      0.113700
     18 HO3        -1.9330   -1.4750    0.1330 ho        1 FX1      0.429000
     19 H5          0.0030    0.8260   -3.3430 h1        1 FX1      0.108700
     20 H6         -2.5670    1.1530   -3.2990 h1        1 FX1      0.067200
     21 H6A        -2.4250    1.4140   -1.4760 h1        1 FX1      0.067200
     22 HO6        -0.9890    3.1410   -2.0560 ho        1 FX1      0.410000
@<TRIPOS>BOND
     1    1    2 1   
     2    1    3 1   
     3    1   13 1   
     4    1   14 1   
     5    2   15 1   
     6    3    4 1   
     7    3    5 1   
     8    3   10 1   
     9    4   16 1   
    10    5    6 1   
    11    5    7 1   
    12    5   17 1   
    13    6   18 1   
    14    7    8 2   
    15    7    9 1   
    16    9   10 1   
    17    9   11 1   
    18    9   19 1   
    19   11   12 1   
    20   11   20 1   
    21   11   21 1   
    22   12   22 1   
@<TRIPOS>SUBSTRUCTURE
     1 FX1         1 TEMP              0 ****  ****    0 ROOT
