@<TRIPOS>MOLECULE
FX1
   22    22     1     0     0
SMALL
bcc


@<TRIPOS>ATOM
      1 C1          2.2910   -0.0020    0.4570 c3        1 FX1      0.125400
      2 O1          2.7780    1.3190    0.7970 oh        1 FX1     -0.597800
      3 C2          0.7540   -0.0040    0.4890 c3        1 FX1      0.301600
      4 O2          0.2880    0.0350    1.8790 oh        1 FX1     -0.603800
      5 C3          0.1880   -1.3260   -0.2340 c3        1 FX1      0.030100
      6 O3          1.0330   -1.7960   -1.4160 oh        1 FX1     -0.576800
      7 C4         -1.0160   -1.0020   -0.5560 c         1 FX1      0.529100
      8 O4         -1.8690   -1.7490   -0.9200 o         1 FX1     -0.487100
      9 C5         -1.0190    0.5310   -0.7310 c3        1 FX1      0.004100
     10 O5          0.3280    0.9590   -0.1110 os        1 FX1     -0.455600
     11 C6         -2.1550    1.0730   -0.0840 c3        1 FX1      0.127400
     12 O6         -3.2860    0.9180   -0.9190 oh        1 FX1     -0.587800
     13 H1          2.5880   -0.2330   -0.4060 h1        1 FX1      0.078700
     14 H1A         2.6330   -0.6520    1.1040 h1        1 FX1      0.078700
     15 HO1         3.6830    1.3020    0.8610 ho        1 FX1      0.414000
     16 HO2         0.9200    0.3760    2.3920 ho        1 FX1      0.437000
     17 H3          0.2150   -2.0990    0.3480 h1        1 FX1      0.100700
     18 HO3         0.9720   -2.7070   -1.4930 ho        1 FX1      0.427000
     19 H5         -1.1210    0.8770   -1.5990 h1        1 FX1      0.110700
     20 H6         -2.3070    0.6020    0.7640 h1        1 FX1      0.065700
     21 H6A        -2.0060    2.0390    0.0950 h1        1 FX1      0.065700
     22 HO6        -3.8920    1.5380   -0.7160 ho        1 FX1      0.412000
@<TRIPOS>BOND
     1    1    2 1   
     2    1    3 1   
     3    1   13 1   
     4    1   14 1   
     5    2   15 1   
     6    3    4 1   
     7    3    5 1   
     8    3   10 1   
     9    4   16 1   
    10    5    6 1   
    11    5    7 1   
    12    5   17 1   
    13    6   18 1   
    14    7    8 2   
    15    7    9 1   
    16    9   10 1   
    17    9   11 1   
    18    9   19 1   
    19   11   12 1   
    20   11   20 1   
    21   11   21 1   
    22   12   22 1   
@<TRIPOS>SUBSTRUCTURE
     1 FX1         1 TEMP              0 ****  ****    0 ROOT
