@<TRIPOS>MOLECULE
FX1
   22    22     1     0     0
SMALL
bcc


@<TRIPOS>ATOM
      1 C1         -2.1770   -0.7880   -0.7880 c3        1 FX1      0.119400
      2 O1         -2.4330   -2.0250   -0.1620 oh        1 FX1     -0.592800
      3 C2         -0.9340   -0.1360   -0.1700 c3        1 FX1      0.256600
      4 O2         -1.0000   -0.0420    1.2300 oh        1 FX1     -0.611800
      5 C3         -0.5870    1.2620   -0.7380 c3        1 FX1      0.048100
      6 O3         -1.0110    2.3220    0.0730 oh        1 FX1     -0.551800
      7 C4          0.9290    1.1960   -0.9280 c         1 FX1      0.520100
      8 O4          1.6590    2.1270   -1.2380 o         1 FX1     -0.465100
      9 C5          1.3680   -0.2340   -0.6770 c3        1 FX1     -0.005900
     10 O5          0.1840   -1.0030   -0.4080 os        1 FX1     -0.453600
     11 C6          2.3180   -0.3370    0.5190 c3        1 FX1      0.127400
     12 O6          2.8300   -1.6440    0.6390 oh        1 FX1     -0.587800
     13 H1         -2.0320   -0.9120   -1.8920 h1        1 FX1      0.072700
     14 H1A        -3.0780   -0.1530   -0.5730 h1        1 FX1      0.072700
     15 HO1        -1.7080   -2.6200   -0.3960 ho        1 FX1      0.417000
     16 HO2        -1.3900   -0.8650    1.5600 ho        1 FX1      0.441000
     17 H3         -1.0930    1.4280   -1.7300 h1        1 FX1      0.113700
     18 HO3        -0.7030    2.1520    0.9760 ho        1 FX1      0.429000
     19 H5          1.8330   -0.6930   -1.5920 h1        1 FX1      0.108700
     20 H6          3.2130    0.3200    0.3520 h1        1 FX1      0.067200
     21 H6A         1.7760   -0.0380    1.4560 h1        1 FX1      0.067200
     22 HO6         2.0750   -2.2330    0.7690 ho        1 FX1      0.410000
@<TRIPOS>BOND
     1    1    2 1   
     2    1    3 1   
     3    1   13 1   
     4    1   14 1   
     5    2   15 1   
     6    3    4 1   
     7    3    5 1   
     8    3   10 1   
     9    4   16 1   
    10    5    6 1   
    11    5    7 1   
    12    5   17 1   
    13    6   18 1   
    14    7    8 2   
    15    7    9 1   
    16    9   10 1   
    17    9   11 1   
    18    9   19 1   
    19   11   12 1   
    20   11   20 1   
    21   11   21 1   
    22   12   22 1   
@<TRIPOS>SUBSTRUCTURE
     1 FX1         1 TEMP              0 ****  ****    0 ROOT
