@<TRIPOS>MOLECULE
FX1
   22    22     1     0     0
SMALL
bcc


@<TRIPOS>ATOM
      1 C1          1.4710   -0.1060    0.4250 c3        1 FX1      0.119400
      2 O1          1.8020    1.1320    1.0130 oh        1 FX1     -0.592800
      3 C2          0.1060   -0.0060   -0.2690 c3        1 FX1      0.256600
      4 O2         -0.9030    0.4940    0.5690 oh        1 FX1     -0.611800
      5 C3         -0.3950   -1.3270   -0.9040 c3        1 FX1      0.048100
      6 O3         -1.3330   -2.0100   -0.1180 oh        1 FX1     -0.551800
      7 C4         -0.9340   -0.8800   -2.2630 c         1 FX1      0.520100
      8 O4         -1.5500   -1.5750   -3.0600 o         1 FX1     -0.465100
      9 C5         -0.5590    0.5770   -2.4570 c3        1 FX1     -0.005900
     10 O5          0.2120    0.9750   -1.3120 os        1 FX1     -0.453600
     11 C6         -1.7940    1.4730   -2.5690 c3        1 FX1      0.127400
     12 O6         -1.4260    2.7930   -2.8990 oh        1 FX1     -0.587800
     13 H1          1.4020   -0.8330    1.2780 h1        1 FX1      0.072700
     14 H1A         2.2490   -0.4300   -0.3120 h1        1 FX1      0.072700
     15 HO1         1.9440    1.7620    0.2930 ho        1 FX1      0.417000
     16 HO2        -0.5180    1.2120    1.0940 ho        1 FX1      0.441000
     17 H3          0.4550   -2.0510   -1.0450 h1        1 FX1      0.113700
     18 HO3        -2.0260   -1.3820    0.1370 ho        1 FX1      0.429000
     19 H5          0.1140    0.7190   -3.3460 h1        1 FX1      0.108700
     20 H6         -2.4430    1.1250   -3.4170 h1        1 FX1      0.067200
     21 H6A        -2.3640    1.4530   -1.6010 h1        1 FX1      0.067200
     22 HO6        -0.8530    3.1120   -2.1890 ho        1 FX1      0.410000
@<TRIPOS>BOND
     1    1    2 1   
     2    1    3 1   
     3    1   13 1   
     4    1   14 1   
     5    2   15 1   
     6    3    4 1   
     7    3    5 1   
     8    3   10 1   
     9    4   16 1   
    10    5    6 1   
    11    5    7 1   
    12    5   17 1   
    13    6   18 1   
    14    7    8 2   
    15    7    9 1   
    16    9   10 1   
    17    9   11 1   
    18    9   19 1   
    19   11   12 1   
    20   11   20 1   
    21   11   21 1   
    22   12   22 1   
@<TRIPOS>SUBSTRUCTURE
     1 FX1         1 TEMP              0 ****  ****    0 ROOT
