@<TRIPOS>MOLECULE
FX3
   41    38     1     0     0
SMALL
bcc


@<TRIPOS>ATOM
      1 O2         -1.0670   -1.3580    0.4020 o         1 FX3     -0.337000
      2 C9          0.1550   -1.5480    0.5020 c1        1 FX3      0.339000
      3 C8          0.7870   -1.7330    1.8890 c1        1 FX3     -0.113000
      4 C7          0.2960   -1.0730    2.9420 c1        1 FX3     -0.113000
      5 C1         -0.9060   -0.1250    2.7640 c1        1 FX3     -0.088000
      6 C6         -0.7070    1.1610    2.3110 c2        1 FX3     -0.084000
      7 C5         -1.7480    2.0610    2.3150 c1        1 FX3     -0.202000
      8 C4         -2.9930    1.6750    2.7710 c1        1 FX3      0.064000
      9 O4         -3.9770    2.6030    2.9180 oh        1 FX3     -0.245000
     10 C3         -3.1950    0.3960    3.2220 c1        1 FX3      0.030000
     11 O3         -4.5180   -0.0310    3.5760 o         1 FX3     -0.211000
     12 C10        -4.8840    0.2830    4.9370 c3        1 FX3     -0.076000
     13 C2         -2.1560   -0.5080    3.2210 c2        1 FX3     -0.090000
     14 O5'         0.9510   -1.7870   -0.6920 os        1 FX3     -0.266000
     15 C5'         1.2480   -0.5540   -1.4850 c3        1 FX3     -0.019000
     16 C4'         1.3780   -0.9240   -2.9920 c3        1 FX3     -0.009000
     17 O4'         2.4050   -1.6890   -3.1730 os        1 FX3     -0.286000
     18 C3'         1.6660    0.3510   -3.8410 c3        1 FX3     -0.025000
     19 O3'         0.8880    0.3700   -4.9290 oh        1 FX3     -0.320000
     20 C2'         3.1530    0.2490   -4.2460 c3        1 FX3     -0.051000
     21 O2'         3.2730   -0.0980   -5.7120 oh        1 FX3     -0.312000
     22 C1'         3.6370   -0.7130   -3.5090 c3        1 FX3      0.123000
     23 OXT         4.6160   -1.4030   -4.2060 oh        1 FX3     -0.347000
     24 H8          1.5580   -2.3420    2.0030 ha        1 FX3      0.149000
     25 H7          0.6990   -1.1900    3.8250 ha        1 FX3      0.149000
     26 H6          0.1630    1.4320    1.9910 ha        1 FX3      0.148000
     27 H2         -2.3050   -1.4390    3.5510 ha        1 FX3      0.153000
     28 H5         -1.6030    2.9980    1.9860 ha        1 FX3      0.137000
     29 H4         -3.6870    3.3820    2.6440 ho        1 FX3      0.221000
     30 H101       -5.8350    0.5150    4.9770 h1        1 FX3      0.085000
     31 H102       -4.7110   -0.4980    5.5110 h1        1 FX3      0.085000
     32 H103       -4.3390    1.0580    5.2560 h1        1 FX3      0.085000
     33 H5'1        2.0930   -0.1570   -1.1700 h1        1 FX3      0.112500
     34 H5'2        0.5240    0.0910   -1.3690 h1        1 FX3      0.112500
     35 H4'         0.5460   -1.3780   -3.3150 h1        1 FX3      0.145000
     36 H3'         1.5140    1.1550   -3.3060 h1        1 FX3      0.099000
     37 H1'         4.0100   -0.3450   -2.6780 h2        1 FX3      0.149000
     38 HA          0.5810    1.2170   -5.0670 ho        1 FX3      0.222000
     39 H2'         3.6130    1.0840   -4.0560 h1        1 FX3      0.131000
     40 HB          3.6600    0.5970   -6.1600 ho        1 FX3      0.226000
     41 HOT         5.2170   -1.7840   -3.6060 ho        1 FX3      0.228000
@<TRIPOS>BOND
     1    1    2 1   
     2    2   14 1   
     3    3    4 1   
     4    3   24 1   
     5    4   25 1   
     6    5    6 1   
     7    5   13 1   
     8    6    7 1   
     9    6   26 1   
    10    7   28 1   
    11    8    9 1   
    12    8   10 1   
    13    9   29 1   
    14   10   13 1   
    15   11   12 1   
    16   12   30 1   
    17   12   31 1   
    18   12   32 1   
    19   13   27 1   
    20   14   15 1   
    21   15   16 1   
    22   15   33 1   
    23   15   34 1   
    24   16   17 1   
    25   16   18 1   
    26   16   35 1   
    27   17   22 1   
    28   18   19 1   
    29   18   20 1   
    30   18   36 1   
    31   19   38 1   
    32   20   21 1   
    33   20   22 1   
    34   20   39 1   
    35   21   40 1   
    36   22   23 1   
    37   22   37 1   
    38   23   41 1   
@<TRIPOS>SUBSTRUCTURE
     1 FX3         1 TEMP              0 ****  ****    0 ROOT
