@<TRIPOS>MOLECULE
FX3
   41    42     1     0     0
SMALL
bcc


@<TRIPOS>ATOM
      1 O2          0.6540   -0.2490    0.6120 o         1 FX3     -0.477000
      2 C9          1.4330   -1.0690    0.1260 c         1 FX3      0.641300
      3 C8          2.0050   -2.2600    0.7650 ce        1 FX3     -0.259200
      4 C7          3.0100   -2.2770    1.6480 cf        1 FX3     -0.020200
      5 C1          3.8100   -1.1470    2.0910 ca        1 FX3     -0.101800
      6 C6          4.1800   -0.1170    1.2170 ca        1 FX3     -0.095000
      7 C5          4.9680    0.9430    1.6550 ca        1 FX3     -0.138000
      8 C4          5.3880    0.9900    2.9900 ca        1 FX3      0.131100
      9 O4          6.1650    2.0530    3.3730 oh        1 FX3     -0.490100
     10 C3          5.0180   -0.0500    3.8770 ca        1 FX3      0.033100
     11 O3          5.5180    0.0750    5.1640 os        1 FX3     -0.347900
     12 C10         4.8590   -0.7040    6.1580 c3        1 FX3      0.119700
     13 C2          4.2420   -1.1150    3.4270 ca        1 FX3     -0.133000
     14 O5'         1.6850   -0.8030   -1.2030 os        1 FX3     -0.434900
     15 C5'         2.6080   -1.6420   -1.8970 c3        1 FX3      0.120400
     16 C4'         3.3370   -0.7840   -2.9300 c3        1 FX3      0.096100
     17 O4'         4.2070    0.1210   -2.2400 os        1 FX3     -0.443600
     18 C3'         2.3750    0.0300   -3.8260 c3        1 FX3      0.133100
     19 O3'         2.3790   -0.4420   -5.1490 oh        1 FX3     -0.577800
     20 C2'         2.8310    1.4970   -3.6710 c3        1 FX3      0.056100
     21 O2'         3.4220    1.9050   -4.8900 oh        1 FX3     -0.605800
     22 C1'         3.8820    1.4760   -2.5350 c3        1 FX3      0.300900
     23 OXT         5.0960    2.0540   -2.9300 oh        1 FX3     -0.604800
     24 H8          1.4790   -3.1910    0.4890 ha        1 FX3      0.154000
     25 H7          3.2890   -3.2440    2.1120 ha        1 FX3      0.134000
     26 H6          3.8540   -0.1440    0.1610 ha        1 FX3      0.154000
     27 H2          3.9560   -1.9250    4.1130 ha        1 FX3      0.140000
     28 H5          5.2660    1.7490    0.9680 ha        1 FX3      0.161000
     29 H4          6.3390    1.9730    4.3240 ho        1 FX3      0.439000
     30 H101        3.7540   -0.5510    6.1200 h1        1 FX3      0.046367
     31 H102        5.2840   -0.3160    7.1180 h1        1 FX3      0.046367
     32 H103        5.1100   -1.7850    6.0270 h1        1 FX3      0.046367
     33 H5'1        3.3550   -2.0970   -1.1940 h1        1 FX3      0.061700
     34 H5'2        2.0180   -2.4430   -2.4160 h1        1 FX3      0.061700
     35 H4'         3.9950   -1.4530   -3.5510 h1        1 FX3      0.078700
     36 H3'         1.3110   -0.0900   -3.4780 h1        1 FX3      0.112700
     37 H1'         3.5590    1.9990   -1.5970 h2        1 FX3      0.109700
     38 HA          3.1820   -0.1250   -5.5860 ho        1 FX3      0.421000
     39 H2'         1.9710    2.1680   -3.4150 h1        1 FX3      0.077700
     40 HB          3.8490    2.7580   -4.7230 ho        1 FX3      0.429000
     41 HOT         5.5270    1.4550   -3.5550 ho        1 FX3      0.423000
@<TRIPOS>BOND
     1    1    2 2   
     2    2    3 1   
     3    2   14 1   
     4    3    4 2   
     5    3   24 1   
     6    4    5 1   
     7    4   25 1   
     8    5    6 ar  
     9    5   13 ar  
    10    6    7 ar  
    11    6   26 1   
    12    7    8 ar  
    13    7   28 1   
    14    8    9 1   
    15    8   10 ar  
    16    9   29 1   
    17   10   11 1   
    18   10   13 ar  
    19   11   12 1   
    20   12   30 1   
    21   12   31 1   
    22   12   32 1   
    23   13   27 1   
    24   14   15 1   
    25   15   16 1   
    26   15   33 1   
    27   15   34 1   
    28   16   17 1   
    29   16   18 1   
    30   16   35 1   
    31   17   22 1   
    32   18   19 1   
    33   18   20 1   
    34   18   36 1   
    35   19   38 1   
    36   20   21 1   
    37   20   22 1   
    38   20   39 1   
    39   21   40 1   
    40   22   23 1   
    41   22   37 1   
    42   23   41 1   
@<TRIPOS>SUBSTRUCTURE
     1 FX3         1 TEMP              0 ****  ****    0 ROOT
