@<TRIPOS>MOLECULE
FX3
   41    42     1     0     0
SMALL
bcc


@<TRIPOS>ATOM
      1 O2         -3.7770  -27.1250   -0.1090 o         1 FX3     -0.497000
      2 C9         -3.3500  -27.4100    1.0110 c         1 FX3      0.647300
      3 C8         -2.7920  -26.5080    2.0190 ce        1 FX3     -0.264200
      4 C7         -2.2710  -25.3180    1.6780 cf        1 FX3      0.003800
      5 C1         -1.7200  -24.3510    2.6110 ca        1 FX3     -0.097800
      6 C6         -0.8220  -23.3840    2.1360 ca        1 FX3     -0.092000
      7 C5         -0.2670  -22.4390    2.9930 ca        1 FX3     -0.145000
      8 C4         -0.6180  -22.4430    4.3490 ca        1 FX3      0.134100
      9 O4         -0.0420  -21.4940    5.1530 oh        1 FX3     -0.489100
     10 C3         -1.5300  -23.4110    4.8330 ca        1 FX3      0.033100
     11 O3         -1.7890  -23.3360    6.1920 os        1 FX3     -0.347900
     12 C10        -2.9190  -24.0700    6.6510 c3        1 FX3      0.119700
     13 C2         -2.0750  -24.3590    3.9700 ca        1 FX3     -0.132000
     14 O5'        -3.5420  -28.7460    1.3230 os        1 FX3     -0.444900
     15 C5'        -2.4860  -29.4250    1.9980 c3        1 FX3      0.130400
     16 C4'        -1.5800  -30.1370    0.9910 c3        1 FX3      0.076100
     17 O4'        -0.9100  -29.1540    0.1940 os        1 FX3     -0.445600
     18 C3'        -2.3650  -31.0880    0.0570 c3        1 FX3      0.132100
     19 O3'        -2.0450  -32.4330    0.3010 oh        1 FX3     -0.578800
     20 C2'        -2.0400  -30.6020   -1.3710 c3        1 FX3      0.055100
     21 O2'        -1.2130  -31.5710   -1.9890 oh        1 FX3     -0.606800
     22 C1'        -1.2730  -29.2720   -1.1800 c3        1 FX3      0.298900
     23 OXT        -0.0530  -29.2590   -1.8670 oh        1 FX3     -0.602800
     24 H8         -2.8480  -26.8580    3.0610 ha        1 FX3      0.144000
     25 H7         -2.2290  -25.0250    0.6100 ha        1 FX3      0.149000
     26 H6         -0.5470  -23.3730    1.0700 ha        1 FX3      0.143000
     27 H2         -2.7900  -25.1050    4.3450 ha        1 FX3      0.142000
     28 H5          0.4430  -21.6840    2.6240 ha        1 FX3      0.159000
     29 H4         -0.3990  -21.5970    6.0490 ho        1 FX3      0.441000
     30 H101       -3.8320  -23.8050    6.0650 h1        1 FX3      0.047700
     31 H102       -2.7170  -25.1670    6.5880 h1        1 FX3      0.047700
     32 H103       -3.0230  -23.7490    7.7180 h1        1 FX3      0.047700
     33 H5'1       -1.8770  -28.7290    2.6280 h1        1 FX3      0.067700
     34 H5'2       -3.0070  -30.1870    2.6390 h1        1 FX3      0.067700
     35 H4'        -0.7790  -30.6950    1.5510 h1        1 FX3      0.079700
     36 H3'        -3.4710  -31.0100    0.2550 h1        1 FX3      0.109700
     37 H1'        -1.8490  -28.3610   -1.4980 h2        1 FX3      0.117700
     38 HA         -1.1840  -32.6200   -0.0980 ho        1 FX3      0.421000
     39 H2'        -2.9720  -30.4500   -1.9740 h1        1 FX3      0.078700
     40 HB         -0.8940  -31.1800   -2.8150 ho        1 FX3      0.428000
     41 HOT         0.5550  -29.8570   -1.4110 ho        1 FX3      0.422000
@<TRIPOS>BOND
     1    1    2 2   
     2    2    3 1   
     3    2   14 1   
     4    3    4 2   
     5    3   24 1   
     6    4    5 1   
     7    4   25 1   
     8    5    6 ar  
     9    5   13 ar  
    10    6    7 ar  
    11    6   26 1   
    12    7    8 ar  
    13    7   28 1   
    14    8    9 1   
    15    8   10 ar  
    16    9   29 1   
    17   10   11 1   
    18   10   13 ar  
    19   11   12 1   
    20   12   30 1   
    21   12   31 1   
    22   12   32 1   
    23   13   27 1   
    24   14   15 1   
    25   15   16 1   
    26   15   33 1   
    27   15   34 1   
    28   16   17 1   
    29   16   18 1   
    30   16   35 1   
    31   17   22 1   
    32   18   19 1   
    33   18   20 1   
    34   18   36 1   
    35   19   38 1   
    36   20   21 1   
    37   20   22 1   
    38   20   39 1   
    39   21   40 1   
    40   22   23 1   
    41   22   37 1   
    42   23   41 1   
@<TRIPOS>SUBSTRUCTURE
     1 FX3         1 TEMP              0 ****  ****    0 ROOT
