@<TRIPOS>MOLECULE
FX3
   41    42     1     0     0
SMALL
bcc


@<TRIPOS>ATOM
      1 O2          0.6550   -0.2570    0.6170 o         1 FX3     -0.477000
      2 C9          1.4340   -1.0740    0.1270 c         1 FX3      0.641300
      3 C8          2.0100   -2.2650    0.7610 ce        1 FX3     -0.259200
      4 C7          3.0170   -2.2830    1.6430 cf        1 FX3     -0.020200
      5 C1          3.8150   -1.1520    2.0880 ca        1 FX3     -0.101800
      6 C6          4.1810   -0.1190    1.2160 ca        1 FX3     -0.095000
      7 C5          4.9680    0.9420    1.6570 ca        1 FX3     -0.138000
      8 C4          5.3910    0.9840    2.9910 ca        1 FX3      0.131100
      9 O4          6.1660    2.0480    3.3760 oh        1 FX3     -0.490100
     10 C3          5.0250   -0.0590    3.8750 ca        1 FX3      0.033100
     11 O3          5.5260    0.0620    5.1620 os        1 FX3     -0.347900
     12 C10         4.8720   -0.7210    6.1540 c3        1 FX3      0.119700
     13 C2          4.2500   -1.1240    3.4240 ca        1 FX3     -0.133000
     14 O5'         1.6840   -0.8030   -1.2020 os        1 FX3     -0.434900
     15 C5'         2.6080   -1.6380   -1.8990 c3        1 FX3      0.120400
     16 C4'         3.3330   -0.7750   -2.9310 c3        1 FX3      0.096100
     17 O4'         4.2020    0.1310   -2.2400 os        1 FX3     -0.443600
     18 C3'         2.3680    0.0400   -3.8230 c3        1 FX3      0.133100
     19 O3'         2.3710   -0.4290   -5.1470 oh        1 FX3     -0.577800
     20 C2'         2.8210    1.5070   -3.6640 c3        1 FX3      0.056100
     21 O2'         3.4090    1.9200   -4.8840 oh        1 FX3     -0.605800
     22 C1'         3.8740    1.4860   -2.5310 c3        1 FX3      0.300900
     23 OXT         5.0850    2.0680   -2.9250 oh        1 FX3     -0.604800
     24 H8          1.4860   -3.1970    0.4840 ha        1 FX3      0.154000
     25 H7          3.2990   -3.2500    2.1030 ha        1 FX3      0.134000
     26 H6          3.8540   -0.1430    0.1610 ha        1 FX3      0.154000
     27 H2          3.9670   -1.9370    4.1070 ha        1 FX3      0.140000
     28 H5          5.2630    1.7500    0.9710 ha        1 FX3      0.161000
     29 H4          6.3430    1.9650    4.3270 ho        1 FX3      0.439000
     30 H101        3.7660   -0.5700    6.1190 h1        1 FX3      0.046367
     31 H102        5.2980   -0.3350    7.1150 h1        1 FX3      0.046367
     32 H103        5.1250   -1.8010    6.0190 h1        1 FX3      0.046367
     33 H5'1        3.3570   -2.0930   -1.1990 h1        1 FX3      0.061700
     34 H5'2        2.0190   -2.4380   -2.4200 h1        1 FX3      0.061700
     35 H4'         3.9910   -1.4400   -3.5550 h1        1 FX3      0.078700
     36 H3'         1.3050   -0.0840   -3.4740 h1        1 FX3      0.112700
     37 H1'         3.5500    2.0050   -1.5900 h2        1 FX3      0.109700
     38 HA          3.1720   -0.1090   -5.5850 ho        1 FX3      0.421000
     39 H2'         1.9600    2.1750   -3.4060 h1        1 FX3      0.077700
     40 HB          3.8340    2.7730   -4.7150 ho        1 FX3      0.429000
     41 HOT         5.5170    1.4710   -3.5530 ho        1 FX3      0.423000
@<TRIPOS>BOND
     1    1    2 2   
     2    2    3 1   
     3    2   14 1   
     4    3    4 2   
     5    3   24 1   
     6    4    5 1   
     7    4   25 1   
     8    5    6 ar  
     9    5   13 ar  
    10    6    7 ar  
    11    6   26 1   
    12    7    8 ar  
    13    7   28 1   
    14    8    9 1   
    15    8   10 ar  
    16    9   29 1   
    17   10   11 1   
    18   10   13 ar  
    19   11   12 1   
    20   12   30 1   
    21   12   31 1   
    22   12   32 1   
    23   13   27 1   
    24   14   15 1   
    25   15   16 1   
    26   15   33 1   
    27   15   34 1   
    28   16   17 1   
    29   16   18 1   
    30   16   35 1   
    31   17   22 1   
    32   18   19 1   
    33   18   20 1   
    34   18   36 1   
    35   19   38 1   
    36   20   21 1   
    37   20   22 1   
    38   20   39 1   
    39   21   40 1   
    40   22   23 1   
    41   22   37 1   
    42   23   41 1   
@<TRIPOS>SUBSTRUCTURE
     1 FX3         1 TEMP              0 ****  ****    0 ROOT
