@<TRIPOS>MOLECULE
FX4
   36    37     1     0     0
SMALL
bcc


@<TRIPOS>ATOM
      1 O1         -0.3360    0.3450    0.2770 o         1 FX4     -0.830800
      2 C2          0.9110    0.3360    0.4410 c         1 FX4      0.911600
      3 O3          1.5030    0.4250    1.5530 o         1 FX4     -0.830800
      4 C4          1.8650    0.2100   -0.7850 c3        1 FX4     -0.043000
      5 N5          1.2680    0.1020   -2.0990 n         1 FX4     -0.455400
      6 C6          0.8310   -1.1200   -2.6250 c         1 FX4      0.735100
      7 O10         1.1430   -2.2370   -2.2020 o         1 FX4     -0.575500
      8 S7         -0.1520   -0.8480   -4.1010 ss        1 FX4     -0.168200
      9 C9          0.7760    1.2300   -2.7870 c         1 FX4      0.712700
     10 O11         1.0780    2.3990   -2.5050 o         1 FX4     -0.601500
     11 C8         -0.0630    0.8460   -3.9720 cc        1 FX4     -0.118600
     12 C12        -0.6170    1.8020   -4.7360 cf        1 FX4     -0.013200
     13 C13        -1.4170    1.6530   -5.9340 ca        1 FX4     -0.069800
     14 C14        -2.2310    2.7350   -6.3150 ca        1 FX4     -0.140000
     15 C15        -2.9960    2.6760   -7.4720 ca        1 FX4     -0.148000
     16 C16        -2.9420    1.5440   -8.2960 ca        1 FX4      0.093100
     17 O24        -3.6480    1.6140   -9.4810 os        1 FX4     -0.352900
     18 C25        -4.5000    0.4960   -9.7560 c3        1 FX4      0.094700
     19 C18        -1.3720    0.5100   -6.7440 ca        1 FX4     -0.156000
     20 C17        -2.1020    0.4600   -7.9410 ca        1 FX4      0.107100
     21 O19        -1.9950   -0.5580   -8.8520 os        1 FX4     -0.307900
     22 C20        -1.8200   -1.8810   -8.3220 c3        1 FX4     -0.007600
     23 C21        -2.4510   -2.8660   -9.3390 c         1 FX4      0.920600
     24 O22        -3.5970   -2.6070   -9.8000 o         1 FX4     -0.832300
     25 O23        -1.7790   -3.8980   -9.6100 o         1 FX4     -0.832300
     26 H4          2.5220    1.1230   -0.7950 h1        1 FX4      0.056200
     27 H4A         2.4970   -0.7070   -0.6300 h1        1 FX4      0.056200
     28 H12        -0.4460    2.8550   -4.4230 ha        1 FX4      0.146000
     29 H14        -2.2700    3.6330   -5.6820 ha        1 FX4      0.122000
     30 H15        -3.6440    3.5150   -7.7610 ha        1 FX4      0.129000
     31 H25        -5.3200    0.4610   -8.9990 h1        1 FX4      0.059367
     32 H25A       -4.9110    0.7370  -10.7680 h1        1 FX4      0.059367
     33 H25B       -3.9360   -0.4750   -9.7750 h1        1 FX4      0.059367
     34 H18        -0.7440   -0.3510   -6.4600 ha        1 FX4      0.157000
     35 H20        -0.7220   -2.0640   -8.2070 h1        1 FX4      0.032700
     36 H20A       -2.3330   -1.9870   -7.3350 h1        1 FX4      0.032700
@<TRIPOS>BOND
     1    1    2 1   
     2    2    3 1   
     3    2    4 1   
     4    4    5 1   
     5    4   26 1   
     6    4   27 1   
     7    5    6 1   
     8    5    9 1   
     9    6    7 2   
    10    6    8 1   
    11    8   11 1   
    12    9   10 2   
    13    9   11 1   
    14   11   12 2   
    15   12   13 1   
    16   12   28 1   
    17   13   14 ar  
    18   13   19 ar  
    19   14   15 ar  
    20   14   29 1   
    21   15   16 ar  
    22   15   30 1   
    23   16   17 1   
    24   16   20 ar  
    25   17   18 1   
    26   18   31 1   
    27   18   32 1   
    28   18   33 1   
    29   19   20 ar  
    30   19   34 1   
    31   20   21 1   
    32   21   22 1   
    33   22   23 1   
    34   22   35 1   
    35   22   36 1   
    36   23   24 1   
    37   23   25 1   
@<TRIPOS>SUBSTRUCTURE
     1 FX4         1 TEMP              0 ****  ****    0 ROOT
