@<TRIPOS>MOLECULE
FX4
   36    37     1     0     0
SMALL
bcc


@<TRIPOS>ATOM
      1 O1         -0.3690    0.4300    0.2800 o         1 FX4     -0.830800
      2 C2          0.8760    0.3960    0.4520 c         1 FX4      0.911600
      3 O3          1.4640    0.4910    1.5670 o         1 FX4     -0.830800
      4 C4          1.8350    0.2280   -0.7650 c3        1 FX4     -0.043000
      5 N5          1.2430    0.1100   -2.0810 n         1 FX4     -0.455400
      6 C6          0.7830   -1.1110   -2.5880 c         1 FX4      0.735100
      7 O10         1.0680   -2.2280   -2.1440 o         1 FX4     -0.575500
      8 S7         -0.1860   -0.8440   -4.0760 ss        1 FX4     -0.168200
      9 C9          0.7800    1.2360   -2.7920 c         1 FX4      0.712700
     10 O11         1.1060    2.4030   -2.5280 o         1 FX4     -0.601500
     11 C8         -0.0600    0.8490   -3.9750 cc        1 FX4     -0.118600
     12 C12        -0.5880    1.8040   -4.7590 cf        1 FX4     -0.013200
     13 C13        -1.3850    1.6510   -5.9600 ca        1 FX4     -0.069800
     14 C14        -2.1710    2.7440   -6.3640 ca        1 FX4     -0.140000
     15 C15        -2.9310    2.6820   -7.5250 ca        1 FX4     -0.148000
     16 C16        -2.8980    1.5340   -8.3290 ca        1 FX4      0.093100
     17 O24        -3.5950    1.5990   -9.5200 os        1 FX4     -0.352900
     18 C25        -4.4710    0.4960   -9.7800 c3        1 FX4      0.094700
     19 C18        -1.3610    0.4940   -6.7490 ca        1 FX4     -0.156000
     20 C17        -2.0840    0.4390   -7.9490 ca        1 FX4      0.107100
     21 O19        -1.9950   -0.5990   -8.8420 os        1 FX4     -0.307900
     22 C20        -1.8530   -1.9150   -8.2870 c3        1 FX4     -0.007600
     23 C21        -2.5010   -2.9040   -9.2900 c         1 FX4      0.920600
     24 O22        -3.6380   -2.6280   -9.7620 o         1 FX4     -0.832300
     25 O23        -1.8510   -3.9550   -9.5390 o         1 FX4     -0.832300
     26 H4          2.4460   -0.7000   -0.5900 h1        1 FX4      0.056200
     27 H4A         2.5120    1.1250   -0.7870 h1        1 FX4      0.056200
     28 H12        -0.3970    2.8580   -4.4630 ha        1 FX4      0.146000
     29 H14        -2.1950    3.6540   -5.7470 ha        1 FX4      0.122000
     30 H15        -3.5580    3.5300   -7.8330 ha        1 FX4      0.129000
     31 H25        -3.9280   -0.4890   -9.7780 h1        1 FX4      0.059367
     32 H25A       -4.8700    0.7270  -10.7980 h1        1 FX4      0.059367
     33 H25B       -5.2960    0.4930   -9.0270 h1        1 FX4      0.059367
     34 H18        -0.7530   -0.3760   -6.4460 ha        1 FX4      0.156000
     35 H20        -0.7600   -2.1210   -8.1630 h1        1 FX4      0.032700
     36 H20A       -2.3740   -1.9920   -7.3010 h1        1 FX4      0.032700
@<TRIPOS>BOND
     1    1    2 1   
     2    2    3 1   
     3    2    4 1   
     4    4    5 1   
     5    4   26 1   
     6    4   27 1   
     7    5    6 1   
     8    5    9 1   
     9    6    7 2   
    10    6    8 1   
    11    8   11 1   
    12    9   10 2   
    13    9   11 1   
    14   11   12 2   
    15   12   13 1   
    16   12   28 1   
    17   13   14 ar  
    18   13   19 ar  
    19   14   15 ar  
    20   14   29 1   
    21   15   16 ar  
    22   15   30 1   
    23   16   17 1   
    24   16   20 ar  
    25   17   18 1   
    26   18   31 1   
    27   18   32 1   
    28   18   33 1   
    29   19   20 ar  
    30   19   34 1   
    31   20   21 1   
    32   21   22 1   
    33   22   23 1   
    34   22   35 1   
    35   22   36 1   
    36   23   24 1   
    37   23   25 1   
@<TRIPOS>SUBSTRUCTURE
     1 FX4         1 TEMP              0 ****  ****    0 ROOT
