@<TRIPOS>MOLECULE
FX4
   36    37     1     0     0
SMALL
bcc


@<TRIPOS>ATOM
      1 O1          5.1330   -1.0350   -1.6920 o         1 FX4     -0.830800
      2 C2          5.8370   -0.5550   -0.7680 c         1 FX4      0.911600
      3 O3          7.1000   -0.5630   -0.7300 o         1 FX4     -0.830800
      4 C4          5.1640    0.1190    0.4660 c3        1 FX4     -0.043000
      5 N5          3.7180    0.1720    0.5030 n         1 FX4     -0.455400
      6 C6          2.9900    1.1820   -0.1370 c         1 FX4      0.735100
      7 O10         3.4490    2.2560   -0.5380 o         1 FX4     -0.575500
      8 S7          1.2450    0.7620   -0.1800 ss        1 FX4     -0.168200
      9 C9          2.9420   -0.9440    0.8770 c         1 FX4      0.712700
     10 O11         3.3900   -1.9240    1.4900 o         1 FX4     -0.601500
     11 C8          1.4880   -0.7550    0.5480 cc        1 FX4     -0.118600
     12 C12         0.6090   -1.7300    0.8330 cf        1 FX4     -0.013200
     13 C13        -0.8270   -1.7370    0.6400 ca        1 FX4     -0.069800
     14 C14        -1.4750   -2.9840    0.6080 ca        1 FX4     -0.140000
     15 C15        -2.8530   -3.0660    0.4640 ca        1 FX4     -0.148000
     16 C16        -3.6240   -1.8980    0.3810 ca        1 FX4      0.093100
     17 O24        -4.9950   -2.0680    0.3510 os        1 FX4     -0.352900
     18 C25        -5.6800   -1.3560   -0.6850 c3        1 FX4      0.094700
     19 C18        -1.5890   -0.5660    0.5400 ca        1 FX4     -0.156000
     20 C17        -2.9870   -0.6350    0.4460 ca        1 FX4      0.107100
     21 O19        -3.8060    0.4650    0.4900 os        1 FX4     -0.307900
     22 C20        -3.3220    1.6530   -0.1530 c3        1 FX4     -0.007600
     23 C21        -4.5650    2.4440   -0.6400 c         1 FX4      0.920600
     24 O22        -5.4750    1.8200   -1.2530 o         1 FX4     -0.832300
     25 O23        -4.5590    3.6850   -0.4220 o         1 FX4     -0.832300
     26 H4          5.4970   -0.4450    1.3810 h1        1 FX4      0.056200
     27 H4A         5.5380    1.1780    0.5200 h1        1 FX4      0.056200
     28 H12         1.0190   -2.6610    1.2790 ha        1 FX4      0.146000
     29 H14        -0.8810   -3.9070    0.6840 ha        1 FX4      0.122000
     30 H15        -3.3580   -4.0410    0.4220 ha        1 FX4      0.129000
     31 H25        -6.7550   -1.5880   -0.4810 h1        1 FX4      0.059367
     32 H25A       -5.4950   -0.2480   -0.6350 h1        1 FX4      0.059367
     33 H25B       -5.3730   -1.7620   -1.6790 h1        1 FX4      0.059367
     34 H18        -1.0990    0.4230    0.5600 ha        1 FX4      0.157000
     35 H20        -2.7380    2.2400    0.6000 h1        1 FX4      0.032700
     36 H20A       -2.6770    1.4000   -1.0290 h1        1 FX4      0.032700
@<TRIPOS>BOND
     1    1    2 1   
     2    2    3 1   
     3    2    4 1   
     4    4    5 1   
     5    4   26 1   
     6    4   27 1   
     7    5    6 1   
     8    5    9 1   
     9    6    7 2   
    10    6    8 1   
    11    8   11 1   
    12    9   10 2   
    13    9   11 1   
    14   11   12 2   
    15   12   13 1   
    16   12   28 1   
    17   13   14 ar  
    18   13   19 ar  
    19   14   15 ar  
    20   14   29 1   
    21   15   16 ar  
    22   15   30 1   
    23   16   17 1   
    24   16   20 ar  
    25   17   18 1   
    26   18   31 1   
    27   18   32 1   
    28   18   33 1   
    29   19   20 ar  
    30   19   34 1   
    31   20   21 1   
    32   21   22 1   
    33   22   23 1   
    34   22   35 1   
    35   22   36 1   
    36   23   24 1   
    37   23   25 1   
@<TRIPOS>SUBSTRUCTURE
     1 FX4         1 TEMP              0 ****  ****    0 ROOT
