@<TRIPOS>MOLECULE
FX4
   36    37     1     0     0
SMALL
bcc


@<TRIPOS>ATOM
      1 O1         -0.3250    0.3760    0.2740 o         1 FX4     -0.830800
      2 C2          0.9220    0.3700    0.4360 c         1 FX4      0.911600
      3 O3          1.5160    0.4660    1.5470 o         1 FX4     -0.830800
      4 C4          1.8740    0.2400   -0.7910 c3        1 FX4     -0.043000
      5 N5          1.2750    0.1250   -2.1030 n         1 FX4     -0.455400
      6 C6          0.8400   -1.1010   -2.6220 c         1 FX4      0.735100
      7 O10         1.1560   -2.2150   -2.1950 o         1 FX4     -0.575500
      8 S7         -0.1460   -0.8380   -4.0980 ss        1 FX4     -0.168200
      9 C9          0.7790    1.2480   -2.7950 c         1 FX4      0.712700
     10 O11         1.0790    2.4200   -2.5190 o         1 FX4     -0.601500
     11 C8         -0.0610    0.8560   -3.9770 cc        1 FX4     -0.118600
     12 C12        -0.6190    1.8080   -4.7440 cf        1 FX4     -0.013200
     13 C13        -1.4210    1.6510   -5.9400 ca        1 FX4     -0.069800
     14 C14        -2.2380    2.7290   -6.3240 ca        1 FX4     -0.140000
     15 C15        -3.0050    2.6630   -7.4800 ca        1 FX4     -0.148000
     16 C16        -2.9500    1.5270   -8.2990 ca        1 FX4      0.093100
     17 O24        -3.6580    1.5900   -9.4830 os        1 FX4     -0.352900
     18 C25        -4.5090    0.4690   -9.7510 c3        1 FX4      0.094700
     19 C18        -1.3750    0.5050   -6.7450 ca        1 FX4     -0.156000
     20 C17        -2.1060    0.4470   -7.9400 ca        1 FX4      0.107100
     21 O19        -1.9990   -0.5760   -8.8470 os        1 FX4     -0.307900
     22 C20        -1.8200   -1.8950   -8.3100 c3        1 FX4     -0.007600
     23 C21        -2.4510   -2.8870   -9.3220 c         1 FX4      0.920600
     24 O22        -3.5980   -2.6330   -9.7810 o         1 FX4     -0.832300
     25 O23        -1.7770   -3.9180   -9.5890 o         1 FX4     -0.832300
     26 H4          2.5090   -0.6740   -0.6320 h1        1 FX4      0.056200
     27 H4A         2.5300    1.1550   -0.8060 h1        1 FX4      0.056200
     28 H12        -0.4510    2.8620   -4.4360 ha        1 FX4      0.146000
     29 H14        -2.2790    3.6300   -5.6950 ha        1 FX4      0.122000
     30 H15        -3.6550    3.4990   -7.7710 ha        1 FX4      0.129000
     31 H25        -3.9420   -0.5020   -9.7670 h1        1 FX4      0.059367
     32 H25A       -4.9220    0.7040  -10.7630 h1        1 FX4      0.059367
     33 H25B       -5.3270    0.4350   -8.9910 h1        1 FX4      0.059367
     34 H18        -0.7440   -0.3540   -6.4580 ha        1 FX4      0.156000
     35 H20        -0.7210   -2.0750   -8.1980 h1        1 FX4      0.032700
     36 H20A       -2.3300   -1.9980   -7.3220 h1        1 FX4      0.032700
@<TRIPOS>BOND
     1    1    2 1   
     2    2    3 1   
     3    2    4 1   
     4    4    5 1   
     5    4   26 1   
     6    4   27 1   
     7    5    6 1   
     8    5    9 1   
     9    6    7 2   
    10    6    8 1   
    11    8   11 1   
    12    9   10 2   
    13    9   11 1   
    14   11   12 2   
    15   12   13 1   
    16   12   28 1   
    17   13   14 ar  
    18   13   19 ar  
    19   14   15 ar  
    20   14   29 1   
    21   15   16 ar  
    22   15   30 1   
    23   16   17 1   
    24   16   20 ar  
    25   17   18 1   
    26   18   31 1   
    27   18   32 1   
    28   18   33 1   
    29   19   20 ar  
    30   19   34 1   
    31   20   21 1   
    32   21   22 1   
    33   22   23 1   
    34   22   35 1   
    35   22   36 1   
    36   23   24 1   
    37   23   25 1   
@<TRIPOS>SUBSTRUCTURE
     1 FX4         1 TEMP              0 ****  ****    0 ROOT
