@<TRIPOS>MOLECULE
FX4
   36    33     1     0     0
SMALL
bcc


@<TRIPOS>ATOM
      1 O1          4.6810   -1.8900   -5.5160 o         1 FX4     -0.565500
      2 C2          4.7190   -2.1950   -4.2770 c1        1 FX4      0.331000
      3 O3          4.6650   -3.4510   -3.9100 o         1 FX4     -0.565500
      4 C4          4.9640   -1.0960   -3.2150 c2        1 FX4     -0.110000
      5 N5          3.7600   -0.9000   -2.4230 n         1 FX4     -0.283000
      6 C6          2.5740   -1.8790   -2.3170 c2        1 FX4      0.221000
      7 O10         2.5700   -2.9940   -2.6640 o         1 FX4     -0.303000
      8 S7          1.4020   -1.1450   -1.4920 ss        1 FX4      0.213000
      9 C9          3.3730    0.4510   -1.6270 c2        1 FX4      0.350000
     10 O11         4.0760    1.4300   -1.5150 o         1 FX4     -0.324000
     11 C8          1.9160    0.3220   -1.1290 c2        1 FX4     -0.344000
     12 C12         1.1980    1.2880   -0.4900 c1        1 FX4     -0.007000
     13 C13        -0.2290    1.0070   -0.0580 c1        1 FX4     -0.089000
     14 C14        -1.2190    0.8650   -1.0030 c2        1 FX4     -0.105000
     15 C15        -2.5430    0.6640   -0.6120 c1        1 FX4     -0.171000
     16 C16        -2.8730    0.6050    0.7650 c1        1 FX4      0.088000
     17 O24        -4.1620    0.2860    1.1470 os        1 FX4     -0.234000
     18 C25        -5.0940    1.3730    1.0170 c3        1 FX4     -0.081000
     19 C18        -0.5480    0.9500    1.3130 c1        1 FX4     -0.138000
     20 C17        -1.8800    0.7470    1.7170 c1        1 FX4      0.024000
     21 O19        -2.2120    0.7580    3.0940 os        1 FX4     -0.206000
     22 C20        -1.6660   -0.3470    3.8350 c3        1 FX4     -0.103000
     23 C21        -2.3110   -0.3940    5.2420 c2        1 FX4      0.337000
     24 O22        -1.5770   -0.2410    6.2880 o         1 FX4     -0.569000
     25 O23        -3.4640   -0.7800    5.3630 o         1 FX4     -0.569000
     26 H4          5.2010   -0.2400   -3.6670 h4        1 FX4      0.096000
     27 H4A         5.6660   -1.3570   -2.6560 h4        1 FX4      0.096000
     28 H12         1.6070    2.1780   -0.3070 ha        1 FX4      0.151000
     29 H14        -1.0140    0.9540   -1.8910 ha        1 FX4      0.142000
     30 H15        -3.2010    0.5370   -1.2540 ha        1 FX4      0.135000
     31 H25        -4.7170    2.0550    0.4300 h1        1 FX4      0.101667
     32 H25A       -5.2720    1.7680    1.9170 h1        1 FX4      0.101667
     33 H25B       -5.9270    1.0430    0.6370 h1        1 FX4      0.101667
     34 H18         0.1620    1.0650    1.9850 ha        1 FX4      0.143000
     35 H20        -0.7700   -0.2430    3.9160 h1        1 FX4      0.067500
     36 H20A       -1.8590   -1.1930    3.3570 h1        1 FX4      0.067500
@<TRIPOS>BOND
     1    1    2 1   
     2    2    3 1   
     3    4    5 1   
     4    4   26 1   
     5    4   27 1   
     6    5    6 1   
     7    5    9 1   
     8    6    7 1   
     9    6    8 1   
    10    8   11 1   
    11    9   10 1   
    12    9   11 1   
    13   11   12 1   
    14   12   28 1   
    15   13   14 1   
    16   13   19 1   
    17   14   15 1   
    18   14   29 1   
    19   15   30 1   
    20   16   17 1   
    21   16   20 1   
    22   17   18 1   
    23   18   31 1   
    24   18   32 1   
    25   18   33 1   
    26   19   34 1   
    27   20   21 1   
    28   21   22 1   
    29   22   23 1   
    30   22   35 1   
    31   22   36 1   
    32   23   24 1   
    33   23   25 1   
@<TRIPOS>SUBSTRUCTURE
     1 FX4         1 TEMP              0 ****  ****    0 ROOT
