@<TRIPOS>MOLECULE
FXA
   50    53     1     0     0
SMALL
bcc


@<TRIPOS>ATOM
      1 C1          0.4010    0.2000   -0.1850 ca        1 FXA     -0.184000
      2 C2          1.7650    0.0110   -0.0330 ca        1 FXA      0.010000
      3 C3          2.3880    0.0250    1.2290 ca        1 FXA     -0.443500
      4 C10         1.5770    0.1390    4.8580 c         1 FXA      0.685700
      5 C11         2.4070    0.3710    6.0760 ca        1 FXA     -0.157600
      6 C13         1.7240    0.6020    7.2780 ca        1 FXA     -0.074500
      7 C14         2.4220    0.8130    8.4610 ca        1 FXA     -0.141000
      8 C15         3.8340    0.7990    8.4630 ca        1 FXA      0.063600
      9 C16         4.5160    0.5520    7.2540 ca        1 FXA     -0.141000
     10 N18         4.5500    1.0330    9.6710 n         1 FXA     -0.265200
     11 C19         5.6920    0.2550   10.0190 c         1 FXA      0.692700
     12 C20         6.3170    0.5490   11.3120 cc        1 FXA     -0.251200
     13 C21         4.1010    2.0250   10.5310 cc        1 FXA      0.011600
     14 C24         4.7050    2.2900   11.7300 cd        1 FXA     -0.242000
     15 C27         3.5220   -5.4110    0.8370 ca        1 FXA     -0.052000
     16 C4          1.5770    0.2810    2.3700 ca        1 FXA      0.203600
     17 C5          0.1810    0.4460    2.2090 ca        1 FXA     -0.184000
     18 C6         -0.3920    0.4010    0.9470 ca        1 FXA     -0.038000
     19 S7          4.0310   -0.2960    1.2500 sy        1 FXA      1.530200
     20 N8          4.1270   -1.8650    1.7420 nh        1 FXA     -0.858800
     21 N9          2.1820    0.3930    3.6280 n         1 FXA     -0.499100
     22 O12         0.4040   -0.2680    4.9480 o         1 FXA     -0.584100
     23 C17         3.8040    0.3390    6.0760 ca        1 FXA     -0.074500
     24 O22         6.1100   -0.6230    9.2410 o         1 FXA     -0.626500
     25 C23         5.8420    1.5220   12.1280 cd        1 FXA     -0.038000
     26 C25         3.7110   -3.0010    1.0360 ca        1 FXA      0.674200
     27 C26         3.9380   -4.3040    1.5680 ca        1 FXA     -0.275300
     28 C28         2.8930   -5.2150   -0.3970 ca        1 FXA     -0.143900
     29 C29         2.7000   -3.8940   -0.8530 ca        1 FXA      0.453200
     30 N30         3.0870   -2.8090   -0.1710 nb        1 FXA     -0.718000
     31 CL31        2.3690   -6.5240   -1.3300 cl        1 FXA     -0.069400
     32 O32         4.5860   -0.1050   -0.0220 o         1 FXA     -0.653800
     33 O33         4.6520    0.4400    2.2960 o         1 FXA     -0.653800
     34 H1         -0.0530    0.1840   -1.1870 ha        1 FXA      0.144000
     35 H2          2.3940   -0.1620   -0.9290 ha        1 FXA      0.170000
     36 H13         0.6210    0.5980    7.2800 ha        1 FXA      0.159000
     37 H14         1.8590    0.9750    9.3930 ha        1 FXA      0.158000
     38 H16         5.6180    0.4990    7.2380 ha        1 FXA      0.158000
     39 H20         7.1870   -0.0750   11.5580 ha        1 FXA      0.166000
     40 H21         3.2240    2.6050   10.1840 h4        1 FXA      0.159000
     41 H24         4.3250    3.0880   12.3800 ha        1 FXA      0.154000
     42 H27         3.6890   -6.4270    1.2280 ha        1 FXA      0.156000
     43 H5         -0.4610    0.6050    3.0920 ha        1 FXA      0.172000
     44 H6         -1.4800    0.5330    0.8390 ha        1 FXA      0.140000
     45 HN8         4.5240   -2.0800    2.6300 hn        1 FXA      0.460800
     46 HN9         3.1100    0.7720    3.6440 hn        1 FXA      0.356500
     47 H17         4.3800    0.1400    5.1560 ha        1 FXA      0.159000
     48 H23         6.3160    1.7400   13.0980 ha        1 FXA      0.144000
     49 H26         4.4350   -4.4370    2.5380 ha        1 FXA      0.152000
     50 H29         2.2070   -3.6910   -1.8230 h4        1 FXA      0.040100
@<TRIPOS>BOND
     1    1    2 ar  
     2    1   18 ar  
     3    1   34 1   
     4    2    3 ar  
     5    2   35 1   
     6    3   16 ar  
     7    3   19 1   
     8    4    5 1   
     9    4   21 1   
    10    4   22 2   
    11    5    6 ar  
    12    5   23 ar  
    13    6    7 ar  
    14    6   36 1   
    15    7    8 ar  
    16    7   37 1   
    17    8    9 ar  
    18    8   10 1   
    19    9   23 ar  
    20    9   38 1   
    21   10   11 1   
    22   10   13 1   
    23   11   12 1   
    24   11   24 2   
    25   12   25 2   
    26   12   39 1   
    27   13   14 2   
    28   13   40 1   
    29   14   25 1   
    30   14   41 1   
    31   15   27 ar  
    32   15   28 ar  
    33   15   42 1   
    34   16   17 ar  
    35   16   21 1   
    36   17   18 ar  
    37   17   43 1   
    38   18   44 1   
    39   19   20 1   
    40   19   32 2   
    41   19   33 2   
    42   20   26 1   
    43   20   45 1   
    44   21   46 1   
    45   23   47 1   
    46   25   48 1   
    47   26   27 ar  
    48   26   30 ar  
    49   27   49 1   
    50   28   29 ar  
    51   28   31 1   
    52   29   30 ar  
    53   29   50 1   
@<TRIPOS>SUBSTRUCTURE
     1 FXA         1 TEMP              0 ****  ****    0 ROOT
