@<TRIPOS>MOLECULE
FXA
   52    55     1     0     0
SMALL
bcc


@<TRIPOS>ATOM
      1 C1         -0.2980    0.2790    0.8160 ca        1 FXA     -0.102000
      2 C2          1.0320    0.3340    0.4110 ca        1 FXA     -0.011000
      3 C3          2.1010   -0.0100    1.2660 ca        1 FXA     -0.446500
      4 C10         3.3350    0.6820    4.2470 c         1 FXA      0.616700
      5 C11         3.4660    0.6650    5.6830 ca        1 FXA     -0.260600
      6 C13         3.4670    1.9150    6.3390 ca        1 FXA     -0.034500
      7 C14         3.5610    1.9890    7.7170 ca        1 FXA     -0.155500
      8 C15         3.6700    0.8130    8.5050 ca        1 FXA      0.175600
      9 C16         3.7250   -0.4400    7.8250 ca        1 FXA     -0.155500
     10 N18         3.7220    0.8770    9.9040 n         1 FXA     -0.277200
     11 C19         3.1220   -0.1430   10.7210 c         1 FXA      0.702700
     12 C20         3.1790    0.0510   12.1720 cc        1 FXA     -0.228200
     13 C21         4.3220    1.9840   10.5230 cc        1 FXA     -0.033400
     14 C24         4.3570    2.1330   11.8770 cd        1 FXA     -0.172000
     15 C27         5.2100   -4.7070   -0.3100 ca        1 FXA     -0.061000
     16 C4          1.7610   -0.3740    2.5990 ca        1 FXA      0.141600
     17 C5          0.4250   -0.4440    3.0080 ca        1 FXA     -0.126000
     18 C6         -0.6050   -0.1250    2.1130 ca        1 FXA      0.009000
     19 S7          3.6080    0.1240    0.6280 sy        1 FXA      1.482200
     20 N8          3.5260   -1.3570   -0.5870 n4        1 FXA     -0.680600
     21 N9          2.7950   -0.6350    3.6050 n4        1 FXA     -0.596200
     22 O12         3.5550    1.5630    3.4290 o         1 FXA     -0.463100
     23 C17         3.6220   -0.5060    6.4510 ca        1 FXA     -0.034500
     24 O22         2.5760   -1.1140   10.1710 o         1 FXA     -0.615500
     25 C23         3.7620    1.1390   12.7250 cd        1 FXA     -0.029000
     26 C25         4.0060   -2.6350   -0.0500 ca        1 FXA      0.445200
     27 C26         4.7910   -3.4870   -0.8530 ca        1 FXA     -0.165300
     28 C28         4.8320   -5.0390    0.9940 ca        1 FXA     -0.050900
     29 C29         4.0410   -4.1080    1.7250 ca        1 FXA      0.429200
     30 N30         3.6340   -2.9350    1.2340 nb        1 FXA     -0.716000
     31 CL31        5.2860   -6.4860    1.7000 cl        1 FXA      0.044600
     32 O32         3.7320    1.1250   -0.3050 o         1 FXA     -0.550300
     33 O33         4.6020   -0.2040    1.5220 o         1 FXA     -0.550300
     34 H1         -1.1040    0.5630    0.1130 ha        1 FXA      0.201000
     35 H2          1.2560    0.6910   -0.6160 ha        1 FXA      0.180000
     36 H13         3.3770    2.8430    5.7450 ha        1 FXA      0.148000
     37 H14         3.5240    2.9850    8.1950 ha        1 FXA      0.189500
     38 H16         3.8470   -1.3760    8.4030 ha        1 FXA      0.189500
     39 H20         2.7100   -0.7540   12.7620 ha        1 FXA      0.188000
     40 H21         4.8010    2.7190    9.8500 h4        1 FXA      0.164000
     41 H24         4.8500    3.0070   12.3280 ha        1 FXA      0.177000
     42 H27         5.8290   -5.3960   -0.9160 ha        1 FXA      0.205000
     43 H5          0.1510   -0.7370    4.0390 ha        1 FXA      0.185000
     44 H6         -1.6580   -0.1830    2.4500 ha        1 FXA      0.200000
     45 HN8         4.0860   -1.1370   -1.4160 hn        1 FXA      0.464800
     46 HN9         3.5960   -1.1330    3.1870 hn        1 FXA      0.476800
     47 H17         3.7130   -1.4970    5.9790 ha        1 FXA      0.148000
     48 H23         3.8000    1.2840   13.8180 ha        1 FXA      0.172000
     49 H26         5.0810   -3.2210   -1.8830 ha        1 FXA      0.183000
     50 H29         3.7230   -4.3400    2.7610 h4        1 FXA      0.057100
     51 H82         2.5650   -1.4990   -0.9080 hn        1 FXA      0.464800
     52 H92         2.3950   -1.2230    4.3470 hn        1 FXA      0.476800
@<TRIPOS>BOND
     1    1    2 ar  
     2    1   18 ar  
     3    1   34 1   
     4    2    3 ar  
     5    2   35 1   
     6    3   16 ar  
     7    3   19 1   
     8    4    5 1   
     9    4   21 1   
    10    4   22 2   
    11    5    6 ar  
    12    5   23 ar  
    13    6    7 ar  
    14    6   36 1   
    15    7    8 ar  
    16    7   37 1   
    17    8    9 ar  
    18    8   10 1   
    19    9   23 ar  
    20    9   38 1   
    21   10   11 1   
    22   10   13 1   
    23   11   12 1   
    24   11   24 2   
    25   12   25 2   
    26   12   39 1   
    27   13   14 2   
    28   13   40 1   
    29   14   25 1   
    30   14   41 1   
    31   15   27 ar  
    32   15   28 ar  
    33   15   42 1   
    34   16   17 ar  
    35   16   21 1   
    36   17   18 ar  
    37   17   43 1   
    38   18   44 1   
    39   19   20 1   
    40   19   32 2   
    41   19   33 2   
    42   20   26 1   
    43   20   45 1   
    44   20   51 1   
    45   21   46 1   
    46   21   52 1   
    47   23   47 1   
    48   25   48 1   
    49   26   27 ar  
    50   26   30 ar  
    51   27   49 1   
    52   28   29 ar  
    53   28   31 1   
    54   29   30 ar  
    55   29   50 1   
@<TRIPOS>SUBSTRUCTURE
     1 FXA         1 TEMP              0 ****  ****    0 ROOT
