@<TRIPOS>MOLECULE
FXA
   50    53     1     0     0
SMALL
bcc


@<TRIPOS>ATOM
      1 C1          0.4020    0.1990   -0.1870 ca        1 FXA     -0.184000
      2 C2          1.7660    0.0110   -0.0350 ca        1 FXA      0.010000
      3 C3          2.3880    0.0260    1.2280 ca        1 FXA     -0.443500
      4 C10         1.5770    0.1390    4.8570 c         1 FXA      0.685700
      5 C11         2.4070    0.3720    6.0750 ca        1 FXA     -0.157600
      6 C13         1.7240    0.6010    7.2770 ca        1 FXA     -0.074500
      7 C14         2.4220    0.8120    8.4600 ca        1 FXA     -0.141000
      8 C15         3.8340    0.7990    8.4630 ca        1 FXA      0.063600
      9 C16         4.5160    0.5530    7.2530 ca        1 FXA     -0.141000
     10 N18         4.5510    1.0320    9.6700 n         1 FXA     -0.265200
     11 C19         5.6930    0.2540   10.0170 c         1 FXA      0.692700
     12 C20         6.3170    0.5480   11.3110 cc        1 FXA     -0.251200
     13 C21         4.1000    2.0220   10.5310 cc        1 FXA      0.011600
     14 C24         4.7040    2.2870   11.7300 cd        1 FXA     -0.242000
     15 C27         3.5220   -5.4100    0.8410 ca        1 FXA     -0.052000
     16 C4          1.5770    0.2820    2.3690 ca        1 FXA      0.203600
     17 C5          0.1810    0.4470    2.2080 ca        1 FXA     -0.184000
     18 C6         -0.3920    0.4010    0.9460 ca        1 FXA     -0.038000
     19 S7          4.0310   -0.2950    1.2490 sy        1 FXA      1.530200
     20 N8          4.1270   -1.8640    1.7420 nu        1 FXA     -0.858800
     21 N9          2.1820    0.3940    3.6270 ns        1 FXA     -0.499100
     22 O12         0.4040   -0.2680    4.9470 o         1 FXA     -0.584100
     23 C17         3.8040    0.3410    6.0750 ca        1 FXA     -0.074500
     24 O22         6.1110   -0.6220    9.2390 o         1 FXA     -0.626500
     25 C23         5.8420    1.5200   12.1280 cd        1 FXA     -0.038000
     26 C25         3.7110   -3.0000    1.0380 ca        1 FXA      0.674200
     27 C26         3.9380   -4.3020    1.5710 ca        1 FXA     -0.275300
     28 C28         2.8920   -5.2150   -0.3930 ca        1 FXA     -0.143900
     29 C29         2.7000   -3.8940   -0.8500 ca        1 FXA      0.453200
     30 N30         3.0870   -2.8090   -0.1690 nb        1 FXA     -0.718000
     31 Cl31        2.3680   -6.5250   -1.3240 cl        1 FXA     -0.069400
     32 O32         4.5860   -0.1050   -0.0230 o         1 FXA     -0.653800
     33 O33         4.6520    0.4420    2.2950 o         1 FXA     -0.653800
     34 H1         -0.0530    0.1830   -1.1880 ha        1 FXA      0.144000
     35 H2          2.3940   -0.1620   -0.9300 ha        1 FXA      0.170000
     36 H13         0.6210    0.5960    7.2790 ha        1 FXA      0.159000
     37 H14         1.8590    0.9720    9.3930 ha        1 FXA      0.158000
     38 H16         5.6180    0.5020    7.2360 ha        1 FXA      0.158000
     39 H20         7.1880   -0.0760   11.5560 ha        1 FXA      0.166000
     40 H21         3.2230    2.6020   10.1850 h4        1 FXA      0.159000
     41 H24         4.3240    3.0840   12.3810 ha        1 FXA      0.154000
     42 H27         3.6880   -6.4250    1.2330 ha        1 FXA      0.156000
     43 H5         -0.4610    0.6060    3.0900 ha        1 FXA      0.172000
     44 H6         -1.4800    0.5330    0.8380 ha        1 FXA      0.140000
     45 HN8         4.5250   -2.0770    2.6310 hn        1 FXA      0.460800
     46 HN9         3.1100    0.7740    3.6430 hn        1 FXA      0.356500
     47 H17         4.3800    0.1430    5.1540 ha        1 FXA      0.159000
     48 H23         6.3150    1.7370   13.0980 ha        1 FXA      0.144000
     49 H26         4.4350   -4.4340    2.5420 ha        1 FXA      0.152000
     50 H29         2.2070   -3.6930   -1.8200 h4        1 FXA      0.040100
@<TRIPOS>BOND
     1    1    2 ar  
     2    1   18 ar  
     3    1   34 1   
     4    2    3 ar  
     5    2   35 1   
     6    3   16 ar  
     7    3   19 1   
     8    4    5 1   
     9    4   21 1   
    10    4   22 2   
    11    5    6 ar  
    12    5   23 ar  
    13    6    7 ar  
    14    6   36 1   
    15    7    8 ar  
    16    7   37 1   
    17    8    9 ar  
    18    8   10 1   
    19    9   23 ar  
    20    9   38 1   
    21   10   11 1   
    22   10   13 1   
    23   11   12 1   
    24   11   24 2   
    25   12   25 2   
    26   12   39 1   
    27   13   14 2   
    28   13   40 1   
    29   14   25 1   
    30   14   41 1   
    31   15   27 ar  
    32   15   28 ar  
    33   15   42 1   
    34   16   17 ar  
    35   16   21 1   
    36   17   18 ar  
    37   17   43 1   
    38   18   44 1   
    39   19   20 1   
    40   19   32 2   
    41   19   33 2   
    42   20   26 1   
    43   20   45 1   
    44   21   46 1   
    45   23   47 1   
    46   25   48 1   
    47   26   27 ar  
    48   26   30 ar  
    49   27   49 1   
    50   28   29 ar  
    51   28   31 1   
    52   29   30 ar  
    53   29   50 1   
@<TRIPOS>SUBSTRUCTURE
     1 FXA         1 TEMP              0 ****  ****    0 ROOT
