@<TRIPOS>MOLECULE
FXA
   50    53     1     0     0
SMALL
bcc


@<TRIPOS>ATOM
      1 C1         -3.8730    3.3480    0.3000 ca        1 FXA     -0.184000
      2 C2         -3.5950    2.3650   -0.6350 ca        1 FXA      0.010000
      3 C3         -2.3380    1.7380   -0.7130 ca        1 FXA     -0.443500
      4 C10         0.9100    1.5240    1.0890 c         1 FXA      0.685700
      5 C11         2.2390    0.9530    0.7210 ca        1 FXA     -0.157600
      6 C13         3.3220    1.2750    1.5490 ca        1 FXA     -0.074500
      7 C14         4.5900    0.7740    1.2850 ca        1 FXA     -0.141000
      8 C15         4.8020   -0.0700    0.1720 ca        1 FXA      0.063600
      9 C16         3.7050   -0.4040   -0.6490 ca        1 FXA     -0.141000
     10 N18         6.1040   -0.5710   -0.1100 n         1 FXA     -0.265200
     11 C19         6.3090   -1.9250   -0.5040 c         1 FXA      0.692700
     12 C20         7.6990   -2.3430   -0.7150 cc        1 FXA     -0.251200
     13 C21         7.1900    0.2800    0.0330 cc        1 FXA      0.011600
     14 C24         8.4800   -0.1280   -0.1790 cd        1 FXA     -0.242000
     15 C27        -4.5220   -3.0790    1.0230 ca        1 FXA     -0.052000
     16 C4         -1.3200    2.1700    0.1830 ca        1 FXA      0.203600
     17 C5         -1.6190    3.1560    1.1520 ca        1 FXA     -0.184000
     18 C6         -2.8800    3.7300    1.2070 ca        1 FXA     -0.038000
     19 S7         -2.1870    0.5140   -1.8460 sy        1 FXA      1.530200
     20 N8         -2.2980   -0.8700   -0.9580 nh        1 FXA     -0.858800
     21 N9         -0.0330    1.6300    0.0680 n         1 FXA     -0.499100
     22 O12         0.6650    1.8800    2.2570 o         1 FXA     -0.584100
     23 C17         2.4390    0.1050   -0.3710 ca        1 FXA     -0.074500
     24 O22         5.3350   -2.6870   -0.6510 o         1 FXA     -0.626500
     25 C23         8.7340   -1.4830   -0.5580 cd        1 FXA     -0.038000
     26 C25        -3.4260   -1.3570   -0.2870 ca        1 FXA      0.674200
     27 C26        -3.3820   -2.6200    0.3740 ca        1 FXA     -0.275300
     28 C28        -5.6780   -2.2910    1.0100 ca        1 FXA     -0.143900
     29 C29        -5.6400   -1.0510    0.3380 ca        1 FXA      0.453200
     30 N30        -4.5570   -0.5810   -0.2930 nb        1 FXA     -0.718000
     31 CL31       -7.0940   -2.8010    1.7800 cl        1 FXA     -0.069400
     32 O32        -3.2000    0.6070   -2.8090 o         1 FXA     -0.653800
     33 O33        -0.8630    0.4960   -2.3620 o         1 FXA     -0.653800
     34 H1         -4.8650    3.8190    0.3340 ha        1 FXA      0.144000
     35 H2         -4.3850    2.0510   -1.3460 ha        1 FXA      0.170000
     36 H13         3.1560    1.9230    2.4270 ha        1 FXA      0.159000
     37 H14         5.4200    1.0300    1.9620 ha        1 FXA      0.158000
     38 H16         3.8380   -1.0900   -1.5020 ha        1 FXA      0.158000
     39 H20         7.8250   -3.3960   -1.0060 ha        1 FXA      0.166000
     40 H21         6.9540    1.3230    0.3170 h4        1 FXA      0.159000
     41 H24         9.3130    0.5760   -0.0650 ha        1 FXA      0.154000
     42 H27        -4.5110   -4.0520    1.5390 ha        1 FXA      0.156000
     43 H5         -0.8480    3.4700    1.8760 ha        1 FXA      0.172000
     44 H6         -3.0950    4.4980    1.9670 ha        1 FXA      0.140000
     45 HN8        -1.5010   -1.4620   -0.8670 hn        1 FXA      0.460800
     46 HN9         0.2620    1.3750   -0.8560 hn        1 FXA      0.356500
     47 H17         1.6090   -0.1910   -1.0360 ha        1 FXA      0.159000
     48 H23         9.7750   -1.8010   -0.7180 ha        1 FXA      0.144000
     49 H26        -2.4640   -3.2240    0.3720 ha        1 FXA      0.152000
     50 H29        -6.5300   -0.3950    0.3010 h4        1 FXA      0.040100
@<TRIPOS>BOND
     1    1    2 ar  
     2    1   18 ar  
     3    1   34 1   
     4    2    3 ar  
     5    2   35 1   
     6    3   16 ar  
     7    3   19 1   
     8    4    5 1   
     9    4   21 1   
    10    4   22 2   
    11    5    6 ar  
    12    5   23 ar  
    13    6    7 ar  
    14    6   36 1   
    15    7    8 ar  
    16    7   37 1   
    17    8    9 ar  
    18    8   10 1   
    19    9   23 ar  
    20    9   38 1   
    21   10   11 1   
    22   10   13 1   
    23   11   12 1   
    24   11   24 2   
    25   12   25 2   
    26   12   39 1   
    27   13   14 2   
    28   13   40 1   
    29   14   25 1   
    30   14   41 1   
    31   15   27 ar  
    32   15   28 ar  
    33   15   42 1   
    34   16   17 ar  
    35   16   21 1   
    36   17   18 ar  
    37   17   43 1   
    38   18   44 1   
    39   19   20 1   
    40   19   32 2   
    41   19   33 2   
    42   20   26 1   
    43   20   45 1   
    44   21   46 1   
    45   23   47 1   
    46   25   48 1   
    47   26   27 ar  
    48   26   30 ar  
    49   27   49 1   
    50   28   29 ar  
    51   28   31 1   
    52   29   30 ar  
    53   29   50 1   
@<TRIPOS>SUBSTRUCTURE
     1 FXA         1 TEMP              0 ****  ****    0 ROOT
