@<TRIPOS>MOLECULE
FXA
   50    43     1     0     0
SMALL
bcc


@<TRIPOS>ATOM
      1 C1         -4.2060   -0.0900   -3.5990 c1        1 FXA     -0.103000
      2 C2         -2.8650   -0.4180   -3.7520 c1        1 FXA     -0.103000
      3 C3         -2.0060   -0.3520   -2.6650 c1        1 FXA     -0.906000
      4 C10        -1.7300    1.4380    0.5040 c1        1 FXA      0.363000
      5 C11        -0.7980    1.6510    1.7030 c1        1 FXA     -0.140000
      6 C13        -0.9510    2.7750    2.5130 c1        1 FXA     -0.064000
      7 C14        -0.1410    2.9420    3.6320 c1        1 FXA     -0.163000
      8 C15         0.8250    1.9860    3.9420 c1        1 FXA      0.073000
      9 C16         0.9770    0.8640    3.1330 c1        1 FXA     -0.119000
     10 N18         1.7330    2.2140    5.0280 n         1 FXA     -0.203000
     11 C19         3.0950    2.6800    4.7550 c2        1 FXA      0.331000
     12 C20         4.0240    3.0270    5.9050 c2        1 FXA     -0.231000
     13 C21         1.2830    2.0240    6.4140 c2        1 FXA      0.009000
     14 C24         2.2070    2.3690    7.5660 c1        1 FXA     -0.241000
     15 C27         2.0720   -4.8580   -4.8230 c1        1 FXA     -0.050000
     16 C4         -2.4890    0.0430   -1.4180 c1        1 FXA      0.221000
     17 C5         -3.8310    0.3710   -1.2670 c1        1 FXA     -0.103000
     18 C6         -4.6890    0.3050   -2.3560 c1        1 FXA     -0.103000
     19 S7         -1.4800   -1.7950   -3.6110 s4        1 FXA      2.092800
     20 N8          0.1140   -2.1100   -3.3320 n2        1 FXA     -0.814000
     21 N9         -1.5720    0.2740   -0.3360 n3        1 FXA     -0.351000
     22 O12        -2.6440    2.2250    0.2930 o         1 FXA     -0.340000
     23 C17         0.1650    0.6970    2.0120 c2        1 FXA     -0.080000
     24 O22         3.4710    2.8160    3.6090 o         1 FXA     -0.348000
     25 C23         3.5770    2.8380    7.2940 c1        1 FXA     -0.039000
     26 C25         0.8670   -2.8750   -4.2750 c2        1 FXA      0.147000
     27 C26         1.3910   -4.1070   -3.9080 c1        1 FXA     -0.222000
     28 C28         2.2380   -4.3950   -6.1010 c1        1 FXA     -0.154000
     29 C29         1.7140   -3.1640   -6.4650 c1        1 FXA     -0.023000
     30 N30         1.0330   -2.4140   -5.5500 n2        1 FXA     -0.172000
     31 CL31        3.1500   -5.3360   -7.2620 cl        1 FXA      0.007000
     32 O32        -2.3020   -2.9460   -3.3130 o         1 FXA     -0.549400
     33 O33        -1.7420   -1.6210   -5.0240 o         1 FXA     -0.549400
     34 H1         -4.8100   -0.1360   -4.3640 ha        1 FXA      0.157500
     35 H2         -2.5280   -0.6940   -4.6230 ha        1 FXA      0.157500
     36 H13        -1.6310    3.4480    2.2950 ha        1 FXA      0.160000
     37 H14        -0.2490    3.7320    4.2010 ha        1 FXA      0.144000
     38 H16         1.6570    0.1910    3.3510 ha        1 FXA      0.173000
     39 H20         4.9330    3.3390    5.7220 ha        1 FXA      0.166000
     40 H21         0.3720    1.7110    6.5940 h4        1 FXA      0.158000
     41 H24         1.9070    2.2420    8.4890 ha        1 FXA      0.154000
     42 H27         2.4410   -5.7250   -4.5660 ha        1 FXA      0.158000
     43 H5         -4.1720    0.6490   -0.3900 ha        1 FXA      0.157500
     44 H6         -5.6430    0.5380   -2.2480 ha        1 FXA      0.157500
     45 HN8         0.5130   -1.8110   -2.5610 hn        1 FXA      0.265000
     46 HN9        -0.8330   -0.2510   -0.2490 hn        1 FXA      0.273000
     47 H17         0.2720   -0.0870    1.4470 ha        1 FXA      0.158000
     48 H23         4.1760    3.0620    8.0390 ha        1 FXA      0.144000
     49 H26         1.2730   -4.4360   -3.0000 ha        1 FXA      0.169000
     50 H29         1.8330   -2.8310   -7.3840 ha        1 FXA      0.176000
@<TRIPOS>BOND
     1    1    2 1   
     2    1   34 1   
     3    2   35 1   
     4    3   16 1   
     5    3   19 1   
     6    4   21 1   
     7    4   22 1   
     8    5    6 1   
     9    5   23 1   
    10    6   36 1   
    11    7    8 1   
    12    7   37 1   
    13    8   10 1   
    14    9   23 1   
    15    9   38 1   
    16   10   11 1   
    17   10   13 1   
    18   11   12 1   
    19   11   24 1   
    20   12   25 1   
    21   12   39 1   
    22   13   14 1   
    23   13   40 1   
    24   14   41 1   
    25   15   28 1   
    26   15   42 1   
    27   16   21 1   
    28   17   18 1   
    29   17   43 1   
    30   18   44 1   
    31   19   32 1   
    32   19   33 1   
    33   20   26 1   
    34   20   45 1   
    35   21   46 1   
    36   23   47 1   
    37   25   48 1   
    38   26   27 1   
    39   26   30 1   
    40   27   49 1   
    41   28   31 1   
    42   29   30 1   
    43   29   50 1   
@<TRIPOS>SUBSTRUCTURE
     1 FXA         1 TEMP              0 ****  ****    0 ROOT
