@<TRIPOS>MOLECULE
FXE
   42    36     1     0     0
SMALL
bcc


@<TRIPOS>ATOM
      1 CAA        -2.6780   -4.1940   -1.4690 c3        1 FXE     -0.079000
      2 OAB        -2.7520   -2.9720   -0.7490 os        1 FXE     -0.187000
      3 CAE        -2.4020   -3.0900    0.6220 c2        1 FXE      0.166000
      4 CAF        -1.8450   -1.9850    1.3020 c1        1 FXE     -0.126000
      5 CAD        -3.3350   -3.9010    1.2600 c1        1 FXE     -0.251000
      6 CAN        -3.7180   -3.6250    2.5650 c1        1 FXE     -0.135750
      7 CAO        -3.1690   -2.5380    3.2340 c1        1 FXE     -0.135750
      8 CAP        -2.2220   -1.7140    2.5870 c1        1 FXE      0.028000
      9 NAQ        -1.5900   -0.5580    2.9790 n1        1 FXE     -0.146000
     10 CAV        -1.5070    0.1430    4.2270 c2        1 FXE     -0.049000
     11 NAR        -0.8160   -0.1130    1.9230 n2        1 FXE     -0.072000
     12 CAG        -0.9680   -0.9840    0.8930 c1        1 FXE      0.033000
     13 NAH         0.2290   -0.1740    0.8060 n2        1 FXE     -0.270000
     14 CAI         0.6130    0.4120   -0.4540 c2        1 FXE      0.397000
     15 OAC        -0.0690    0.2250   -1.4460 o         1 FXE     -0.360000
     16 NAJ         1.8070    1.2240   -0.5400 n         1 FXE     -0.316000
     17 CAK         2.1890    1.8130   -1.7990 c2        1 FXE      0.066000
     18 CAL         2.1770    1.0450   -2.9580 c2        1 FXE     -0.124000
     19 CAM         2.6090    1.5930   -4.1620 c1        1 FXE     -0.135000
     20 CAU         3.0530    2.9120   -4.2080 c1        1 FXE     -0.135750
     21 CAT         3.0650    3.6820   -3.0480 c1        1 FXE     -0.135750
     22 CAS         2.6330    3.1340   -1.8440 c1        1 FXE      0.025000
     23 OAW         2.5550    3.9480   -0.6830 os        1 FXE     -0.233000
     24 CAX         3.7560    4.6430   -0.3850 c3        1 FXE     -0.070000
     25 HAA1       -2.6200   -4.9440   -0.8370 h1        1 FXE      0.085667
     26 HAA2       -1.8800   -4.1880   -2.0440 h1        1 FXE      0.085667
     27 HAA3       -3.4820   -4.2960   -2.0260 h1        1 FXE      0.085667
     28 HAD        -3.7220   -4.6680    0.7880 ha        1 FXE      0.138000
     29 HAN        -4.3770   -4.1970    3.0150 ha        1 FXE      0.134750
     30 HAO        -3.4400   -2.3430    4.1570 ha        1 FXE      0.134750
     31 HAV1       -1.1240   -0.4490    4.9120 ha        1 FXE      0.095667
     32 HAV2       -0.9350    0.9340    4.1210 ha        1 FXE      0.095667
     33 HAV3       -2.4070    0.4250    4.5050 ha        1 FXE      0.095667
     34 HAH         0.7650   -0.0700    1.5420 hn        1 FXE      0.219000
     35 HAJ         2.3090    1.3830    0.2110 hn        1 FXE      0.242000
     36 HAL         1.8640    0.1140   -2.9260 ha        1 FXE      0.177000
     37 HAM         2.6000    1.0500   -4.9800 ha        1 FXE      0.136000
     38 HAU         3.3580    3.2990   -5.0580 ha        1 FXE      0.134750
     39 HAT         3.3790    4.6150   -3.0800 ha        1 FXE      0.134750
     40 HAX1        4.4910    4.2680   -0.9170 h1        1 FXE      0.083333
     41 HAX2        3.9610    4.5470    0.5700 h1        1 FXE      0.083333
     42 HAX3        3.6460    5.5950   -0.6030 h1        1 FXE      0.083333
@<TRIPOS>BOND
     1    1    2 1   
     2    1   25 1   
     3    1   26 1   
     4    1   27 1   
     5    2    3 1   
     6    3    4 1   
     7    3    5 1   
     8    4    8 1   
     9    5   28 1   
    10    6    7 1   
    11    6   29 1   
    12    7   30 1   
    13    9   11 1   
    14   10   31 1   
    15   10   32 1   
    16   10   33 1   
    17   11   12 1   
    18   13   14 1   
    19   13   34 1   
    20   14   15 1   
    21   14   16 1   
    22   16   17 1   
    23   16   35 1   
    24   17   18 1   
    25   17   22 1   
    26   18   19 1   
    27   18   36 1   
    28   19   37 1   
    29   20   21 1   
    30   20   38 1   
    31   21   39 1   
    32   22   23 1   
    33   23   24 1   
    34   24   40 1   
    35   24   41 1   
    36   24   42 1   
@<TRIPOS>SUBSTRUCTURE
     1 FXE         1 TEMP              0 ****  ****    0 ROOT
