@<TRIPOS>MOLECULE
FXE
   42    44     1     0     0
SMALL
bcc


@<TRIPOS>ATOM
      1 CAA         0.3240   -0.3000   -0.4170 c3        1 FXE      0.116700
      2 OAB         1.7140   -0.0820   -0.1930 os        1 FXE     -0.342900
      3 CAE         2.1270   -0.0930    1.1240 ca        1 FXE      0.196100
      4 CAF         3.5020    0.0790    1.3360 ca        1 FXE     -0.266900
      5 CAD         1.2860   -0.2570    2.2240 ca        1 FXE     -0.248000
      6 CAN         1.8140   -0.2490    3.5280 ca        1 FXE     -0.059000
      7 CAO         3.1630   -0.0830    3.7850 ca        1 FXE     -0.179000
      8 CAP         4.0180    0.0830    2.6800 ca        1 FXE     -0.001200
      9 NAQ         5.4080    0.2360    2.5690 na        1 FXE      0.086900
     10 CAV         6.2950    0.4390    3.6860 c3        1 FXE      0.051600
     11 NAR         5.8030    0.3820    1.2810 nc        1 FXE     -0.499100
     12 CAG         4.6920    0.2720    0.4920 cd        1 FXE      0.432500
     13 NAH         4.6150    0.3970   -0.8950 ns        1 FXE     -0.449400
     14 CAI         5.6650   -0.0080   -1.7570 c         1 FXE      0.757100
     15 OAC         6.7720   -0.3810   -1.3220 o         1 FXE     -0.580100
     16 NAJ         5.3670    0.0010   -3.1450 ns        1 FXE     -0.439100
     17 CAK         6.4000   -0.0010   -4.1090 ca        1 FXE      0.030600
     18 CAL         7.5240   -0.8390   -3.9900 ca        1 FXE     -0.103000
     19 CAM         8.4910   -0.8810   -4.9930 ca        1 FXE     -0.142000
     20 CAU         8.3620   -0.1020   -6.1370 ca        1 FXE     -0.116000
     21 CAT         7.2600    0.7390   -6.2870 ca        1 FXE     -0.185000
     22 CAS         6.2900    0.8010   -5.2860 ca        1 FXE      0.082100
     23 OAW         5.1650    1.6090   -5.3620 os        1 FXE     -0.349900
     24 CAX         5.0750    2.4620   -6.4960 c3        1 FXE      0.120700
     25 HAA1        0.2330   -0.2710   -1.5320 h1        1 FXE      0.048367
     26 HAA2        0.0140   -1.2970   -0.0200 h1        1 FXE      0.048367
     27 HAA3       -0.2800    0.5150    0.0500 h1        1 FXE      0.048367
     28 HAD         0.2050   -0.3950    2.0900 ha        1 FXE      0.139000
     29 HAN         1.1180   -0.3800    4.3720 ha        1 FXE      0.133000
     30 HAO         3.5560   -0.0790    4.8090 ha        1 FXE      0.141000
     31 HAV1        6.3260    1.5260    3.9700 h1        1 FXE      0.055700
     32 HAV2        5.9120   -0.1620    4.5530 h1        1 FXE      0.055700
     33 HAV3        7.3320    0.1010    3.4210 h1        1 FXE      0.055700
     34 HAH         3.6760    0.3710   -1.2380 hn        1 FXE      0.334500
     35 HAJ         4.5660    0.5280   -3.4290 hn        1 FXE      0.314500
     36 HAL         7.6530   -1.4570   -3.0850 ha        1 FXE      0.172000
     37 HAM         9.3630   -1.5420   -4.8700 ha        1 FXE      0.137000
     38 HAU         9.1270   -0.1410   -6.9260 ha        1 FXE      0.133000
     39 HAT         7.1690    1.3530   -7.1950 ha        1 FXE      0.136000
     40 HAX1        4.1290    3.0330   -6.3160 h1        1 FXE      0.044700
     41 HAX2        5.9500    3.1540   -6.5420 h1        1 FXE      0.044700
     42 HAX3        4.9990    1.8610   -7.4340 h1        1 FXE      0.044700
@<TRIPOS>BOND
     1    1    2 1   
     2    1   25 1   
     3    1   26 1   
     4    1   27 1   
     5    2    3 1   
     6    3    4 ar  
     7    3    5 ar  
     8    4    8 ar  
     9    4   12 1   
    10    5    6 ar  
    11    5   28 1   
    12    6    7 ar  
    13    6   29 1   
    14    7    8 ar  
    15    7   30 1   
    16    8    9 1   
    17    9   10 1   
    18    9   11 1   
    19   10   31 1   
    20   10   32 1   
    21   10   33 1   
    22   11   12 2   
    23   12   13 1   
    24   13   14 1   
    25   13   34 1   
    26   14   15 2   
    27   14   16 1   
    28   16   17 1   
    29   16   35 1   
    30   17   18 ar  
    31   17   22 ar  
    32   18   19 ar  
    33   18   36 1   
    34   19   20 ar  
    35   19   37 1   
    36   20   21 ar  
    37   20   38 1   
    38   21   22 ar  
    39   21   39 1   
    40   22   23 1   
    41   23   24 1   
    42   24   40 1   
    43   24   41 1   
    44   24   42 1   
@<TRIPOS>SUBSTRUCTURE
     1 FXE         1 TEMP              0 ****  ****    0 ROOT
