@<TRIPOS>MOLECULE
FXE
   42    44     1     0     0
SMALL
bcc


@<TRIPOS>ATOM
      1 CAA         0.3250   -0.3220   -0.4090 c3        1 FXE      0.116700
      2 OAB         1.7140   -0.0930   -0.1880 os        1 FXE     -0.342900
      3 CAE         2.1290   -0.0980    1.1280 ca        1 FXE      0.196100
      4 CAF         3.5040    0.0830    1.3370 ca        1 FXE     -0.266900
      5 CAD         1.2920   -0.2640    2.2300 ca        1 FXE     -0.248000
      6 CAN         1.8220   -0.2490    3.5330 ca        1 FXE     -0.059000
      7 CAO         3.1710   -0.0740    3.7870 ca        1 FXE     -0.179000
      8 CAP         4.0230    0.0940    2.6800 ca        1 FXE     -0.001200
      9 NAQ         5.4110    0.2560    2.5660 na        1 FXE      0.086900
     10 CAV         6.2990    0.4650    3.6800 c3        1 FXE      0.051600
     11 NAR         5.8020    0.4000    1.2770 nc        1 FXE     -0.499100
     12 CAG         4.6910    0.2800    0.4900 cd        1 FXE      0.432500
     13 NAH         4.6110    0.4010   -0.8970 n         1 FXE     -0.449400
     14 CAI         5.6600   -0.0060   -1.7600 c         1 FXE      0.757100
     15 OAC         6.7670   -0.3800   -1.3240 o         1 FXE     -0.580100
     16 NAJ         5.3610    0.0020   -3.1480 n         1 FXE     -0.439100
     17 CAK         6.3930   -0.0060   -4.1120 ca        1 FXE      0.030600
     18 CAL         7.5140   -0.8480   -3.9930 ca        1 FXE     -0.103000
     19 CAM         8.4800   -0.8950   -4.9970 ca        1 FXE     -0.142000
     20 CAU         8.3530   -0.1170   -6.1420 ca        1 FXE     -0.116000
     21 CAT         7.2540    0.7280   -6.2930 ca        1 FXE     -0.185000
     22 CAS         6.2840    0.7950   -5.2910 ca        1 FXE      0.082100
     23 OAW         5.1610    1.6060   -5.3670 os        1 FXE     -0.349900
     24 CAX         5.0840    2.4720   -6.4920 c3        1 FXE      0.120700
     25 HAA1       -0.2840    0.4900    0.0570 h1        1 FXE      0.048367
     26 HAA2        0.0230   -1.3200   -0.0080 h1        1 FXE      0.048367
     27 HAA3        0.2320   -0.2980   -1.5240 h1        1 FXE      0.048367
     28 HAD         0.2110   -0.4090    2.0990 ha        1 FXE      0.139000
     29 HAN         1.1280   -0.3820    4.3790 ha        1 FXE      0.133000
     30 HAO         3.5660   -0.0640    4.8100 ha        1 FXE      0.140000
     31 HAV1        7.3370    0.1320    3.4140 h1        1 FXE      0.056033
     32 HAV2        6.3250    1.5530    3.9620 h1        1 FXE      0.056033
     33 HAV3        5.9210   -0.1350    4.5490 h1        1 FXE      0.056033
     34 HAH         3.6710    0.3720   -1.2380 hn        1 FXE      0.334500
     35 HAJ         4.5610    0.5310   -3.4320 hn        1 FXE      0.314500
     36 HAL         7.6410   -1.4650   -3.0870 ha        1 FXE      0.171000
     37 HAM         9.3490   -1.5590   -4.8740 ha        1 FXE      0.137000
     38 HAU         9.1170   -0.1610   -6.9310 ha        1 FXE      0.133000
     39 HAT         7.1640    1.3400   -7.2010 ha        1 FXE      0.136000
     40 HAX1        4.1430    3.0510   -6.3090 h1        1 FXE      0.044700
     41 HAX2        5.9670    3.1560   -6.5280 h1        1 FXE      0.044700
     42 HAX3        5.0050    1.8820   -7.4380 h1        1 FXE      0.044700
@<TRIPOS>BOND
     1    1    2 1   
     2    1   25 1   
     3    1   26 1   
     4    1   27 1   
     5    2    3 1   
     6    3    4 ar  
     7    3    5 ar  
     8    4    8 ar  
     9    4   12 1   
    10    5    6 ar  
    11    5   28 1   
    12    6    7 ar  
    13    6   29 1   
    14    7    8 ar  
    15    7   30 1   
    16    8    9 1   
    17    9   10 1   
    18    9   11 1   
    19   10   31 1   
    20   10   32 1   
    21   10   33 1   
    22   11   12 2   
    23   12   13 1   
    24   13   14 1   
    25   13   34 1   
    26   14   15 2   
    27   14   16 1   
    28   16   17 1   
    29   16   35 1   
    30   17   18 ar  
    31   17   22 ar  
    32   18   19 ar  
    33   18   36 1   
    34   19   20 ar  
    35   19   37 1   
    36   20   21 ar  
    37   20   38 1   
    38   21   22 ar  
    39   21   39 1   
    40   22   23 1   
    41   23   24 1   
    42   24   40 1   
    43   24   41 1   
    44   24   42 1   
@<TRIPOS>SUBSTRUCTURE
     1 FXE         1 TEMP              0 ****  ****    0 ROOT
