@<TRIPOS>MOLECULE
FXE
   44    46     1     0     0
SMALL
bcc


@<TRIPOS>ATOM
      1 CAA         1.2090    0.3560   -1.3860 c3        1 FXE      0.114700
      2 OAB         2.5610    0.5090   -0.9220 os        1 FXE     -0.436900
      3 CAE         2.8930   -0.2230    0.2070 ca        1 FXE      0.114100
      4 CAF         4.0490    0.2030    0.8760 ca        1 FXE     -0.227900
      5 CAD         2.2090   -1.3310    0.6960 ca        1 FXE     -0.135000
      6 CAN         2.6810   -2.0130    1.8360 ca        1 FXE     -0.051000
      7 CAO         3.8270   -1.6290    2.5200 ca        1 FXE     -0.100000
      8 CAP         4.5160   -0.5060    2.0370 ca        1 FXE     -0.039200
      9 NAQ         5.6820    0.1810    2.4790 na        1 FXE      0.192900
     10 CAV         6.4370   -0.1960    3.6700 c3        1 FXE      0.013600
     11 NAR         5.9580    1.2250    1.7320 nc        1 FXE     -0.388100
     12 CAG         4.9970    1.2930    0.7340 cd        1 FXE      0.216800
     13 NAH         4.8750    2.3460   -0.2400 n4        1 FXE     -0.520800
     14 CAI         5.5240    1.9680   -1.5530 c         1 FXE      0.477100
     15 OAC         6.2950    2.7480   -2.0800 o         1 FXE     -0.291100
     16 NAJ         5.1570    0.6270   -2.1130 n4        1 FXE     -0.456200
     17 CAK         5.9530    0.2730   -3.2830 ca        1 FXE     -0.145400
     18 CAL         7.1470   -0.4690   -3.1260 ca        1 FXE     -0.065000
     19 CAM         7.8680   -0.8430   -4.2460 ca        1 FXE     -0.125000
     20 CAU         7.4310   -0.4770   -5.5300 ca        1 FXE      0.001000
     21 CAT         6.2680    0.2620   -5.7000 ca        1 FXE     -0.181000
     22 CAS         5.5180    0.6560   -4.5800 ca        1 FXE      0.203100
     23 OAW         4.3610    1.3890   -4.6300 os        1 FXE     -0.376900
     24 CAX         3.8840    1.7700   -5.9320 c3        1 FXE      0.115700
     25 HAA1        1.1110    1.1500   -2.1690 h1        1 FXE      0.075700
     26 HAA2        1.0780   -0.6620   -1.8260 h1        1 FXE      0.075700
     27 HAA3        0.4890    0.5280   -0.5500 h1        1 FXE      0.075700
     28 HAD         1.2860   -1.6840    0.2060 ha        1 FXE      0.181000
     29 HAN         2.1070   -2.8880    2.1980 ha        1 FXE      0.189000
     30 HAO         4.1730   -2.1770    3.4100 ha        1 FXE      0.186000
     31 HAV1        7.4660    0.2570    3.6480 h1        1 FXE      0.103367
     32 HAV2        6.5110   -1.3160    3.6880 h1        1 FXE      0.103367
     33 HAV3        5.8830    0.1720    4.5770 h1        1 FXE      0.103367
     34 HAH         3.8610    2.5080   -0.3940 hn        1 FXE      0.512300
     35 HAJ         4.1500    0.6580   -2.3890 hn        1 FXE      0.505800
     36 HAL         7.5050   -0.7610   -2.1240 ha        1 FXE      0.157000
     37 HAM         8.7950   -1.4320   -4.1310 ha        1 FXE      0.189000
     38 HAU         8.0240   -0.7790   -6.4140 ha        1 FXE      0.190000
     39 HAT         5.9360    0.5460   -6.7140 ha        1 FXE      0.188000
     40 HAX1        2.9500    2.3410   -5.6940 h1        1 FXE      0.079700
     41 HAX2        4.6360    2.4230   -6.4380 h1        1 FXE      0.079700
     42 HAX3        3.6560    0.8600   -6.5380 h1        1 FXE      0.079700
     43 HAH2        5.3230    3.2230    0.0950 hn        1 FXE      0.512300
     44 HAJ2        5.2740   -0.0910   -1.3760 hn        1 FXE      0.505800
@<TRIPOS>BOND
     1    1    2 1   
     2    1   25 1   
     3    1   26 1   
     4    1   27 1   
     5    2    3 1   
     6    3    4 ar  
     7    3    5 ar  
     8    4    8 ar  
     9    4   12 1   
    10    5    6 ar  
    11    5   28 1   
    12    6    7 ar  
    13    6   29 1   
    14    7    8 ar  
    15    7   30 1   
    16    8    9 1   
    17    9   10 1   
    18    9   11 1   
    19   10   31 1   
    20   10   32 1   
    21   10   33 1   
    22   11   12 2   
    23   12   13 1   
    24   13   14 1   
    25   13   34 1   
    26   13   43 1   
    27   14   15 2   
    28   14   16 1   
    29   16   17 1   
    30   16   35 1   
    31   16   44 1   
    32   17   18 ar  
    33   17   22 ar  
    34   18   19 ar  
    35   18   36 1   
    36   19   20 ar  
    37   19   37 1   
    38   20   21 ar  
    39   20   38 1   
    40   21   22 ar  
    41   21   39 1   
    42   22   23 1   
    43   23   24 1   
    44   24   40 1   
    45   24   41 1   
    46   24   42 1   
@<TRIPOS>SUBSTRUCTURE
     1 FXE         1 TEMP              0 ****  ****    0 ROOT
