@<TRIPOS>MOLECULE
FXE
   42    44     1     0     0
SMALL
bcc


@<TRIPOS>ATOM
      1 CAA        -2.8430    3.5250   -0.9170 c3        1 FXE      0.116700
      2 OAB        -2.3700    2.2480   -0.4980 os        1 FXE     -0.342900
      3 CAE        -3.3370    1.2960   -0.2410 ca        1 FXE      0.194100
      4 CAF        -2.8670    0.0340    0.1470 ca        1 FXE     -0.264900
      5 CAD        -4.7120    1.5070   -0.3370 ca        1 FXE     -0.245000
      6 CAN        -5.6120    0.4670   -0.0380 ca        1 FXE     -0.060000
      7 CAO        -5.1910   -0.7910    0.3580 ca        1 FXE     -0.177000
      8 CAP        -3.8050   -1.0120    0.4530 ca        1 FXE     -0.005200
      9 NAQ        -3.0460   -2.1210    0.8670 na        1 FXE      0.090900
     10 CAV        -3.5810   -3.4580    0.9570 c3        1 FXE      0.046600
     11 NAR        -1.7140   -1.8800    0.7740 nc        1 FXE     -0.502100
     12 CAG        -1.5500   -0.5870    0.3690 cd        1 FXE      0.434500
     13 NAH        -0.3550    0.1240    0.2570 n         1 FXE     -0.450400
     14 CAI         0.8510   -0.4860   -0.1730 c         1 FXE      0.758100
     15 OAC         0.9300   -1.7120   -0.3850 o         1 FXE     -0.581100
     16 NAJ         1.9480    0.3890   -0.3860 n         1 FXE     -0.439100
     17 CAK         3.2690   -0.1040   -0.4440 ca        1 FXE      0.030600
     18 CAL         3.5970   -1.2710   -1.1600 ca        1 FXE     -0.103000
     19 CAM         4.9200   -1.6940   -1.2680 ca        1 FXE     -0.142000
     20 CAU         5.9480   -0.9680   -0.6760 ca        1 FXE     -0.116000
     21 CAT         5.6600    0.1930    0.0400 ca        1 FXE     -0.184000
     22 CAS         4.3380    0.6230    0.1660 ca        1 FXE      0.082100
     23 OAW         3.9710    1.7700    0.8540 os        1 FXE     -0.349900
     24 CAX         5.0040    2.4330    1.5720 c3        1 FXE      0.120700
     25 HAA1       -3.4190    3.4370   -1.8700 h1        1 FXE      0.048367
     26 HAA2       -3.4700    3.9910   -0.1200 h1        1 FXE      0.048367
     27 HAA3       -1.9020    4.1100   -1.0760 h1        1 FXE      0.048367
     28 HAD        -5.1120    2.4820   -0.6440 ha        1 FXE      0.139000
     29 HAN        -6.6910    0.6700   -0.1260 ha        1 FXE      0.134000
     30 HAO        -5.9080   -1.5880    0.5910 ha        1 FXE      0.141000
     31 HAV1       -3.6350   -3.9390   -0.0570 h1        1 FXE      0.055700
     32 HAV2       -2.9290   -4.0830    1.6230 h1        1 FXE      0.055700
     33 HAV3       -4.6120   -3.3900    1.3930 h1        1 FXE      0.055700
     34 HAH        -0.4930    1.0970    0.0730 hn        1 FXE      0.335500
     35 HAJ         1.8840    1.2980    0.0290 hn        1 FXE      0.315500
     36 HAL         2.7960   -1.8690   -1.6270 ha        1 FXE      0.171000
     37 HAM         5.1460   -2.6130   -1.8290 ha        1 FXE      0.137000
     38 HAU         6.9910   -1.3050   -0.7670 ha        1 FXE      0.133000
     39 HAT         6.4790    0.7590    0.5040 ha        1 FXE      0.136000
     40 HAX1        5.4800    1.7440    2.3110 h1        1 FXE      0.044700
     41 HAX2        5.7690    2.8430    0.8680 h1        1 FXE      0.044700
     42 HAX3        4.4650    3.2640    2.0950 h1        1 FXE      0.044700
@<TRIPOS>BOND
     1    1    2 1   
     2    1   25 1   
     3    1   26 1   
     4    1   27 1   
     5    2    3 1   
     6    3    4 ar  
     7    3    5 ar  
     8    4    8 ar  
     9    4   12 1   
    10    5    6 ar  
    11    5   28 1   
    12    6    7 ar  
    13    6   29 1   
    14    7    8 ar  
    15    7   30 1   
    16    8    9 1   
    17    9   10 1   
    18    9   11 1   
    19   10   31 1   
    20   10   32 1   
    21   10   33 1   
    22   11   12 2   
    23   12   13 1   
    24   13   14 1   
    25   13   34 1   
    26   14   15 2   
    27   14   16 1   
    28   16   17 1   
    29   16   35 1   
    30   17   18 ar  
    31   17   22 ar  
    32   18   19 ar  
    33   18   36 1   
    34   19   20 ar  
    35   19   37 1   
    36   20   21 ar  
    37   20   38 1   
    38   21   22 ar  
    39   21   39 1   
    40   22   23 1   
    41   23   24 1   
    42   24   40 1   
    43   24   41 1   
    44   24   42 1   
@<TRIPOS>SUBSTRUCTURE
     1 FXE         1 TEMP              0 ****  ****    0 ROOT
