@<TRIPOS>MOLECULE
FXG
   63    65     1     0     0
SMALL
bcc


@<TRIPOS>ATOM
      1 O18        -0.8780   -1.1420    0.4830 o         1 FXG     -0.380100
      2 C16         0.3310   -1.1570    0.6130 c         1 FXG      0.554100
      3 C15         1.1730   -0.7670    1.7940 c3        1 FXG     -0.150400
      4 C14         0.3030   -0.5900    3.0310 c3        1 FXG     -0.083400
      5 C13         1.1510   -0.1620    4.2150 c3        1 FXG     -0.078400
      6 C12         0.2900    0.0050    5.4550 c3        1 FXG     -0.109400
      7 C11         1.1670    0.4550    6.6200 c3        1 FXG      0.107800
      8 N10         0.3830    0.6760    7.8740 n4        1 FXG     -0.739700
      9 C6          1.2370    1.0230    9.0340 ca        1 FXG      0.520200
     10 C1          1.0340    0.3450   10.2490 ca        1 FXG     -0.134200
     11 C2          1.8940    0.7870   11.3770 ca        1 FXG      0.459800
     12 N9          1.5000   -0.0140   12.4560 na        1 FXG     -0.352000
     13 C8          0.4820   -0.8580   11.9790 cc        1 FXG      0.520700
     14 N7          0.1810   -0.6760   10.6770 nd        1 FXG     -0.596100
     15 N3          2.8210    1.7670   11.2620 nb        1 FXG     -0.600000
     16 C4          2.8950    2.3130   10.0200 ca        1 FXG      0.675900
     17 N5          2.1660    2.0040    8.9080 nb        1 FXG     -0.693000
     18 N17         1.1270   -1.6710   -0.6020 n4        1 FXG     -0.563200
     19 C19         0.6340   -1.1900   -1.8960 ca        1 FXG     -0.047400
     20 C20         1.3710   -0.2210   -2.6070 ca        1 FXG     -0.045000
     21 C21         0.9070    0.2140   -3.8470 ca        1 FXG     -0.090000
     22 C22        -0.2700   -0.3000   -4.3930 ca        1 FXG     -0.040000
     23 C23        -1.0010   -1.2650   -3.6890 ca        1 FXG     -0.169600
     24 C24        -0.5560   -1.7090   -2.4310 ca        1 FXG     -0.017000
     25 C25        -2.2670   -1.8560   -4.1730 c         1 FXG      0.551700
     26 O27        -3.0450   -2.5100   -3.4910 o         1 FXG     -0.386100
     27 N26        -2.6270   -1.6490   -5.6180 n4        1 FXG     -0.668800
     28 C28        -3.7580   -2.5300   -6.0790 c3        1 FXG      0.108800
     29 C29        -4.1070   -2.2880   -7.5410 c3        1 FXG     -0.113400
     30 C30        -5.2490   -3.2110   -7.9340 c3        1 FXG     -0.074400
     31 C31        -5.6260   -3.0010   -9.3790 c3        1 FXG     -0.103100
     32 H15         1.6960    0.2010    1.5520 hc        1 FXG      0.111200
     33 H15A        1.9580   -1.5480    1.9920 hc        1 FXG      0.111200
     34 H14        -0.2210   -1.5550    3.2650 hc        1 FXG      0.080200
     35 H14A       -0.4880    0.1800    2.8270 hc        1 FXG      0.080200
     36 H13         1.9460   -0.9300    4.4110 hc        1 FXG      0.066200
     37 H13A        1.6670    0.8070    3.9810 hc        1 FXG      0.066200
     38 H12        -0.2140   -0.9680    5.6960 hc        1 FXG      0.073200
     39 H12A       -0.5120    0.7650    5.2530 hc        1 FXG      0.073200
     40 H11         1.9520   -0.3240    6.8430 hx        1 FXG      0.120700
     41 H11A        1.6900    1.4220    6.3580 hx        1 FXG      0.120700
     42 HN10       -0.2870    1.4440    7.7290 hn        1 FXG      0.471800
     43 H8         -0.0110   -1.5960   12.6400 h5        1 FXG      0.118800
     44 H4          3.6480    3.1270    9.8890 h5        1 FXG      0.105100
     45 HN17        2.1130   -1.3990   -0.4970 hn        1 FXG      0.472300
     46 H20         2.3130    0.2020   -2.2100 ha        1 FXG      0.182000
     47 H21         1.4840    0.9780   -4.4050 ha        1 FXG      0.206000
     48 H22        -0.5970    0.0860   -5.3740 ha        1 FXG      0.166000
     49 H24        -1.1630   -2.4500   -1.8740 ha        1 FXG      0.195000
     50 HN26       -1.8030   -1.8350   -6.2030 hn        1 FXG      0.465800
     51 H28        -4.6500   -2.3180   -5.4200 hx        1 FXG      0.120200
     52 H28A       -3.4420   -3.6010   -5.9180 hx        1 FXG      0.120200
     53 H29        -3.2230   -2.4950   -8.2010 hc        1 FXG      0.070700
     54 H29A       -4.4210   -1.2230   -7.7040 hc        1 FXG      0.070700
     55 H30A       -4.9440   -4.2790   -7.7740 hc        1 FXG      0.059700
     56 H31B       -6.4660   -3.6860   -9.6520 hc        1 FXG      0.058700
     57 H31A       -5.9580   -1.9500   -9.5570 hc        1 FXG      0.058700
     58 HN9         1.8700    0.0280   13.3780 hn        1 FXG      0.361700
     59 H30B       -6.1380   -3.0100   -7.2790 hc        1 FXG      0.059700
     60 H31C       -4.7630   -3.2200  -10.0530 hc        1 FXG      0.058700
     61 H102       -0.1440   -0.1770    8.1100 hn        1 FXG      0.471800
     62 H172        1.0760   -2.7010   -0.6000 hn        1 FXG      0.472300
     63 H262       -2.9020   -0.6670   -5.7540 hn        1 FXG      0.465800
@<TRIPOS>BOND
     1    1    2 2   
     2    2    3 1   
     3    2   18 1   
     4    3    4 1   
     5    3   32 1   
     6    3   33 1   
     7    4    5 1   
     8    4   34 1   
     9    4   35 1   
    10    5    6 1   
    11    5   36 1   
    12    5   37 1   
    13    6    7 1   
    14    6   38 1   
    15    6   39 1   
    16    7    8 1   
    17    7   40 1   
    18    7   41 1   
    19    8    9 1   
    20    8   42 1   
    21    8   61 1   
    22    9   10 ar  
    23    9   17 ar  
    24   10   11 ar  
    25   10   14 1   
    26   11   12 1   
    27   11   15 ar  
    28   12   13 1   
    29   12   58 1   
    30   13   14 2   
    31   13   43 1   
    32   15   16 ar  
    33   16   17 ar  
    34   16   44 1   
    35   18   19 1   
    36   18   45 1   
    37   18   62 1   
    38   19   20 ar  
    39   19   24 ar  
    40   20   21 ar  
    41   20   46 1   
    42   21   22 ar  
    43   21   47 1   
    44   22   23 ar  
    45   22   48 1   
    46   23   24 ar  
    47   23   25 1   
    48   24   49 1   
    49   25   26 2   
    50   25   27 1   
    51   27   28 1   
    52   27   50 1   
    53   27   63 1   
    54   28   29 1   
    55   28   51 1   
    56   28   52 1   
    57   29   30 1   
    58   29   53 1   
    59   29   54 1   
    60   30   31 1   
    61   30   55 1   
    62   30   59 1   
    63   31   56 1   
    64   31   57 1   
    65   31   60 1   
@<TRIPOS>SUBSTRUCTURE
     1 FXG         1 TEMP              0 ****  ****    0 ROOT
