@<TRIPOS>MOLECULE
FXG
   60    53     1     0     0
SMALL
bcc


@<TRIPOS>ATOM
      1 O18        -0.8380   -3.0900    2.5820 o         1 FXG     -0.352000
      2 C16         0.2660   -2.5220    2.6470 c1        1 FXG      0.310000
      3 C15         0.9740   -2.3620    4.0060 c3        1 FXG     -0.186000
      4 C14         0.0420   -1.5490    4.9930 c3        1 FXG     -0.157000
      5 C13         0.7980   -0.3970    5.5440 c3        1 FXG     -0.163000
      6 C12        -0.1700    0.7730    5.8310 c3        1 FXG     -0.178000
      7 C11         0.5240    2.0460    5.6180 c3        1 FXG     -0.017000
      8 N10        -0.1270    2.7650    4.5350 n3        1 FXG     -0.312000
      9 C6          0.6600    3.6430    3.6480 c2        1 FXG      0.236000
     10 C1          0.5820    3.4970    2.2710 c1        1 FXG     -0.241000
     11 C2          1.1300    4.4480    1.4510 c1        1 FXG      0.057000
     12 N9          0.8260    4.1200    0.1660 n1        1 FXG     -0.189000
     13 C8          0.1010    2.9850    0.1860 c1        1 FXG     -0.045000
     14 N7         -0.0500    2.5980    1.4950 n1        1 FXG     -0.189000
     15 N3          1.7520    5.5390    1.9860 n1        1 FXG     -0.204000
     16 C4          1.8310    5.6870    3.3400 c1        1 FXG      0.019000
     17 N5          1.2770    4.7260    4.1760 n2        1 FXG     -0.264000
     18 N17         0.8660   -2.0050    1.4670 n2        1 FXG     -0.326000
     19 C19         0.1790   -2.1400    0.1740 c2        1 FXG      0.077000
     20 C20        -0.8930   -3.0360    0.0370 c2        1 FXG     -0.136000
     21 C21        -1.5860   -3.1080   -1.1540 c1        1 FXG     -0.113000
     22 C22        -1.2200   -2.2870   -2.2270 c1        1 FXG     -0.137000
     23 C23        -0.1500   -1.3910   -2.0940 c1        1 FXG     -0.099000
     24 C24         0.5450   -1.3190   -0.8990 c2        1 FXG     -0.136000
     25 C25         0.1800   -0.4440   -3.2080 c1        1 FXG      0.356000
     26 O27         1.1680    0.4320   -3.0650 o         1 FXG     -0.407000
     27 N26        -0.5850   -0.4560   -4.3940 n3        1 FXG     -0.371000
     28 C28         0.0530   -0.1810   -5.6700 c3        1 FXG     -0.028000
     29 C29        -0.9200   -0.5500   -6.8240 c3        1 FXG     -0.178000
     30 C30        -0.7460   -1.9900   -7.1940 c3        1 FXG     -0.160000
     31 C31        -1.8570   -2.4120   -8.1240 c3        1 FXG     -0.212000
     32 H15         1.8140   -1.8810    3.8820 hc        1 FXG      0.116000
     33 H15A        1.1490   -3.2090    4.3660 hc        1 FXG      0.116000
     34 H14        -0.7380   -1.2240    4.5120 hc        1 FXG      0.087500
     35 H14A       -0.2400   -2.1180    5.7100 hc        1 FXG      0.087500
     36 H13         1.2320   -0.6630    6.3620 hc        1 FXG      0.088500
     37 H13A        1.4720   -0.1120    4.8930 hc        1 FXG      0.088500
     38 H12        -0.8840    0.7210    5.2650 hc        1 FXG      0.094000
     39 H12A       -0.4910    0.7200    6.7810 hc        1 FXG      0.094000
     40 H11         0.4850    2.5930    6.4550 h1        1 FXG      0.096000
     41 H11A        1.4500    1.8750    5.3830 h1        1 FXG      0.096000
     42 HN10       -0.9840    2.6210    4.3650 hn        1 FXG      0.245000
     43 H8         -0.2250    2.5290   -0.5610 DU        1 FXG      0.255500
     44 H4          2.3010    6.5100    3.7410 ha        1 FXG      0.188000
     45 HN17        1.6660   -1.5960    1.5100 hn        1 FXG      0.245000
     46 H20        -1.1480   -3.6040    0.7790 ha        1 FXG      0.176000
     47 H21        -2.3230   -3.7240   -1.2480 ha        1 FXG      0.139000
     48 H22        -1.7420   -2.3430   -3.1230 ha        1 FXG      0.132000
     49 H24         1.3540   -0.6440   -0.7970 ha        1 FXG      0.162000
     50 HN26       -1.5310   -0.5450   -4.3460 hn        1 FXG      0.227000
     51 H28         0.8700   -0.7080   -5.7490 h1        1 FXG      0.098500
     52 H28A        0.2610    0.7240   -5.7220 h1        1 FXG      0.098500
     53 H29        -1.7950   -0.4050   -6.5440 hc        1 FXG      0.086000
     54 H29A       -0.7410   -0.0250   -7.5520 hc        1 FXG      0.086000
     55 H30A       -0.7730   -2.5430   -6.3820 hc        1 FXG      0.082500
     56 H31B       -1.9100   -1.7760   -8.8950 hc        1 FXG      0.073333
     57 H31A       -1.6780   -3.2870   -8.4480 hc        1 FXG      0.073333
     58 HN9         1.0890    4.6240   -0.6350 DU        1 FXG      0.255500
     59 H30B        0.1870   -2.1180   -7.6830 hc        1 FXG      0.082500
     60 H31C       -2.7410   -2.4120   -7.6210 hc        1 FXG      0.073333
@<TRIPOS>BOND
     1    1    2 1   
     2    2    3 1   
     3    3    4 1   
     4    3   32 1   
     5    3   33 1   
     6    4    5 1   
     7    4   34 1   
     8    4   35 1   
     9    5    6 1   
    10    5   36 1   
    11    5   37 1   
    12    6    7 1   
    13    6   38 1   
    14    6   39 1   
    15    7    8 1   
    16    7   40 1   
    17    7   41 1   
    18    8    9 1   
    19    8   42 1   
    20    9   10 1   
    21    9   17 1   
    22   11   15 1   
    23   12   13 1   
    24   13   14 1   
    25   16   17 1   
    26   16   44 1   
    27   18   19 1   
    28   18   45 1   
    29   19   20 1   
    30   19   24 1   
    31   20   21 1   
    32   20   46 1   
    33   21   47 1   
    34   22   23 1   
    35   22   48 1   
    36   23   24 1   
    37   24   49 1   
    38   25   26 1   
    39   25   27 1   
    40   27   28 1   
    41   27   50 1   
    42   28   29 1   
    43   28   51 1   
    44   28   52 1   
    45   29   30 1   
    46   29   53 1   
    47   29   54 1   
    48   30   31 1   
    49   30   55 1   
    50   30   59 1   
    51   31   56 1   
    52   31   57 1   
    53   31   60 1   
@<TRIPOS>SUBSTRUCTURE
     1 FXG         1 TEMP              0 ****  ****    0 ROOT
