@<TRIPOS>MOLECULE
FXG
   60    62     1     0     0
SMALL
bcc


@<TRIPOS>ATOM
      1 O18        -1.5980    0.2110    0.1220 o         1 FXG     -0.577100
      2 C16        -1.3520    1.4170   -0.0470 c         1 FXG      0.664100
      3 C15         0.0710    1.9450   -0.1420 c3        1 FXG     -0.152400
      4 C14         1.0720    0.8190    0.0010 c3        1 FXG     -0.075400
      5 C13         2.4890    1.3420   -0.0970 c3        1 FXG     -0.077400
      6 C12         3.4890    0.2150    0.0490 c3        1 FXG     -0.096400
      7 C11         4.9090    0.7720   -0.0540 c3        1 FXG      0.219800
      8 N10         5.9200   -0.2420    0.0850 nh        1 FXG     -0.862900
      9 C6          7.2620    0.0370    0.0070 ca        1 FXG      0.764200
     10 C1          8.2150   -1.0380    0.0770 ca        1 FXG     -0.233200
     11 C2          9.6280   -0.6800    0.0230 ca        1 FXG      0.453800
     12 N9         10.3200   -1.8920    0.1110 na        1 FXG     -0.379000
     13 C8          9.3360   -2.9010    0.2110 cc        1 FXG      0.397700
     14 N7          8.0800   -2.4290    0.1940 nd        1 FXG     -0.541100
     15 N3         10.0840    0.6050   -0.0930 nb        1 FXG     -0.736000
     16 C4          9.0770    1.5060   -0.1530 ca        1 FXG      0.686900
     17 N5          7.7290    1.3240   -0.1160 nb        1 FXG     -0.796000
     18 N17        -2.3530    2.3770   -0.1670 n         1 FXG     -0.479100
     19 C19        -3.7390    2.1630   -0.1070 ca        1 FXG      0.066600
     20 C20        -4.5870    3.2730    0.1230 ca        1 FXG     -0.169000
     21 C21        -5.9660    3.1070    0.1680 ca        1 FXG     -0.109000
     22 C22        -6.5380    1.8480   -0.0030 ca        1 FXG     -0.138000
     23 C23        -5.7090    0.7480   -0.2330 ca        1 FXG     -0.112600
     24 C24        -4.3220    0.8910   -0.2930 ca        1 FXG     -0.103000
     25 C25        -6.2890   -0.6120   -0.4560 c         1 FXG      0.670700
     26 O27        -5.9320   -1.3290   -1.4110 o         1 FXG     -0.596100
     27 N26        -7.2120   -1.0490    0.4750 n         1 FXG     -0.568900
     28 C28        -7.9100   -2.2970    0.3520 c3        1 FXG      0.087000
     29 C29        -9.4150   -2.1580    0.1130 c3        1 FXG     -0.104400
     30 C30       -10.0570   -3.5270    0.0490 c3        1 FXG     -0.078400
     31 C31       -11.5420   -3.4280   -0.1860 c3        1 FXG     -0.093100
     32 H15         0.2100    2.4540   -1.1320 hc        1 FXG      0.065200
     33 H15A        0.2390    2.7080    0.6650 hc        1 FXG      0.065200
     34 H14         0.9170    0.3040    0.9870 hc        1 FXG      0.063700
     35 H14A        0.8860    0.0520   -0.7970 hc        1 FXG      0.063700
     36 H13         2.6370    1.8520   -1.0850 hc        1 FXG      0.043200
     37 H13A        2.6660    2.1080    0.7030 hc        1 FXG      0.043200
     38 H12         3.3420   -0.2940    1.0380 hc        1 FXG      0.052200
     39 H12A        3.3130   -0.5500   -0.7520 hc        1 FXG      0.052200
     40 H11         5.0290    1.2920   -1.0490 h1        1 FXG      0.053200
     41 H11A        5.0610    1.5490    0.7510 h1        1 FXG      0.053200
     42 HN10        5.6440   -1.1970    0.1030 hn        1 FXG      0.457800
     43 H8          9.6140   -3.9580    0.2930 h5        1 FXG      0.072800
     44 H4          9.3950    2.5670   -0.2510 h5        1 FXG      0.051100
     45 HN17       -2.0670    3.3280   -0.2280 hn        1 FXG      0.315500
     46 H20        -4.1640    4.2790    0.2650 ha        1 FXG      0.131000
     47 H21        -6.6110    3.9820    0.3410 ha        1 FXG      0.136000
     48 H22        -7.6310    1.7330    0.0250 ha        1 FXG      0.136000
     49 H24        -3.6990    0.0010   -0.4920 ha        1 FXG      0.189000
     50 HN26       -7.5200   -0.4190    1.1760 hn        1 FXG      0.308500
     51 H28        -7.4550   -2.8860   -0.4970 h1        1 FXG      0.061700
     52 H28A       -7.7500   -2.8810    1.3060 h1        1 FXG      0.061700
     53 H29        -9.8850   -1.5620    0.9380 hc        1 FXG      0.043200
     54 H29A       -9.6020   -1.6090   -0.8460 hc        1 FXG      0.043200
     55 H30A       -9.5840   -4.1230   -0.7770 hc        1 FXG      0.042200
     56 H31B      -12.0350   -2.8580    0.6380 hc        1 FXG      0.033700
     57 H31A      -11.7540   -2.9040   -1.1490 hc        1 FXG      0.033700
     58 HN9        11.2980   -2.0070    0.1040 hn        1 FXG      0.317700
     59 H30B       -9.8630   -4.0790    1.0070 hc        1 FXG      0.042200
     60 H31C      -11.9960   -4.4470   -0.2320 hc        1 FXG      0.033700
@<TRIPOS>BOND
     1    1    2 2   
     2    2    3 1   
     3    2   18 1   
     4    3    4 1   
     5    3   32 1   
     6    3   33 1   
     7    4    5 1   
     8    4   34 1   
     9    4   35 1   
    10    5    6 1   
    11    5   36 1   
    12    5   37 1   
    13    6    7 1   
    14    6   38 1   
    15    6   39 1   
    16    7    8 1   
    17    7   40 1   
    18    7   41 1   
    19    8    9 1   
    20    8   42 1   
    21    9   10 ar  
    22    9   17 ar  
    23   10   11 ar  
    24   10   14 1   
    25   11   12 1   
    26   11   15 ar  
    27   12   13 1   
    28   12   58 1   
    29   13   14 2   
    30   13   43 1   
    31   15   16 ar  
    32   16   17 ar  
    33   16   44 1   
    34   18   19 1   
    35   18   45 1   
    36   19   20 ar  
    37   19   24 ar  
    38   20   21 ar  
    39   20   46 1   
    40   21   22 ar  
    41   21   47 1   
    42   22   23 ar  
    43   22   48 1   
    44   23   24 ar  
    45   23   25 1   
    46   24   49 1   
    47   25   26 2   
    48   25   27 1   
    49   27   28 1   
    50   27   50 1   
    51   28   29 1   
    52   28   51 1   
    53   28   52 1   
    54   29   30 1   
    55   29   53 1   
    56   29   54 1   
    57   30   31 1   
    58   30   55 1   
    59   30   59 1   
    60   31   56 1   
    61   31   57 1   
    62   31   60 1   
@<TRIPOS>SUBSTRUCTURE
     1 FXG         1 TEMP              0 ****  ****    0 ROOT
