@<TRIPOS>MOLECULE
FXG
   61    63     1     0     0
SMALL
bcc


@<TRIPOS>ATOM
      1 O18        -0.0690   -1.1500   -0.3020 o         1 FXG     -0.581100
      2 C16         0.8890   -0.3630   -0.2370 c         1 FXG      0.675100
      3 C15         1.4170    0.2020    1.0670 c3        1 FXG     -0.148400
      4 C14         0.6440   -0.3530    2.2460 c3        1 FXG     -0.075400
      5 C13         1.1800    0.2090    3.5450 c3        1 FXG     -0.079400
      6 C12         0.4190   -0.3510    4.7280 c3        1 FXG     -0.094400
      7 C11         0.9920    0.2260    6.0230 c3        1 FXG      0.215800
      8 N10         0.3400   -0.2880    7.1990 nh        1 FXG     -0.857900
      9 C6          0.7130    0.1130    8.4660 ca        1 FXG      0.752200
     10 C1         -0.0840   -0.2830    9.5940 ca        1 FXG     -0.226200
     11 C2          0.3980    0.1020   10.9170 ca        1 FXG      0.452800
     12 N9         -0.5460   -0.4060   11.8150 na        1 FXG     -0.375000
     13 C8         -1.5280   -1.0520   11.0330 cc        1 FXG      0.405700
     14 N7         -1.2850   -0.9980    9.7130 nd        1 FXG     -0.547100
     15 N3          1.5450    0.8170   11.1300 nb        1 FXG     -0.723000
     16 C4          2.1810    1.1290    9.9790 ca        1 FXG      0.684900
     17 N5          1.8540    0.8420    8.6870 nb        1 FXG     -0.792000
     18 N17         1.5550    0.0640   -1.3960 n         1 FXG     -0.483100
     19 C19         1.2650   -0.3190   -2.7050 ca        1 FXG      0.099600
     20 C20         1.7640    0.4550   -3.7850 ca        1 FXG     -0.131000
     21 C21         1.4950    0.0990   -5.1010 ca        1 FXG     -0.085000
     22 C22         0.7170   -1.0180   -5.3970 ca        1 FXG     -0.138000
     23 C23         0.2270   -1.7930   -4.3400 ca        1 FXG     -0.170600
     24 C24         0.5030   -1.4720   -3.0070 ca        1 FXG     -0.099000
     25 C25        -0.5560   -3.0080   -4.5860 c         1 FXG      0.580700
     26 O27        -0.4340   -4.1300   -4.1230 o         1 FXG     -0.400100
     27 N26        -1.7190   -2.8380   -5.5580 n4        1 FXG     -0.684800
     28 C28        -2.9910   -2.5790   -4.8140 c3        1 FXG      0.104800
     29 C29        -4.1910   -2.4310   -5.7400 c3        1 FXG     -0.109400
     30 C30        -5.4350   -2.1770   -4.9100 c3        1 FXG     -0.077400
     31 C31        -6.6460   -2.0250   -5.7940 c3        1 FXG     -0.100100
     32 H15         1.3290    1.3210    1.0460 hc        1 FXG      0.077700
     33 H15A        2.5050   -0.0580    1.1690 hc        1 FXG      0.077700
     34 H14        -0.4430   -0.1000    2.1350 hc        1 FXG      0.062700
     35 H14A        0.7200   -1.4720    2.2500 hc        1 FXG      0.062700
     36 H13         2.2700   -0.0420    3.6460 hc        1 FXG      0.047700
     37 H13A        1.0960    1.3290    3.5380 hc        1 FXG      0.047700
     38 H12         0.5000   -1.4700    4.7330 hc        1 FXG      0.051700
     39 H12A       -0.6680   -0.0920    4.6340 hc        1 FXG      0.051700
     40 H11         0.9090    1.3520    5.9900 h1        1 FXG      0.053700
     41 H11A        2.0910   -0.0280    6.0860 h1        1 FXG      0.053700
     42 HN10       -0.5790   -0.6560    7.0990 hn        1 FXG      0.448800
     43 H8         -2.3920   -1.5420   11.4970 h5        1 FXG      0.075800
     44 H4          3.1180    1.7150   10.0980 h5        1 FXG      0.054100
     45 HN17        2.2620    0.7580   -1.2890 hn        1 FXG      0.332500
     46 H20         2.3800    1.3500   -3.5890 ha        1 FXG      0.161000
     47 H21         1.9050    0.7100   -5.9230 ha        1 FXG      0.164000
     48 H22         0.5390   -1.2910   -6.4470 ha        1 FXG      0.135000
     49 H24         0.1250   -2.1250   -2.1980 ha        1 FXG      0.196000
     50 HN26       -1.5300   -2.0540   -6.1910 hn        1 FXG      0.454300
     51 H28        -3.1510   -3.4440   -4.1060 hx        1 FXG      0.112200
     52 H28A       -2.8500   -1.6380   -4.2080 hx        1 FXG      0.112200
     53 H29        -4.0360   -1.5760   -6.4500 hc        1 FXG      0.065200
     54 H29A       -4.3350   -3.3620   -6.3490 hc        1 FXG      0.065200
     55 H30A       -5.5930   -3.0290   -4.1960 hc        1 FXG      0.055700
     56 H31B       -6.8190   -2.9510   -6.3950 hc        1 FXG      0.050700
     57 H31A       -6.5220   -1.1660   -6.4960 hc        1 FXG      0.050700
     58 HN9        -0.5190   -0.3250   12.7970 hn        1 FXG      0.322700
     59 H30B       -5.2960   -1.2470   -4.2970 hc        1 FXG      0.055700
     60 H31C       -7.5530   -1.8400   -5.1670 hc        1 FXG      0.050700
     61 H262       -1.8310   -3.6940   -6.1140 hn        1 FXG      0.454300
@<TRIPOS>BOND
     1    1    2 2   
     2    2    3 1   
     3    2   18 1   
     4    3    4 1   
     5    3   32 1   
     6    3   33 1   
     7    4    5 1   
     8    4   34 1   
     9    4   35 1   
    10    5    6 1   
    11    5   36 1   
    12    5   37 1   
    13    6    7 1   
    14    6   38 1   
    15    6   39 1   
    16    7    8 1   
    17    7   40 1   
    18    7   41 1   
    19    8    9 1   
    20    8   42 1   
    21    9   10 ar  
    22    9   17 ar  
    23   10   11 ar  
    24   10   14 1   
    25   11   12 1   
    26   11   15 ar  
    27   12   13 1   
    28   12   58 1   
    29   13   14 2   
    30   13   43 1   
    31   15   16 ar  
    32   16   17 ar  
    33   16   44 1   
    34   18   19 1   
    35   18   45 1   
    36   19   20 ar  
    37   19   24 ar  
    38   20   21 ar  
    39   20   46 1   
    40   21   22 ar  
    41   21   47 1   
    42   22   23 ar  
    43   22   48 1   
    44   23   24 ar  
    45   23   25 1   
    46   24   49 1   
    47   25   26 2   
    48   25   27 1   
    49   27   28 1   
    50   27   50 1   
    51   27   61 1   
    52   28   29 1   
    53   28   51 1   
    54   28   52 1   
    55   29   30 1   
    56   29   53 1   
    57   29   54 1   
    58   30   31 1   
    59   30   55 1   
    60   30   59 1   
    61   31   56 1   
    62   31   57 1   
    63   31   60 1   
@<TRIPOS>SUBSTRUCTURE
     1 FXG         1 TEMP              0 ****  ****    0 ROOT
