@<TRIPOS>MOLECULE
FXG
   61    63     1     0     0
SMALL
bcc


@<TRIPOS>ATOM
      1 O18        -0.0180   -1.2730   -0.3070 o         1 FXG     -0.581100
      2 C16         0.9680   -0.5210   -0.2480 c         1 FXG      0.675100
      3 C15         1.5240    0.0220    1.0540 c3        1 FXG     -0.148400
      4 C14         0.7060   -0.4630    2.2330 c3        1 FXG     -0.075400
      5 C13         1.2560    0.0960    3.5280 c3        1 FXG     -0.079400
      6 C12         0.4370   -0.3780    4.7090 c3        1 FXG     -0.094400
      7 C11         1.0010    0.2220    5.9970 c3        1 FXG      0.213800
      8 N10         0.2500   -0.1570    7.1650 nu        1 FXG     -0.855900
      9 C6          0.6020    0.2880    8.4250 ca        1 FXG      0.750200
     10 C1         -0.0520   -0.2700    9.5760 ca        1 FXG     -0.226200
     11 C2          0.2990    0.2920   10.8770 ca        1 FXG      0.451800
     12 N9         -0.4710   -0.4160   11.8050 na        1 FXG     -0.375000
     13 C8         -1.2290   -1.3450   11.0600 cc        1 FXG      0.405700
     14 N7         -1.0050   -1.2860    9.7380 nd        1 FXG     -0.547100
     15 N3          1.2100    1.2980   11.0490 nb        1 FXG     -0.722000
     16 C4          1.7520    1.7110    9.8820 ca        1 FXG      0.683900
     17 N5          1.5260    1.2850    8.6080 nb        1 FXG     -0.791000
     18 N17         1.6420   -0.1170   -1.4100 ns        1 FXG     -0.483100
     19 C19         1.3230   -0.4790   -2.7190 ca        1 FXG      0.099600
     20 C20         1.8460    0.2790   -3.7980 ca        1 FXG     -0.131000
     21 C21         1.5490   -0.0560   -5.1140 ca        1 FXG     -0.085000
     22 C22         0.7190   -1.1350   -5.4090 ca        1 FXG     -0.138000
     23 C23         0.2060   -1.8960   -4.3520 ca        1 FXG     -0.170600
     24 C24         0.5090   -1.5960   -3.0200 ca        1 FXG     -0.099000
     25 C25        -0.6330   -3.0730   -4.5990 c         1 FXG      0.580700
     26 O27        -0.5530   -4.2040   -4.1500 o         1 FXG     -0.400100
     27 N26        -1.8030   -2.8400   -5.5500 ny        1 FXG     -0.684800
     28 C28        -3.0460   -2.5190   -4.7840 c3        1 FXG      0.104800
     29 C29        -4.2520   -2.3040   -5.6880 c3        1 FXG     -0.109400
     30 C30        -5.4680   -1.9890   -4.8360 c3        1 FXG     -0.077400
     31 C31        -6.6840   -1.7700   -5.6990 c3        1 FXG     -0.100100
     32 H15         2.5900   -0.3120    1.1660 hc        1 FXG      0.077700
     33 H15A        1.5150    1.1450    1.0220 hc        1 FXG      0.077700
     34 H14        -0.3630   -0.1500    2.1020 hc        1 FXG      0.062200
     35 H14A        0.7170   -1.5840    2.2610 hc        1 FXG      0.062200
     36 H13         1.2480    1.2180    3.4900 hc        1 FXG      0.047700
     37 H13A        2.3240   -0.2250    3.6560 hc        1 FXG      0.047700
     38 H12        -0.6330   -0.0690    4.5750 hc        1 FXG      0.052200
     39 H12A        0.4600   -1.4980    4.7590 hc        1 FXG      0.052200
     40 H11         2.0810   -0.0940    6.1050 h1        1 FXG      0.053700
     41 H11A        0.9880    1.3480    5.9160 h1        1 FXG      0.053700
     42 HN10       -0.2790   -0.9990    7.1230 hn        1 FXG      0.447800
     43 H8         -1.9260   -2.0340   11.5530 h5        1 FXG      0.075800
     44 H4          2.5040    2.5260    9.9690 h5        1 FXG      0.054100
     45 HN17        2.3770    0.5480   -1.3060 hn        1 FXG      0.332500
     46 H20         2.5030    1.1450   -3.6030 ha        1 FXG      0.161000
     47 H21         1.9770    0.5420   -5.9360 ha        1 FXG      0.165000
     48 H22         0.5170   -1.3930   -6.4580 ha        1 FXG      0.135000
     49 H24         0.1120   -2.2380   -2.2120 ha        1 FXG      0.196000
     50 HN26       -1.9670   -3.6870   -6.1060 hn        1 FXG      0.454300
     51 H28        -2.8470   -1.5900   -4.1760 hx        1 FXG      0.112200
     52 H28A       -3.2390   -3.3780   -4.0770 hx        1 FXG      0.112200
     53 H29        -4.0650   -1.4550   -6.3980 hc        1 FXG      0.065200
     54 H29A       -4.4550   -3.2240   -6.2980 hc        1 FXG      0.065200
     55 H30A       -5.6580   -2.8350   -4.1230 hc        1 FXG      0.055700
     56 H31B       -6.5260   -0.9150   -6.4000 hc        1 FXG      0.050700
     57 H31A       -7.5680   -1.5390   -5.0560 hc        1 FXG      0.050700
     58 HN9        -0.4770   -0.2820   12.7810 hn        1 FXG      0.322700
     59 H30B       -5.2690   -1.0710   -4.2220 hc        1 FXG      0.055700
     60 H31C       -6.9150   -2.6820   -6.3000 hc        1 FXG      0.050700
     61 H262       -1.5840   -2.0650   -6.1830 hn        1 FXG      0.454300
@<TRIPOS>BOND
     1    1    2 2   
     2    2    3 1   
     3    2   18 1   
     4    3    4 1   
     5    3   32 1   
     6    3   33 1   
     7    4    5 1   
     8    4   34 1   
     9    4   35 1   
    10    5    6 1   
    11    5   36 1   
    12    5   37 1   
    13    6    7 1   
    14    6   38 1   
    15    6   39 1   
    16    7    8 1   
    17    7   40 1   
    18    7   41 1   
    19    8    9 1   
    20    8   42 1   
    21    9   10 ar  
    22    9   17 ar  
    23   10   11 ar  
    24   10   14 1   
    25   11   12 1   
    26   11   15 ar  
    27   12   13 1   
    28   12   58 1   
    29   13   14 2   
    30   13   43 1   
    31   15   16 ar  
    32   16   17 ar  
    33   16   44 1   
    34   18   19 1   
    35   18   45 1   
    36   19   20 ar  
    37   19   24 ar  
    38   20   21 ar  
    39   20   46 1   
    40   21   22 ar  
    41   21   47 1   
    42   22   23 ar  
    43   22   48 1   
    44   23   24 ar  
    45   23   25 1   
    46   24   49 1   
    47   25   26 2   
    48   25   27 1   
    49   27   28 1   
    50   27   50 1   
    51   27   61 1   
    52   28   29 1   
    53   28   51 1   
    54   28   52 1   
    55   29   30 1   
    56   29   53 1   
    57   29   54 1   
    58   30   31 1   
    59   30   55 1   
    60   30   59 1   
    61   31   56 1   
    62   31   57 1   
    63   31   60 1   
@<TRIPOS>SUBSTRUCTURE
     1 FXG         1 TEMP              0 ****  ****    0 ROOT
