@<TRIPOS>MOLECULE
FXI
   70    73     1     0     0
SMALL
bcc


@<TRIPOS>ATOM
      1 N1          2.7310    1.7300   -1.4200 n4        1 FXI     -0.502200
      2 C1          2.5840    1.7140    0.0670 c         1 FXI      0.579100
      3 O1          3.0100    2.6920    0.6790 o         1 FXI     -0.461100
      4 C2          0.6250    3.4690    3.6990 ca        1 FXI     -0.161400
      5 C3         -0.0030    3.3970    4.9600 ca        1 FXI     -0.085500
      6 C4         -1.1750    4.1120    5.1780 ca        1 FXI     -0.101500
      7 C5         -1.7280    4.9060    4.1590 ca        1 FXI      0.095400
      8 C6         -1.0930    4.9660    2.9000 ca        1 FXI     -0.101500
      9 C7          0.0740    4.2570    2.6650 ca        1 FXI     -0.085500
     10 C8          0.0200   -1.0550    2.9580 c3        1 FXI     -0.113400
     11 C9          2.7490   -0.7110    0.9540 cx        1 FXI     -0.034400
     12 C10         1.9000    0.5620    0.7640 cx        1 FXI     -0.124800
     13 N2          0.9930    1.0850    1.8320 n4        1 FXI     -0.510200
     14 C11        -0.2220    0.2230    2.1790 c3        1 FXI      0.105800
     15 C12         1.8070    1.3870    3.0590 c         1 FXI      0.480100
     16 O2          2.3710    0.5150    3.7000 o         1 FXI     -0.309100
     17 N3          1.9200    2.8200    3.5030 n4        1 FXI     -0.488200
     18 CL1        -3.1220    5.7830    4.4350 cl        1 FXI      0.080600
     19 C13        -1.1580   -3.0440    3.8830 c3        1 FXI     -0.106100
     20 C26        -1.3370   -1.7010    3.2230 c3        1 FXI     -0.078400
     21 C14         1.3630    0.6770   -3.2110 ca        1 FXI     -0.055000
     22 C15         1.4410    1.5200   -2.0880 ca        1 FXI     -0.117400
     23 C16         0.2640    2.1390   -1.5840 ca        1 FXI      0.115900
     24 C17        -0.9820    1.7900   -2.1120 ca        1 FXI     -0.108000
     25 C18        -1.0570    0.8120   -3.1170 cp        1 FXI      0.048000
     26 C19         0.1130    0.3360   -3.7260 ca        1 FXI     -0.040000
     27 F1          0.3450    3.0050   -0.5370 f         1 FXI     -0.165900
     28 C20        -3.0920    0.7550   -4.5190 ca        1 FXI     -0.112000
     29 C21        -2.3750    0.2440   -3.4420 cp        1 FXI      0.008000
     30 C22        -2.9000   -0.7890   -2.6250 ca        1 FXI     -0.377500
     31 C25        -4.1990   -1.2290   -2.9200 ca        1 FXI     -0.012000
     32 C23        -4.9320   -0.7120   -3.9900 ca        1 FXI     -0.110000
     33 C24        -4.3750    0.2710   -4.8020 ca        1 FXI     -0.026000
     34 S1         -2.0360   -1.4720   -1.3700 sy        1 FXI      1.385300
     35 C27         1.5930   -0.7530    0.0270 cx        1 FXI     -0.034400
     36 O4         -0.6330   -1.4660   -1.6300 o         1 FXI     -0.723300
     37 O3         -2.2240   -0.7850   -0.1370 o         1 FXI     -0.723300
     38 C29        -2.6150   -3.0310   -1.2880 c3        1 FXI     -0.386300
     39 HN1         3.1210    2.6510   -1.7060 hn        1 FXI      0.499800
     40 H3          0.4220    2.8050    5.7910 ha        1 FXI      0.164500
     41 H4         -1.6610    4.0680    6.1740 ha        1 FXI      0.208000
     42 H6         -1.5180    5.6040    2.1010 ha        1 FXI      0.208000
     43 H7          0.5710    4.3560    1.6840 ha        1 FXI      0.164500
     44 H81         0.6610   -1.7720    2.3810 hc        1 FXI      0.071200
     45 H82         0.5270   -0.8550    3.9380 hc        1 FXI      0.071200
     46 H91         3.7890   -0.6950    0.5670 hc        1 FXI      0.148950
     47 H92         2.6970   -1.2380    1.9330 hc        1 FXI      0.148950
     48 H111       -0.8890    0.9080    2.7840 hx        1 FXI      0.149200
     49 H112       -0.7440   -0.0130    1.1930 hx        1 FXI      0.149200
     50 HN3         2.4770    3.3500    2.8070 hn        1 FXI      0.510300
     51 H131       -0.5880   -3.7440    3.2250 hc        1 FXI      0.062367
     52 H132       -0.6130   -2.9460    4.8530 hc        1 FXI      0.062367
     53 H133       -2.1600   -3.4960    4.0910 hc        1 FXI      0.062367
     54 H261       -1.9470   -1.0320    3.8860 hc        1 FXI      0.067700
     55 H262       -1.8950   -1.8150    2.2540 hc        1 FXI      0.067700
     56 H14         2.2690    0.2510   -3.6780 ha        1 FXI      0.184000
     57 H17        -1.9010    2.2600   -1.7150 ha        1 FXI      0.203000
     58 H19         0.0490   -0.3590   -4.5850 ha        1 FXI      0.208000
     59 H20        -2.6590    1.5460   -5.1540 ha        1 FXI      0.167000
     60 H25        -4.6750   -2.0100   -2.2990 ha        1 FXI      0.158000
     61 H23        -5.9510   -1.0900   -4.1910 ha        1 FXI      0.186000
     62 H24        -4.9390    0.6740   -5.6630 ha        1 FXI      0.186000
     63 H271        0.6720   -1.3240    0.2890 hc        1 FXI      0.148950
     64 H272        1.7160   -0.7920   -1.0770 hc        1 FXI      0.148950
     65 H291       -3.5320   -3.1460   -0.6490 h1        1 FXI      0.153367
     66 H292       -2.8760   -3.5020   -2.2730 h1        1 FXI      0.153367
     67 H293       -1.8560   -3.7310   -0.8400 h1        1 FXI      0.153367
     68 H12         3.3910    0.9910   -1.7170 hn        1 FXI      0.499800
     69 H21         0.5780    1.9690    1.4670 hn        1 FXI      0.480800
     70 H32         2.4380    2.8160    4.4080 hn        1 FXI      0.510300
@<TRIPOS>BOND
     1    1    2 1   
     2    1   22 1   
     3    1   39 1   
     4    1   68 1   
     5    2    3 2   
     6    2   12 1   
     7    4    5 ar  
     8    4    9 ar  
     9    4   17 1   
    10    5    6 ar  
    11    5   40 1   
    12    6    7 ar  
    13    6   41 1   
    14    7    8 ar  
    15    7   18 1   
    16    8    9 ar  
    17    8   42 1   
    18    9   43 1   
    19   10   14 1   
    20   10   20 1   
    21   10   44 1   
    22   10   45 1   
    23   11   12 1   
    24   11   35 1   
    25   11   46 1   
    26   11   47 1   
    27   12   13 1   
    28   12   35 1   
    29   13   14 1   
    30   13   15 1   
    31   13   69 1   
    32   14   48 1   
    33   14   49 1   
    34   15   16 2   
    35   15   17 1   
    36   17   50 1   
    37   17   70 1   
    38   19   20 1   
    39   19   51 1   
    40   19   52 1   
    41   19   53 1   
    42   20   54 1   
    43   20   55 1   
    44   21   22 ar  
    45   21   26 ar  
    46   21   56 1   
    47   22   23 ar  
    48   23   24 ar  
    49   23   27 1   
    50   24   25 ar  
    51   24   57 1   
    52   25   26 ar  
    53   25   29 1   
    54   26   58 1   
    55   28   29 ar  
    56   28   33 ar  
    57   28   59 1   
    58   29   30 ar  
    59   30   31 ar  
    60   30   34 1   
    61   31   32 ar  
    62   31   60 1   
    63   32   33 ar  
    64   32   61 1   
    65   33   62 1   
    66   34   36 2   
    67   34   37 2   
    68   34   38 1   
    69   35   63 1   
    70   35   64 1   
    71   38   65 1   
    72   38   66 1   
    73   38   67 1   
@<TRIPOS>SUBSTRUCTURE
     1 FXI         1 TEMP              0 ****  ****    0 ROOT
