@<TRIPOS>MOLECULE
FXI
   68    71     1     0     0
SMALL
bcc


@<TRIPOS>ATOM
      1 N1         -0.4670    0.8030   -0.1740 n         1 FXI     -0.412100
      2 C1         -0.5460    0.0120   -1.2810 c         1 FXI      0.693100
      3 O1         -1.3400   -0.9510   -1.4070 o         1 FXI     -0.642100
      4 C2          1.2040   -4.1300   -2.4740 ca        1 FXI      0.006600
      5 C3          0.3770   -5.1980   -2.0560 ca        1 FXI     -0.126500
      6 C4          0.9150   -6.4690   -1.8950 ca        1 FXI     -0.101000
      7 C5          2.2730   -6.6960   -2.1520 ca        1 FXI      0.026400
      8 C6          3.0930   -5.6440   -2.5690 ca        1 FXI     -0.101000
      9 C7          2.5670   -4.3640   -2.7300 ca        1 FXI     -0.126500
     10 C8          1.5990    0.3250   -5.5360 c3        1 FXI     -0.099400
     11 C9          1.8500    0.7430   -2.0900 cx        1 FXI     -0.084900
     12 C10         0.4300    0.3040   -2.4360 cx        1 FXI     -0.073800
     13 N2          0.1810   -0.6180   -3.5760 n4        1 FXI     -0.545200
     14 C11         0.2370   -0.0120   -4.9440 c3        1 FXI      0.128800
     15 C12         1.0890   -1.8680   -3.4180 c         1 FXI      0.652100
     16 O2          2.1660   -1.8300   -4.0210 o         1 FXI     -0.506100
     17 N3          0.6120   -2.8410   -2.5840 n         1 FXI     -0.418100
     18 CL1         2.9190   -8.2470   -1.9570 cl        1 FXI     -0.042400
     19 C13         2.7420    1.6450   -7.3100 c3        1 FXI     -0.098100
     20 C26         1.4270    1.3640   -6.6280 c3        1 FXI     -0.082400
     21 C14        -2.0860   -0.3770    1.2940 ca        1 FXI     -0.119000
     22 C15        -1.3270    0.7550    0.9490 ca        1 FXI     -0.006400
     23 C16        -1.4050    1.9060    1.7930 ca        1 FXI      0.102900
     24 C17        -2.2080    1.8930    2.9430 ca        1 FXI     -0.078000
     25 C18        -2.9520    0.7530    3.2640 cp        1 FXI     -0.055000
     26 C19        -2.8890   -0.3690    2.4300 ca        1 FXI     -0.110000
     27 F1         -0.6920    3.0210    1.4920 f         1 FXI     -0.134900
     28 C20        -5.2230    0.7020    4.1790 ca        1 FXI     -0.144000
     29 C21        -3.8460    0.7470    4.4320 cp        1 FXI      0.059000
     30 C22        -3.3670    0.7820    5.7540 ca        1 FXI     -0.357500
     31 C25        -4.3100    0.7880    6.7950 ca        1 FXI     -0.032000
     32 C23        -5.6780    0.7530    6.5450 ca        1 FXI     -0.138000
     33 C24        -6.1380    0.7080    5.2310 ca        1 FXI     -0.063000
     34 S1         -1.7400    0.8350    6.2080 sy        1 FXI      1.393300
     35 C27         0.8980    1.7380   -2.6640 cx        1 FXI     -0.084900
     36 O4         -1.0400    1.7600    5.4190 o         1 FXI     -0.655800
     37 O3         -1.6430    0.9840    7.5970 o         1 FXI     -0.655800
     38 C29        -1.2660   -0.7320    5.7820 c3        1 FXI     -0.361300
     39 HN1         0.1840    1.5630   -0.1670 hn        1 FXI      0.342500
     40 H3         -0.6930   -5.0420   -1.8480 ha        1 FXI      0.157000
     41 H4          0.2660   -7.2970   -1.5660 ha        1 FXI      0.168500
     42 H6          4.1630   -5.8180   -2.7730 ha        1 FXI      0.168500
     43 H7          3.2340   -3.5530   -3.0640 ha        1 FXI      0.157000
     44 H81         2.0660   -0.6020   -5.9660 hc        1 FXI      0.078200
     45 H82         2.3080    0.7080   -4.7570 hc        1 FXI      0.078200
     46 H91         2.1420    0.7880   -1.0230 hc        1 FXI      0.117950
     47 H92         2.6880    0.3680   -2.7140 hc        1 FXI      0.117950
     48 H111       -0.4020    0.9190   -4.9000 hx        1 FXI      0.097700
     49 H112       -0.2670   -0.7610   -5.6260 hx        1 FXI      0.097700
     50 HN3        -0.2630   -2.7190   -2.1040 hn        1 FXI      0.368500
     51 H131        3.4950    2.0270   -6.5790 hc        1 FXI      0.050033
     52 H132        3.1490    0.7190   -7.7850 hc        1 FXI      0.050033
     53 H133        2.6010    2.4160   -8.1070 hc        1 FXI      0.050033
     54 H261        1.0200    2.3130   -6.1890 hc        1 FXI      0.047700
     55 H262        0.6820    0.9980   -7.3840 hc        1 FXI      0.047700
     56 H14        -2.0590   -1.2800    0.6630 ha        1 FXI      0.167000
     57 H17        -2.2120    2.7790    3.6030 ha        1 FXI      0.196000
     58 H19        -3.4830   -1.2640    2.6750 ha        1 FXI      0.156000
     59 H20        -5.5840    0.6690    3.1390 ha        1 FXI      0.144000
     60 H25        -3.9520    0.8270    7.8430 ha        1 FXI      0.175000
     61 H23        -6.3920    0.7640    7.3840 ha        1 FXI      0.155000
     62 H24        -7.2180    0.6790    5.0200 ha        1 FXI      0.148000
     63 H271        0.4650    2.5420   -2.0380 hc        1 FXI      0.117950
     64 H272        1.0600    2.1030   -3.6990 hc        1 FXI      0.117950
     65 H291       -1.6640   -1.5090    6.4810 h1        1 FXI      0.116367
     66 H292       -0.1510   -0.8360    5.8050 h1        1 FXI      0.116367
     67 H293       -1.5890   -1.0300    4.7550 h1        1 FXI      0.116367
     68 H21        -0.8070   -0.9300   -3.4700 hn        1 FXI      0.470800
@<TRIPOS>BOND
     1    1    2 1   
     2    1   22 1   
     3    1   39 1   
     4    2    3 2   
     5    2   12 1   
     6    4    5 ar  
     7    4    9 ar  
     8    4   17 1   
     9    5    6 ar  
    10    5   40 1   
    11    6    7 ar  
    12    6   41 1   
    13    7    8 ar  
    14    7   18 1   
    15    8    9 ar  
    16    8   42 1   
    17    9   43 1   
    18   10   14 1   
    19   10   20 1   
    20   10   44 1   
    21   10   45 1   
    22   11   12 1   
    23   11   35 1   
    24   11   46 1   
    25   11   47 1   
    26   12   13 1   
    27   12   35 1   
    28   13   14 1   
    29   13   15 1   
    30   13   68 1   
    31   14   48 1   
    32   14   49 1   
    33   15   16 2   
    34   15   17 1   
    35   17   50 1   
    36   19   20 1   
    37   19   51 1   
    38   19   52 1   
    39   19   53 1   
    40   20   54 1   
    41   20   55 1   
    42   21   22 ar  
    43   21   26 ar  
    44   21   56 1   
    45   22   23 ar  
    46   23   24 ar  
    47   23   27 1   
    48   24   25 ar  
    49   24   57 1   
    50   25   26 ar  
    51   25   29 1   
    52   26   58 1   
    53   28   29 ar  
    54   28   33 ar  
    55   28   59 1   
    56   29   30 ar  
    57   30   31 ar  
    58   30   34 1   
    59   31   32 ar  
    60   31   60 1   
    61   32   33 ar  
    62   32   61 1   
    63   33   62 1   
    64   34   36 2   
    65   34   37 2   
    66   34   38 1   
    67   35   63 1   
    68   35   64 1   
    69   38   65 1   
    70   38   66 1   
    71   38   67 1   
@<TRIPOS>SUBSTRUCTURE
     1 FXI         1 TEMP              0 ****  ****    0 ROOT
