@<TRIPOS>MOLECULE
FXI
   68    71     1     0     0
SMALL
bcc


@<TRIPOS>ATOM
      1 N1         -0.4460    0.8010   -0.1600 ns        1 FXI     -0.412100
      2 C1         -0.5360    0.0250   -1.2760 c         1 FXI      0.693100
      3 O1         -1.3460   -0.9230   -1.4150 o         1 FXI     -0.642100
      4 C2          1.1470   -4.1300   -2.5170 ca        1 FXI      0.006600
      5 C3          0.3030   -5.1890   -2.1090 ca        1 FXI     -0.126500
      6 C4          0.8210   -6.4690   -1.9610 ca        1 FXI     -0.101000
      7 C5          2.1750   -6.7160   -2.2220 ca        1 FXI      0.026400
      8 C6          3.0110   -5.6730   -2.6300 ca        1 FXI     -0.101000
      9 C7          2.5060   -4.3840   -2.7770 ca        1 FXI     -0.126500
     10 C8          1.6170    0.3550   -5.5250 c3        1 FXI     -0.099400
     11 C9          1.8710    0.7260   -2.0750 cx        1 FXI     -0.084900
     12 C10         0.4450    0.3150   -2.4270 cx        1 FXI     -0.073800
     13 N2          0.1820   -0.5890   -3.5790 nx        1 FXI     -0.545200
     14 C11         0.2490    0.0320   -4.9390 c3        1 FXI      0.128800
     15 C12         1.0690   -1.8560   -3.4340 c         1 FXI      0.652100
     16 O2          2.1470   -1.8280   -4.0370 o         1 FXI     -0.506100
     17 N3          0.5760   -2.8310   -2.6120 ns        1 FXI     -0.418100
     18 Cl1         2.7950   -8.2790   -2.0440 cl        1 FXI     -0.042400
     19 C13         2.7830    1.6770   -7.2830 c3        1 FXI     -0.098100
     20 C26         1.4630    1.4100   -6.6050 c3        1 FXI     -0.082400
     21 C14        -2.0860   -0.3690    1.2920 ca        1 FXI     -0.120000
     22 C15        -1.3070    0.7540    0.9630 ca        1 FXI     -0.005400
     23 C16        -1.3650    1.8950    1.8220 ca        1 FXI      0.102900
     24 C17        -2.1680    1.8800    2.9710 ca        1 FXI     -0.078000
     25 C18        -2.9320    0.7500    3.2770 cp        1 FXI     -0.055000
     26 C19        -2.8890   -0.3620    2.4280 ca        1 FXI     -0.110000
     27 F1         -0.6320    3.0000    1.5360 f         1 FXI     -0.134900
     28 C20        -5.2040    0.7270    4.1920 ca        1 FXI     -0.144000
     29 C21        -3.8260    0.7440    4.4450 cp        1 FXI      0.059000
     30 C22        -3.3480    0.7520    5.7670 ca        1 FXI     -0.357500
     31 C25        -4.2900    0.7600    6.8090 ca        1 FXI     -0.032000
     32 C23        -5.6590    0.7540    6.5590 ca        1 FXI     -0.138000
     33 C24        -6.1190    0.7350    5.2430 ca        1 FXI     -0.063000
     34 S1         -1.7200    0.7680    6.2220 sy        1 FXI      1.393300
     35 C27         0.9370    1.7430   -2.6370 cx        1 FXI     -0.084900
     36 O4         -1.0030    1.6910    5.4460 o         1 FXI     -0.655800
     37 O3         -1.6200    0.8970    7.6130 o         1 FXI     -0.655800
     38 C29        -1.2740   -0.8010    5.7740 c3        1 FXI     -0.361300
     39 HN1         0.2180    1.5500   -0.1430 hn        1 FXI      0.342500
     40 H3         -0.7640   -5.0170   -1.8980 ha        1 FXI      0.157000
     41 H4          0.1580   -7.2900   -1.6400 ha        1 FXI      0.168500
     42 H6          4.0770   -5.8630   -2.8370 ha        1 FXI      0.168500
     43 H7          3.1860   -3.5800   -3.1020 ha        1 FXI      0.157000
     44 H81         2.3320    0.7160   -4.7410 hc        1 FXI      0.078200
     45 H82         2.0690   -0.5750   -5.9670 hc        1 FXI      0.078200
     46 H91         2.1640    0.7540   -1.0070 hc        1 FXI      0.117950
     47 H92         2.7050    0.3450   -2.7020 hc        1 FXI      0.117950
     48 H111       -0.3750    0.9730   -4.8830 hx        1 FXI      0.097700
     49 H112       -0.2660   -0.7000   -5.6300 hx        1 FXI      0.097700
     50 HN3        -0.2970   -2.7000   -2.1310 hn        1 FXI      0.368500
     51 H131        3.5420    2.0370   -6.5470 hc        1 FXI      0.050033
     52 H132        2.6550    2.4600   -8.0700 hc        1 FXI      0.050033
     53 H133        3.1740    0.7500   -7.7690 hc        1 FXI      0.050033
     54 H261        1.0720    2.3600   -6.1540 hc        1 FXI      0.047700
     55 H262        0.7130    1.0650   -7.3650 hc        1 FXI      0.047700
     56 H14        -2.0750   -1.2650    0.6490 ha        1 FXI      0.167000
     57 H17        -2.1560    2.7570    3.6440 ha        1 FXI      0.196000
     58 H19        -3.5000   -1.2500    2.6610 ha        1 FXI      0.156000
     59 H20        -5.5650    0.7160    3.1510 ha        1 FXI      0.144000
     60 H25        -3.9310    0.7780    7.8570 ha        1 FXI      0.175000
     61 H23        -6.3720    0.7660    7.3970 ha        1 FXI      0.155000
     62 H24        -7.2000    0.7290    5.0320 ha        1 FXI      0.148000
     63 H271        0.5170    2.5470   -2.0010 hc        1 FXI      0.117950
     64 H272        1.1050    2.1190   -3.6670 hc        1 FXI      0.117950
     65 H291       -1.6030   -1.0790    4.7430 h1        1 FXI      0.116033
     66 H292       -1.6860   -1.5800    6.4630 h1        1 FXI      0.116033
     67 H293       -0.1620   -0.9260    5.7960 h1        1 FXI      0.116033
     68 H21        -0.8110   -0.8860   -3.4770 hn        1 FXI      0.470800
@<TRIPOS>BOND
     1    1    2 1   
     2    1   22 1   
     3    1   39 1   
     4    2    3 2   
     5    2   12 1   
     6    4    5 ar  
     7    4    9 ar  
     8    4   17 1   
     9    5    6 ar  
    10    5   40 1   
    11    6    7 ar  
    12    6   41 1   
    13    7    8 ar  
    14    7   18 1   
    15    8    9 ar  
    16    8   42 1   
    17    9   43 1   
    18   10   14 1   
    19   10   20 1   
    20   10   44 1   
    21   10   45 1   
    22   11   12 1   
    23   11   35 1   
    24   11   46 1   
    25   11   47 1   
    26   12   13 1   
    27   12   35 1   
    28   13   14 1   
    29   13   15 1   
    30   13   68 1   
    31   14   48 1   
    32   14   49 1   
    33   15   16 2   
    34   15   17 1   
    35   17   50 1   
    36   19   20 1   
    37   19   51 1   
    38   19   52 1   
    39   19   53 1   
    40   20   54 1   
    41   20   55 1   
    42   21   22 ar  
    43   21   26 ar  
    44   21   56 1   
    45   22   23 ar  
    46   23   24 ar  
    47   23   27 1   
    48   24   25 ar  
    49   24   57 1   
    50   25   26 ar  
    51   25   29 1   
    52   26   58 1   
    53   28   29 ar  
    54   28   33 ar  
    55   28   59 1   
    56   29   30 ar  
    57   30   31 ar  
    58   30   34 1   
    59   31   32 ar  
    60   31   60 1   
    61   32   33 ar  
    62   32   61 1   
    63   33   62 1   
    64   34   36 2   
    65   34   37 2   
    66   34   38 1   
    67   35   63 1   
    68   35   64 1   
    69   38   65 1   
    70   38   66 1   
    71   38   67 1   
@<TRIPOS>SUBSTRUCTURE
     1 FXI         1 TEMP              0 ****  ****    0 ROOT
