@<TRIPOS>MOLECULE
FXI
   67    70     1     0     0
SMALL
bcc


@<TRIPOS>ATOM
      1 N1         -0.1240    1.2700   -1.3540 n         1 FXI     -0.455100
      2 C1         -0.6940    2.5270   -1.2720 c         1 FXI      0.690100
      3 O1         -0.0660    3.5790   -1.0630 o         1 FXI     -0.593100
      4 C2         -4.4140   -1.1860    0.8390 ca        1 FXI      0.068600
      5 C3         -4.8580   -1.5690    2.1280 ca        1 FXI     -0.154000
      6 C4         -5.1620   -2.8960    2.4050 ca        1 FXI     -0.100000
      7 C5         -5.0230   -3.8680    1.4100 ca        1 FXI     -0.005600
      8 C6         -4.5800   -3.5060    0.1360 ca        1 FXI     -0.100000
      9 C7         -4.2810   -2.1780   -0.1540 ca        1 FXI     -0.154000
     10 C8         -4.7800    3.4510    0.6320 c3        1 FXI     -0.111400
     11 C9         -2.6770    2.3840   -2.9160 cx        1 FXI     -0.102400
     12 C10        -2.2130    2.5580   -1.4750 cx        1 FXI     -0.029600
     13 N2         -2.9410    2.0380   -0.3600 n         1 FXI     -0.454800
     14 C11        -3.3320    2.9610    0.6770 c3        1 FXI      0.094000
     15 C12        -3.2940    0.6710   -0.3770 c         1 FXI      0.786100
     16 O2         -2.8170   -0.0680   -1.2720 o         1 FXI     -0.639100
     17 N3         -4.1800    0.1810    0.5960 n         1 FXI     -0.460100
     18 CL1        -5.3920   -5.4900    1.7540 cl        1 FXI     -0.092400
     19 C13        -6.4670    4.8720    1.7990 c3        1 FXI     -0.094100
     20 C26        -5.0520    4.3520    1.8190 c3        1 FXI     -0.080400
     21 C14         2.2370    1.9060   -0.9700 ca        1 FXI     -0.157000
     22 C15         1.2310    0.9490   -1.2170 ca        1 FXI      0.056600
     23 C16         1.6380   -0.4200   -1.3350 ca        1 FXI      0.072900
     24 C17         2.9850   -0.7860   -1.2040 ca        1 FXI     -0.098000
     25 C18         3.9580    0.1880   -0.9650 cp        1 FXI     -0.114000
     26 C19         3.5690    1.5300   -0.8560 ca        1 FXI     -0.104000
     27 F1          0.7190   -1.3870   -1.5780 f         1 FXI     -0.131900
     28 C20         6.2040    0.4020   -1.9050 ca        1 FXI     -0.150000
     29 C21         5.3860   -0.1510   -0.9060 cp        1 FXI      0.093000
     30 C22         5.9470   -0.9650    0.0930 ca        1 FXI     -0.361500
     31 C25         7.3320   -1.2040    0.0490 ca        1 FXI     -0.037000
     32 C23         8.1390   -0.6630   -0.9440 ca        1 FXI     -0.153000
     33 C24         7.5710    0.1460   -1.9280 ca        1 FXI     -0.068000
     34 S1          5.1020   -1.7190    1.3450 sy        1 FXI      1.391300
     35 C27        -2.7200    3.7410   -2.2910 cx        1 FXI     -0.102400
     36 O4          4.0410   -2.4850    0.8440 o         1 FXI     -0.659800
     37 O3          6.0120   -2.3980    2.1750 o         1 FXI     -0.659800
     38 C29         4.5040   -0.3820    2.1870 c3        1 FXI     -0.363300
     39 HN1        -0.7450    0.4960   -1.5180 hn        1 FXI      0.363500
     40 H3         -4.9730   -0.8220    2.9280 ha        1 FXI      0.155500
     41 H4         -5.5080   -3.1770    3.4120 ha        1 FXI      0.150000
     42 H6         -4.4650   -4.2690   -0.6500 ha        1 FXI      0.150000
     43 H7         -3.9300   -1.9180   -1.1670 ha        1 FXI      0.155500
     44 H81        -4.9610    4.0190   -0.3190 hc        1 FXI      0.050200
     45 H82        -5.5020    2.5940    0.6390 hc        1 FXI      0.050200
     46 H91        -1.9100    2.1560   -3.6790 hc        1 FXI      0.090700
     47 H92        -3.6190    1.8370   -3.1040 hc        1 FXI      0.090700
     48 H111       -2.6530    3.8610    0.6020 h1        1 FXI      0.060700
     49 H112       -3.1360    2.4840    1.6810 h1        1 FXI      0.060700
     50 HN3        -4.4470    0.7900    1.3390 hn        1 FXI      0.318500
     51 H131       -6.6560    5.4640    0.8710 hc        1 FXI      0.037367
     52 H132       -7.1990    4.0290    1.8310 hc        1 FXI      0.037367
     53 H133       -6.6480    5.5310    2.6820 hc        1 FXI      0.037367
     54 H261       -4.8730    3.7850    2.7710 hc        1 FXI      0.041700
     55 H262       -4.3340    5.2140    1.8080 hc        1 FXI      0.041700
     56 H14         1.9760    2.9730   -0.8690 ha        1 FXI      0.179000
     57 H17         3.2560   -1.8550   -1.2680 ha        1 FXI      0.186000
     58 H19         4.3320    2.3030   -0.6770 ha        1 FXI      0.141000
     59 H20         5.7490    1.0400   -2.6780 ha        1 FXI      0.146000
     60 H25         7.7890   -1.8440    0.8280 ha        1 FXI      0.169000
     61 H23         9.2190   -0.8730   -0.9530 ha        1 FXI      0.144000
     62 H24         8.2000    0.5800   -2.7210 ha        1 FXI      0.139000
     63 H271       -1.9740    4.5040   -2.5830 hc        1 FXI      0.090700
     64 H272       -3.6980    4.1880   -2.0390 hc        1 FXI      0.090700
     65 H291        4.0760    0.4130    1.5260 h1        1 FXI      0.118367
     66 H292        3.6790   -0.6810    2.8830 h1        1 FXI      0.118367
     67 H293        5.2830    0.1120    2.8180 h1        1 FXI      0.118367
@<TRIPOS>BOND
     1    1    2 1   
     2    1   22 1   
     3    1   39 1   
     4    2    3 2   
     5    2   12 1   
     6    4    5 ar  
     7    4    9 ar  
     8    4   17 1   
     9    5    6 ar  
    10    5   40 1   
    11    6    7 ar  
    12    6   41 1   
    13    7    8 ar  
    14    7   18 1   
    15    8    9 ar  
    16    8   42 1   
    17    9   43 1   
    18   10   14 1   
    19   10   20 1   
    20   10   44 1   
    21   10   45 1   
    22   11   12 1   
    23   11   35 1   
    24   11   46 1   
    25   11   47 1   
    26   12   13 1   
    27   12   35 1   
    28   13   14 1   
    29   13   15 1   
    30   14   48 1   
    31   14   49 1   
    32   15   16 2   
    33   15   17 1   
    34   17   50 1   
    35   19   20 1   
    36   19   51 1   
    37   19   52 1   
    38   19   53 1   
    39   20   54 1   
    40   20   55 1   
    41   21   22 ar  
    42   21   26 ar  
    43   21   56 1   
    44   22   23 ar  
    45   23   24 ar  
    46   23   27 1   
    47   24   25 ar  
    48   24   57 1   
    49   25   26 ar  
    50   25   29 1   
    51   26   58 1   
    52   28   29 ar  
    53   28   33 ar  
    54   28   59 1   
    55   29   30 ar  
    56   30   31 ar  
    57   30   34 1   
    58   31   32 ar  
    59   31   60 1   
    60   32   33 ar  
    61   32   61 1   
    62   33   62 1   
    63   34   36 2   
    64   34   37 2   
    65   34   38 1   
    66   35   63 1   
    67   35   64 1   
    68   38   65 1   
    69   38   66 1   
    70   38   67 1   
@<TRIPOS>SUBSTRUCTURE
     1 FXI         1 TEMP              0 ****  ****    0 ROOT
