@<TRIPOS>MOLECULE
FXI
   67    59     1     0     0
SMALL
bcc


@<TRIPOS>ATOM
      1 N1         -0.1430   -1.3000    0.1650 n         1 FXI     -0.309000
      2 C1          1.0760   -0.5920    0.4560 c2        1 FXI      0.334000
      3 O1          1.7240   -0.1010   -0.4500 o         1 FXI     -0.354000
      4 C2          1.7740    4.5460    3.2440 c1        1 FXI      0.076000
      5 C3          1.0920    5.7610    3.2200 c1        1 FXI     -0.117875
      6 C4          1.7910    6.9560    3.3700 c1        1 FXI     -0.117875
      7 C5          3.1710    6.9370    3.5440 c1        1 FXI     -0.084000
      8 C6          3.8530    5.7240    3.5690 c1        1 FXI     -0.100000
      9 C7          3.1540    4.5280    3.4180 c1        1 FXI     -0.133000
     10 C8         -0.2080    0.2880    4.7040 c3        1 FXI     -0.190000
     11 C9          3.1070   -1.3610    1.6520 cx        1 FXI     -0.181000
     12 C10         1.6390   -0.5960    1.8860 cx        1 FXI     -0.017000
     13 N2          0.8930    0.8720    2.6070 n         1 FXI     -0.313000
     14 C11        -0.3950    0.7800    3.2550 c3        1 FXI     -0.022000
     15 C12         1.6440    2.1130    2.6640 c2        1 FXI      0.413000
     16 O2          2.7810    2.1590    2.2230 o         1 FXI     -0.400000
     17 N3          1.0340    3.3030    3.2160 n         1 FXI     -0.314000
     18 CL1         4.0490    8.4370    3.7350 cl        1 FXI     -0.014000
     19 C13        -1.3980   -0.4410    6.7870 c3        1 FXI     -0.212000
     20 C26        -1.5830    0.0020    5.3310 c3        1 FXI     -0.159000
     21 C14        -0.0260   -0.6410   -2.1990 c1        1 FXI     -0.117875
     22 C15        -0.5960   -1.4270   -1.2000 c1        1 FXI      0.064000
     23 C16        -1.6390   -2.2980   -1.5090 c1        1 FXI      0.038000
     24 C17        -2.1120   -2.3820   -2.8170 c1        1 FXI     -0.098000
     25 C18        -1.5430   -1.5960   -3.8160 c1        1 FXI     -0.114000
     26 C19        -0.4990   -0.7250   -3.5070 c1        1 FXI     -0.117875
     27 F1         -2.2150   -3.0280   -0.5380 f         1 FXI     -0.097000
     28 C20        -2.8540   -0.5750   -5.5850 c1        1 FXI     -0.117875
     29 C21        -2.0700   -1.6290   -5.1250 c1        1 FXI      0.093000
     30 C22        -1.8650   -2.7480   -5.9310 c1        1 FXI     -0.806000
     31 C25        -2.4440   -2.8100   -7.1960 c1        1 FXI     -0.117875
     32 C23        -3.2280   -1.7570   -7.6560 c1        1 FXI     -0.117875
     33 C24        -3.4330   -0.6380   -6.8510 c1        1 FXI     -0.117875
     34 S1         -0.8390   -4.0990   -5.3470 s4        1 FXI      2.071800
     35 C27         1.8620   -2.2330    2.1390 cx        1 FXI     -0.181000
     36 O4          0.0630   -3.6610   -4.3130 o         1 FXI     -0.547400
     37 O3         -1.6210   -5.0800   -4.6390 o         1 FXI     -0.547400
     38 C29         0.0480   -4.8380   -6.7140 c2        1 FXI     -0.942000
     39 HN1        -0.6370   -1.6580    0.8460 hn        1 FXI      0.277000
     40 H3          0.1180    5.7750    3.0960 ha        1 FXI      0.149875
     41 H4          1.3100    7.8120    3.3530 ha        1 FXI      0.149875
     42 H6          4.8280    5.7110    3.6920 ha        1 FXI      0.152000
     43 H7          3.6350    3.6730    3.4360 ha        1 FXI      0.178000
     44 H81         0.3290   -0.5340    4.7040 hc        1 FXI      0.089500
     45 H82         0.2530    0.9790    5.2270 hc        1 FXI      0.089500
     46 H91         3.7900   -1.1830    2.3290 hc        1 FXI      0.130000
     47 H92         3.3740   -1.4890    0.7170 hc        1 FXI      0.130000
     48 H111       -0.9630    0.1480    2.7650 h1        1 FXI      0.100000
     49 H112       -0.8210    1.6630    3.2620 h1        1 FXI      0.100000
     50 HN3         0.1530    3.2960    3.4450 hn        1 FXI      0.232000
     51 H131       -2.2780   -0.5840    7.2000 hc        1 FXI      0.076667
     52 H132       -0.9130    0.2530    7.2810 hc        1 FXI      0.076667
     53 H133       -0.8870   -1.2750    6.8110 hc        1 FXI      0.076667
     54 H261       -2.0320   -0.7130    4.8250 hc        1 FXI      0.081000
     55 H262       -2.1330    0.8200    5.3040 hc        1 FXI      0.081000
     56 H14         0.7080   -0.0290   -1.9820 ha        1 FXI      0.149875
     57 H17        -2.8470   -2.9950   -3.0340 ha        1 FXI      0.186000
     58 H19        -0.0970   -0.1700   -4.2120 ha        1 FXI      0.149875
     59 H20        -2.9990    0.2130   -5.0180 ha        1 FXI      0.149875
     60 H25        -2.3000   -3.5990   -7.7640 ha        1 FXI      0.149875
     61 H23        -3.6360   -1.8010   -8.5470 ha        1 FXI      0.149875
     62 H24        -3.9870    0.1060   -7.1760 ha        1 FXI      0.149875
     63 H271        1.4670   -2.8250    1.4610 hc        1 FXI      0.130000
     64 H272        1.8850   -2.5180    3.0770 hc        1 FXI      0.130000
     65 H291       -0.2360   -5.7770   -6.8210 ha        1 FXI      0.157667
     66 H292        1.0170   -4.8070   -6.5320 ha        1 FXI      0.157667
     67 H293       -0.1460   -4.3420   -7.5350 ha        1 FXI      0.157667
@<TRIPOS>BOND
     1    1    2 1   
     2    1   22 1   
     3    1   39 1   
     4    2    3 1   
     5    2   12 1   
     6    4    9 1   
     7    4   17 1   
     8    5    6 1   
     9    5   40 1   
    10    6   41 1   
    11    7    8 1   
    12    7   18 1   
    13    8   42 1   
    14    9   43 1   
    15   10   14 1   
    16   10   20 1   
    17   10   44 1   
    18   10   45 1   
    19   11   12 1   
    20   11   35 1   
    21   11   46 1   
    22   11   47 1   
    23   12   13 1   
    24   12   35 1   
    25   13   14 1   
    26   13   15 1   
    27   14   48 1   
    28   14   49 1   
    29   15   16 1   
    30   15   17 1   
    31   17   50 1   
    32   19   20 1   
    33   19   51 1   
    34   19   52 1   
    35   19   53 1   
    36   20   54 1   
    37   20   55 1   
    38   21   26 1   
    39   21   56 1   
    40   22   23 1   
    41   23   27 1   
    42   24   25 1   
    43   24   57 1   
    44   26   58 1   
    45   28   33 1   
    46   28   59 1   
    47   29   30 1   
    48   30   34 1   
    49   31   32 1   
    50   31   60 1   
    51   32   61 1   
    52   33   62 1   
    53   34   36 1   
    54   34   37 1   
    55   35   63 1   
    56   35   64 1   
    57   38   65 1   
    58   38   66 1   
    59   38   67 1   
@<TRIPOS>SUBSTRUCTURE
     1 FXI         1 TEMP              0 ****  ****    0 ROOT
