@<TRIPOS>MOLECULE
FXM
   67    69     1     0     0
SMALL
bcc


@<TRIPOS>ATOM
      1 C31        85.5720   -9.8970   40.1280 c3        1 FXM     -0.208667
      2 C30        85.8370   -8.4870   40.6350 c3        1 FXM     -0.036000
      3 C32        85.3720   -8.3570   42.0760 c3        1 FXM     -0.208667
      4 C33        85.1160   -7.4680   39.7590 c3        1 FXM     -0.208667
      5 C27        87.3190   -8.1970   40.5230 c2        1 FXM      0.326000
      6 O29        88.1390   -8.6730   39.7370 o         1 FXM     -0.352000
      7 O28        87.7750   -7.2830   41.4410 os        1 FXM     -0.299000
      8 C26        89.0270   -6.6570   41.1930 c3        1 FXM      0.118000
      9 O9         88.7890   -5.3240   41.6050 os        1 FXM     -0.284000
     10 C8         88.0190   -4.5230   40.7940 c2        1 FXM      0.368000
     11 O10        87.5820   -5.0080   39.7530 o         1 FXM     -0.341000
     12 C2         87.8350   -3.1310   41.3360 c2        1 FXM      0.150000
     13 N3         86.7470   -3.0150   42.1060 n2        1 FXM     -0.431000
     14 C1         88.7430   -2.1680   40.9280 c2        1 FXM     -0.430000
     15 C16        89.8860   -2.4780   40.0510 c3        1 FXM      0.100000
     16 O17        91.1080   -2.2150   40.8140 os        1 FXM     -0.312000
     17 C18        92.2730   -2.4000   40.1180 c2        1 FXM      0.357000
     18 O20        92.2440   -2.8740   38.9700 o         1 FXM     -0.389000
     19 N19        93.4140   -2.0910   40.8470 n         1 FXM     -0.393000
     20 C6         88.5730   -0.7440   41.2520 c3        1 FXM     -0.110000
     21 S5         87.5960   -0.4180   42.7100 ss        1 FXM     -0.135000
     22 C4         86.4140   -1.8100   42.7260 c3        1 FXM     -0.004000
     23 C7         86.2260   -1.9850   44.2780 c3        1 FXM     -0.055000
     24 C11        85.2120   -3.0610   44.6120 c2        1 FXM      0.320000
     25 O12        84.0360   -3.2940   44.4690 o         1 FXM     -0.180000
     26 N14        87.4450   -2.4890   44.9330 n3        1 FXM     -0.186000
     27 C13        87.2480   -3.7120   45.4440 c2        1 FXM      0.345000
     28 O15        85.9280   -4.0750   45.3690 os        1 FXM     -0.215000
     29 C34        88.1840   -4.6180   46.1100 c2        1 FXM     -0.070000
     30 C35        87.8140   -5.3620   47.1780 c2        1 FXM     -0.018000
     31 C36        86.4650   -5.3960   47.7790 c3        1 FXM     -0.163000
     32 C37        86.4690   -5.9870   49.1670 c3        1 FXM     -0.215000
     33 C21        89.5230   -4.7160   45.5320 c2        1 FXM     -0.029000
     34 N22        90.0280   -3.6940   44.7320 n2        1 FXM     -0.215000
     35 C25        90.3490   -5.8270   45.6590 c2        1 FXM     -0.460000
     36 S24        91.7580   -5.6330   44.7840 ss        1 FXM      0.481000
     37 C23        91.2280   -4.0520   44.2310 c2        1 FXM     -0.092000
     38 N38        92.0370   -3.2540   43.4420 nh        1 FXM     -0.284000
     39 H311       84.4710  -10.0770   40.0840 hc        1 FXM      0.088222
     40 H312       86.0350  -10.6500   40.8090 hc        1 FXM      0.088222
     41 H313       86.0040  -10.0270   39.1060 hc        1 FXM      0.088222
     42 H321       84.2860   -8.6080   42.1450 hc        1 FXM      0.088222
     43 H322       85.5280   -7.3110   42.4380 hc        1 FXM      0.088222
     44 H323       85.9460   -9.0510   42.7340 hc        1 FXM      0.088222
     45 H331       84.0140   -7.5570   39.9110 hc        1 FXM      0.088222
     46 H332       85.3500   -7.6490   38.6830 hc        1 FXM      0.088222
     47 H333       85.4410   -6.4310   40.0250 hc        1 FXM      0.088222
     48 H261       89.3400   -6.7310   40.1200 h2        1 FXM      0.121500
     49 H262       89.7810   -7.0560   41.9220 h2        1 FXM      0.121500
     50 H161       89.9190   -1.8090   39.1500 h1        1 FXM      0.088500
     51 H162       89.9190   -3.5500   39.7210 h1        1 FXM      0.088500
     52 H191       93.3040   -1.4490   41.5960 hn        1 FXM      0.218500
     53 H192       94.2430   -1.9990   40.3070 hn        1 FXM      0.218500
     54 H61        88.0880   -0.2020   40.4000 h1        1 FXM      0.098000
     55 H62        89.5620   -0.2620   41.4590 h1        1 FXM      0.098000
     56 H4         85.4250   -1.4220   42.3500 h2        1 FXM      0.124000
     57 H7         85.9310   -0.9960   44.7320 h1        1 FXM      0.179000
     58 H14        88.3340   -2.0740   44.6890 hn        1 FXM      0.340000
     59 H35        88.5700   -6.0150   47.6550 ha        1 FXM      0.156000
     60 H361       85.7970   -6.0060   47.1050 hc        1 FXM      0.117500
     61 H362       86.0210   -4.3630   47.8080 hc        1 FXM      0.117500
     62 H371       85.4300   -5.9990   49.5760 hc        1 FXM      0.085000
     63 H372       87.1120   -5.3860   49.8540 hc        1 FXM      0.085000
     64 H373       86.8530   -7.0360   49.1510 hc        1 FXM      0.085000
     65 H25        90.1210   -6.7310   46.2200 h4        1 FXM      0.181000
     66 H381       92.5960   -3.7740   42.7960 hn        1 FXM      0.220500
     67 H382       91.5680   -2.4800   43.0040 hn        1 FXM      0.220500
@<TRIPOS>BOND
     1    1    2 1   
     2    1   39 1   
     3    1   40 1   
     4    1   41 1   
     5    2    3 1   
     6    2    4 1   
     7    2    5 1   
     8    3   42 1   
     9    3   43 1   
    10    3   44 1   
    11    4   45 1   
    12    4   46 1   
    13    4   47 1   
    14    5    6 1   
    15    5    7 1   
    16    7    8 1   
    17    8    9 1   
    18    8   48 1   
    19    8   49 1   
    20    9   10 1   
    21   10   11 1   
    22   10   12 1   
    23   12   13 1   
    24   12   14 1   
    25   13   22 1   
    26   14   15 1   
    27   14   20 1   
    28   15   16 1   
    29   15   50 1   
    30   15   51 1   
    31   16   17 1   
    32   17   18 1   
    33   17   19 1   
    34   19   52 1   
    35   19   53 1   
    36   20   21 1   
    37   20   54 1   
    38   20   55 1   
    39   21   22 1   
    40   22   23 1   
    41   22   56 1   
    42   23   24 1   
    43   23   26 1   
    44   23   57 1   
    45   24   25 1   
    46   24   28 1   
    47   26   27 1   
    48   26   58 1   
    49   27   28 1   
    50   27   29 1   
    51   29   30 1   
    52   29   33 1   
    53   30   31 1   
    54   30   59 1   
    55   31   32 1   
    56   31   60 1   
    57   31   61 1   
    58   32   62 1   
    59   32   63 1   
    60   32   64 1   
    61   33   34 1   
    62   33   35 1   
    63   34   37 1   
    64   35   36 1   
    65   35   65 1   
    66   36   37 1   
    67   37   38 1   
    68   38   66 1   
    69   38   67 1   
@<TRIPOS>SUBSTRUCTURE
     1 FXM         1 TEMP              0 ****  ****    0 ROOT
