@<TRIPOS>MOLECULE
FXM
   70    70     1     0     0
SMALL
bcc


@<TRIPOS>ATOM
      1 C31       150.6060  382.3940 -340.1680 c3        1 FXM     -0.094433
      2 C30       149.1440  382.7560 -339.9550 c3        1 FXM     -0.084000
      3 C32       148.8160  382.7530 -338.4680 c3        1 FXM     -0.094433
      4 C33       148.2460  381.7700 -340.6900 c3        1 FXM     -0.094433
      5 C27       148.8990  384.1500 -340.4980 c         1 FXM      0.704100
      6 O29       149.7170  384.9610 -340.9550 o         1 FXM     -0.647000
      7 O28       147.5850  384.5350 -340.4350 os        1 FXM     -0.426900
      8 C26       147.2100  385.8290 -340.8510 c3        1 FXM      0.341200
      9 O9        146.5010  385.6770 -342.0790 os        1 FXM     -0.402900
     10 C8        147.1600  385.2370 -343.1770 c         1 FXM      0.714300
     11 O10       148.2890  384.7470 -343.0460 o         1 FXM     -0.626000
     12 C2        146.4310  385.4140 -344.4690 ce        1 FXM      0.125400
     13 N3        145.3750  384.5090 -344.6310 ne        1 FXM     -0.568300
     14 C1        146.8420  386.3570 -345.3610 c2        1 FXM     -0.184400
     15 C16       147.9180  387.3640 -345.1330 c3        1 FXM      0.192600
     16 O17       148.8640  386.9820 -344.1000 os        1 FXM     -0.404900
     17 C18       149.9950  386.3510 -344.4920 c         1 FXM      0.636100
     18 O20       150.3780  386.2080 -345.6430 o         1 FXM     -0.419000
     19 N19       150.7730  385.8740 -343.3210 n4        1 FXM     -0.704400
     20 C6        146.2050  386.5430 -346.6930 c3        1 FXM     -0.024100
     21 S5        144.7820  385.5520 -347.0540 ss        1 FXM     -0.066300
     22 C4        144.6590  384.5580 -345.7140 c2        1 FXM      0.438100
     23 C7       -196.5160 -553.3530  486.9140 c2        1 FXM     -0.449100
     24 C11      -195.2390 -552.9870  486.7420 c1        1 FXM      0.665600
     25 O12      -194.1520 -552.6030  486.5300 o         1 FXM     -0.204500
     26 N14      -196.9700 -554.3630  487.8300 n4        1 FXM     -0.483600
     27 C13      -196.6810 -555.7850  487.3500 c         1 FXM      0.572300
     28 O15      -195.5170 -556.0300  487.0820 o         1 FXM     -0.393100
     29 C34      -197.8350 -556.7000  487.3270 ce        1 FXM     -0.295000
     30 C35      -199.0000 -556.4530  486.6900 c2        1 FXM      0.012800
     31 C36      -199.3540 -555.2370  485.9270 c3        1 FXM     -0.098200
     32 C37      -200.2610 -555.5600  484.7590 c3        1 FXM     -0.103100
     33 C21      -197.5820 -557.9860  487.9810 cc        1 FXM      0.414100
     34 N22      -196.8060 -558.0940  489.1090 nc        1 FXM     -0.596000
     35 C25      -198.0830 -559.2220  487.5060 cd        1 FXM     -0.251400
     36 S24      -197.6010 -560.4660  488.4370 ss        1 FXM      0.306700
     37 C23      -196.7360 -559.4130  489.4610 cd        1 FXM      0.292300
     38 N38      -195.9670 -559.8330  490.6190 n4        1 FXM     -0.773300
     39 H311      150.8040  381.3820 -339.7400 hc        1 FXM      0.055811
     40 H312      151.2700  383.1360 -339.6630 hc        1 FXM      0.055811
     41 H313      150.8490  382.3770 -341.2570 hc        1 FXM      0.055811
     42 H321      147.7520  383.0520 -338.3060 hc        1 FXM      0.055811
     43 H322      149.4820  383.4590 -337.9170 hc        1 FXM      0.055811
     44 H323      148.9670  381.7260 -338.0570 hc        1 FXM      0.055811
     45 H331      148.4620  381.7860 -341.7850 hc        1 FXM      0.055811
     46 H332      147.1720  382.0310 -340.5300 hc        1 FXM      0.055811
     47 H333      148.4300  380.7390 -340.3020 hc        1 FXM      0.055811
     48 H261      148.0770  386.5260 -340.9720 h2        1 FXM      0.100200
     49 H262      146.4170  386.1780 -340.1300 h2        1 FXM      0.100200
     50 H161      148.4700  387.5910 -346.0860 h1        1 FXM      0.110200
     51 H162      147.4820  388.3090 -344.6920 h1        1 FXM      0.110200
     52 H191      150.6420  386.4990 -342.5130 hn        1 FXM      0.498467
     53 H192      151.7630  385.7910 -343.5690 hn        1 FXM      0.498467
     54 H61       145.8880  387.6150 -346.8090 h1        1 FXM      0.095200
     55 H62       146.9630  386.3380 -347.4960 h1        1 FXM      0.095200
     56 H4        143.8240  383.8230 -345.7670 h5        1 FXM      0.080800
     57 H7       -197.2940 -552.8430  486.3120 hx        1 FXM      0.245000
     58 H14      -197.9860 -554.2410  487.9450 hn        1 FXM      0.466300
     59 H35      -199.7930 -557.2320  486.7100 ha        1 FXM      0.175000
     60 H361     -199.8950 -554.5290  486.6180 hc        1 FXM      0.071700
     61 H362     -198.4370 -554.7140  485.5410 hc        1 FXM      0.071700
     62 H371     -199.7580 -556.2550  484.0450 hc        1 FXM      0.069367
     63 H372     -201.2120 -556.0300  485.1100 hc        1 FXM      0.069367
     64 H373     -200.5160 -554.6190  484.2120 hc        1 FXM      0.069367
     65 H25      -198.7020 -559.3190  486.6060 h4        1 FXM      0.232000
     66 H381     -194.9720 -559.5900  490.4870 hn        1 FXM      0.482467
     67 H382     -196.3120 -559.3570  491.4670 hn        1 FXM      0.482467
     68 H193      150.3930  384.9470 -343.0280 hn        1 FXM      0.498467
     69 H142     -196.5210 -554.2360  488.7480 hn        1 FXM      0.466300
     70 H383     -196.0540 -560.8500  490.7420 hn        1 FXM      0.482467
@<TRIPOS>BOND
     1    1    2 1   
     2    1   39 1   
     3    1   40 1   
     4    1   41 1   
     5    2    3 1   
     6    2    4 1   
     7    2    5 1   
     8    3   42 1   
     9    3   43 1   
    10    3   44 1   
    11    4   45 1   
    12    4   46 1   
    13    4   47 1   
    14    5    6 2   
    15    5    7 1   
    16    7    8 1   
    17    8    9 1   
    18    8   48 1   
    19    8   49 1   
    20    9   10 1   
    21   10   11 2   
    22   10   12 1   
    23   12   13 1   
    24   12   14 2   
    25   13   22 2   
    26   14   15 1   
    27   14   20 1   
    28   15   16 1   
    29   15   50 1   
    30   15   51 1   
    31   16   17 1   
    32   17   18 2   
    33   17   19 1   
    34   19   52 1   
    35   19   53 1   
    36   19   68 1   
    37   20   21 1   
    38   20   54 1   
    39   20   55 1   
    40   21   22 1   
    41   22   56 1   
    42   23   24 2   
    43   23   26 1   
    44   23   57 1   
    45   24   25 2   
    46   26   27 1   
    47   26   58 1   
    48   26   69 1   
    49   27   28 2   
    50   27   29 1   
    51   29   30 2   
    52   29   33 1   
    53   30   31 1   
    54   30   59 1   
    55   31   32 1   
    56   31   60 1   
    57   31   61 1   
    58   32   62 1   
    59   32   63 1   
    60   32   64 1   
    61   33   34 1   
    62   33   35 2   
    63   34   37 2   
    64   35   36 1   
    65   35   65 1   
    66   36   37 1   
    67   37   38 1   
    68   38   66 1   
    69   38   67 1   
    70   38   70 1   
@<TRIPOS>SUBSTRUCTURE
     1 FXM         1 TEMP              0 ****  ****    0 ROOT
