@<TRIPOS>MOLECULE
FXM
   69    69     1     0     0
SMALL
bcc


@<TRIPOS>ATOM
      1 C31        17.0620   62.0020  -82.1540 c3        1 FXM     -0.095767
      2 C30        16.2400   63.1900  -82.6390 c3        1 FXM     -0.085000
      3 C32        16.4600   64.3890  -81.7280 c3        1 FXM     -0.095767
      4 C33        14.7640   62.8230  -82.6760 c3        1 FXM     -0.095767
      5 C27        16.7090   63.5430  -84.0360 c         1 FXM      0.691100
      6 O29        17.3780   64.5230  -84.4020 o         1 FXM     -0.674000
      7 O28        16.3740   62.6340  -84.9940 os        1 FXM     -0.420900
      8 C26        16.7120   62.8810  -86.3500 c3        1 FXM      0.336200
      9 O9         18.1000   62.5810  -86.4180 os        1 FXM     -0.415900
     10 C8         18.9910   63.5800  -86.6630 c         1 FXM      0.705300
     11 O10        18.5870   64.7350  -86.8210 o         1 FXM     -0.593000
     12 C2         20.4080   63.0980  -86.6980 ce        1 FXM      0.138400
     13 N3         20.7310   62.4180  -87.8770 ne        1 FXM     -0.575300
     14 C1         21.2420   63.3510  -85.6490 c2        1 FXM     -0.165400
     15 C16        20.7920   64.0910  -84.4350 c3        1 FXM      0.201600
     16 O17        20.4450   65.4360  -84.9030 os        1 FXM     -0.406900
     17 C18        19.4990   66.0840  -84.1890 c         1 FXM      0.650100
     18 O20        19.3510   66.0490  -82.9790 o         1 FXM     -0.406000
     19 N19        18.6650   66.9270  -85.0920 n4        1 FXM     -0.711400
     20 C6         22.6570   62.9150  -85.6020 c3        1 FXM     -0.018100
     21 S5         23.2700   62.0430  -87.0200 ss        1 FXM     -0.067300
     22 C4         21.9410   61.9670  -88.0320 c2        1 FXM      0.442100
     23 C7        -12.3780 -105.3110  129.1860 c2        1 FXM     -0.409100
     24 C11       -12.4400 -105.0320  130.4860 c1        1 FXM      0.625600
     25 O12       -12.4060 -104.7540  131.6290 o         1 FXM     -0.251500
     26 N14       -13.3540 -106.0710  128.4550 n4        1 FXM     -0.480600
     27 C13       -13.7450 -105.4120  127.1330 c         1 FXM      0.581300
     28 O15       -12.9070 -104.6660  126.6430 o         1 FXM     -0.440100
     29 C34       -15.0690 -105.7480  126.6080 ce        1 FXM     -0.290000
     30 C35       -15.5950 -105.0090  125.5950 c2        1 FXM      0.037800
     31 C36       -14.9590 -103.8390  124.9620 c3        1 FXM     -0.095200
     32 C37       -15.8870 -103.1110  124.0230 c3        1 FXM     -0.102100
     33 C21       -15.7990 -106.9040  127.1260 cc        1 FXM      0.370100
     34 N22       -15.1350 -108.0720  127.4990 nc        1 FXM     -0.786000
     35 C25       -17.1860 -106.9660  127.1980 cd        1 FXM     -0.259400
     36 S24       -17.7000 -108.4620  127.7130 ss        1 FXM     -0.021300
     37 C23       -16.0460 -109.0140  127.8500 cd        1 FXM      0.656300
     38 N38       -15.7430 -110.2510  128.3720 nh        1 FXM     -0.907500
     39 H311       16.9360   61.1350  -82.8470 hc        1 FXM      0.056700
     40 H312       16.7150   61.7030  -81.1350 hc        1 FXM      0.056700
     41 H313       18.1430   62.2720  -82.0980 hc        1 FXM      0.056700
     42 H321       16.2290   64.1020  -80.6740 hc        1 FXM      0.056700
     43 H322       15.7910   65.2320  -82.0250 hc        1 FXM      0.056700
     44 H323       17.5210   64.7370  -81.7860 hc        1 FXM      0.056700
     45 H331       14.4210   62.5600  -81.6460 hc        1 FXM      0.056700
     46 H332       14.5980   61.9450  -83.3470 hc        1 FXM      0.056700
     47 H333       14.1540   63.6820  -83.0460 hc        1 FXM      0.056700
     48 H261       16.4660   63.9230  -86.6720 h2        1 FXM      0.110700
     49 H262       16.1880   62.0650  -86.9230 h2        1 FXM      0.110700
     50 H161       19.8850   63.6240  -83.9660 h1        1 FXM      0.091700
     51 H162       21.6090   64.2210  -83.6770 h1        1 FXM      0.091700
     52 H191       17.9150   66.3070  -85.4650 hn        1 FXM      0.491467
     53 H192       19.2260   67.2560  -85.8850 hn        1 FXM      0.491467
     54 H61        22.8110   62.2450  -84.7130 h1        1 FXM      0.096200
     55 H62        23.3200   63.8100  -85.4550 h1        1 FXM      0.096200
     56 H4         22.1310   61.4410  -88.9950 h5        1 FXM      0.079800
     57 H7        -11.5290 -104.9180  128.5870 hx        1 FXM      0.254000
     58 H14       -14.2040 -106.2180  129.0110 hn        1 FXM      0.469800
     59 H35       -16.5880 -105.2990  125.1940 ha        1 FXM      0.167000
     60 H361      -14.0450 -104.1930  124.3990 hc        1 FXM      0.091200
     61 H362      -14.5760 -103.1310  125.7510 hc        1 FXM      0.091200
     62 H371      -16.7820 -102.7240  124.5670 hc        1 FXM      0.055367
     63 H372      -15.3530 -102.2440  123.5630 hc        1 FXM      0.055367
     64 H373      -16.2350 -103.7850  123.2020 hc        1 FXM      0.055367
     65 H25       -17.8690 -106.1530  126.9540 h4        1 FXM      0.195000
     66 H381      -16.4480 -110.9480  128.2660 hn        1 FXM      0.433800
     67 H382      -14.8070 -110.5780  128.2650 hn        1 FXM      0.433800
     68 H193       18.2560   67.7060  -84.5720 hn        1 FXM      0.491467
     69 H142      -12.9490 -106.9960  128.2320 hn        1 FXM      0.469800
@<TRIPOS>BOND
     1    1    2 1   
     2    1   39 1   
     3    1   40 1   
     4    1   41 1   
     5    2    3 1   
     6    2    4 1   
     7    2    5 1   
     8    3   42 1   
     9    3   43 1   
    10    3   44 1   
    11    4   45 1   
    12    4   46 1   
    13    4   47 1   
    14    5    6 2   
    15    5    7 1   
    16    7    8 1   
    17    8    9 1   
    18    8   48 1   
    19    8   49 1   
    20    9   10 1   
    21   10   11 2   
    22   10   12 1   
    23   12   13 1   
    24   12   14 2   
    25   13   22 2   
    26   14   15 1   
    27   14   20 1   
    28   15   16 1   
    29   15   50 1   
    30   15   51 1   
    31   16   17 1   
    32   17   18 2   
    33   17   19 1   
    34   19   52 1   
    35   19   53 1   
    36   19   68 1   
    37   20   21 1   
    38   20   54 1   
    39   20   55 1   
    40   21   22 1   
    41   22   56 1   
    42   23   24 2   
    43   23   26 1   
    44   23   57 1   
    45   24   25 2   
    46   26   27 1   
    47   26   58 1   
    48   26   69 1   
    49   27   28 2   
    50   27   29 1   
    51   29   30 2   
    52   29   33 1   
    53   30   31 1   
    54   30   59 1   
    55   31   32 1   
    56   31   60 1   
    57   31   61 1   
    58   32   62 1   
    59   32   63 1   
    60   32   64 1   
    61   33   34 1   
    62   33   35 2   
    63   34   37 2   
    64   35   36 1   
    65   35   65 1   
    66   36   37 1   
    67   37   38 1   
    68   38   66 1   
    69   38   67 1   
@<TRIPOS>SUBSTRUCTURE
     1 FXM         1 TEMP              0 ****  ****    0 ROOT
