@<TRIPOS>MOLECULE
FXM
   69    69     1     0     0
SMALL
bcc


@<TRIPOS>ATOM
      1 C31        17.0060   65.5110  -92.5250 c3        1 FXM     -0.094433
      2 C30        18.2940   66.2860  -92.7780 c3        1 FXM     -0.084000
      3 C32        19.3930   65.7920  -91.8470 c3        1 FXM     -0.094433
      4 C33        18.0570   67.7740  -92.5660 c3        1 FXM     -0.094433
      5 C27        18.7190   66.0550  -94.2140 c         1 FXM      0.704100
      6 O29        18.7840   66.8710  -95.1450 o         1 FXM     -0.647000
      7 O28        19.0440   64.7510  -94.4820 os        1 FXM     -0.426900
      8 C26        19.4040   64.3710  -95.7910 c3        1 FXM      0.341200
      9 O9         20.8060   64.1070  -95.7720 os        1 FXM     -0.402900
     10 C8         21.6710   65.1260  -95.5550 c         1 FXM      0.714300
     11 O10        21.2370   66.2070  -95.1400 o         1 FXM     -0.626000
     12 C2         23.1010   64.8220  -95.8670 ce        1 FXM      0.125400
     13 N3         23.7040   63.9880  -94.9190 ne        1 FXM     -0.569300
     14 C1         23.6920   65.3740  -96.9630 c2        1 FXM     -0.184400
     15 C16        23.0070   66.1930  -98.0050 c3        1 FXM      0.192600
     16 O17        21.7740   66.8070  -97.5460 os        1 FXM     -0.404900
     17 C18        21.8450   68.0720  -97.0700 c         1 FXM      0.636100
     18 O20        22.8170   68.8100  -97.1310 o         1 FXM     -0.419000
     19 N19        20.5490   68.4960  -96.4840 nz        1 FXM     -0.704400
     20 C6         25.1270   65.1680  -97.2980 c3        1 FXM     -0.024100
     21 S5         26.0480   64.0620  -96.2650 ss        1 FXM     -0.066300
     22 C4         24.9480   63.6480  -95.0750 c2        1 FXM      0.438100
     23 C7        -15.8410 -110.8680  144.3070 c2        1 FXM     -0.439100
     24 C11       -14.6570 -110.6550  143.7280 c1        1 FXM      0.669600
     25 O12       -13.5720 -110.5060  143.3020 o         1 FXM     -0.250500
     26 N14       -17.1210 -110.5710  143.7230 ny        1 FXM     -0.472600
     27 C13       -17.1090 -109.5780  142.5780 c         1 FXM      0.575300
     28 O15       -15.9990 -109.3500  142.0960 o         1 FXM     -0.481100
     29 C34       -18.3860 -109.0020  142.1740 ce        1 FXM     -0.288000
     30 C35       -18.4210 -108.0690  141.1810 c2        1 FXM      0.049800
     31 C36       -17.2540 -107.5370  140.4570 c3        1 FXM     -0.096200
     32 C37       -17.6260 -106.4680  139.4590 c3        1 FXM     -0.103100
     33 C21       -19.6330 -109.4290  142.8060 cc        1 FXM      0.368100
     34 N22       -19.8830 -110.7690  143.0980 nc        1 FXM     -0.788000
     35 C25       -20.6840 -108.5600  143.0810 cd        1 FXM     -0.257400
     36 S24       -21.9980 -109.3730  143.6940 ss        1 FXM     -0.019300
     37 C23       -21.1390 -110.8940  143.5950 cd        1 FXM      0.659300
     38 N38       -21.6810 -112.0580  144.0880 nv        1 FXM     -0.908500
     39 H311       17.1680   64.4220  -92.7130 hc        1 FXM      0.055811
     40 H312       16.1890   65.8800  -93.1890 hc        1 FXM      0.055811
     41 H313       16.6930   65.6500  -91.4620 hc        1 FXM      0.055811
     42 H321       20.3470   66.3360  -92.0440 hc        1 FXM      0.055811
     43 H322       19.0900   65.9680  -90.7870 hc        1 FXM      0.055811
     44 H323       19.5640   64.6980  -91.9980 hc        1 FXM      0.055811
     45 H331       19.0010   68.3460  -92.7320 hc        1 FXM      0.055811
     46 H332       17.7100   67.9490  -91.5190 hc        1 FXM      0.055811
     47 H333       17.2790   68.1500  -93.2720 hc        1 FXM      0.055811
     48 H261       18.9470   63.3560  -95.9650 h2        1 FXM      0.100700
     49 H262       19.1520   65.1410  -96.5640 h2        1 FXM      0.100700
     50 H161       23.6930   66.9840  -98.4140 h1        1 FXM      0.110200
     51 H162       22.6250   65.5290  -98.8360 h1        1 FXM      0.110200
     52 H191       20.4680   69.5150  -96.5160 hn        1 FXM      0.498467
     53 H192       20.5080   68.1580  -95.4960 hn        1 FXM      0.498467
     54 H61        25.6560   66.1590  -97.2750 h1        1 FXM      0.095200
     55 H62        25.2130   64.7750  -98.3480 h1        1 FXM      0.095200
     56 H4         25.3570   62.9670  -94.2930 h5        1 FXM      0.080800
     57 H7        -15.8750 -111.3180  145.3170 hx        1 FXM      0.237000
     58 H14       -17.5380 -111.4510  143.3720 hn        1 FXM      0.478300
     59 H35       -19.4100 -107.6640  140.8810 ha        1 FXM      0.169000
     60 H361      -16.7300 -108.3880  139.9300 hc        1 FXM      0.093700
     61 H362      -16.5040 -107.1300  141.1950 hc        1 FXM      0.093700
     62 H371      -18.1070 -105.5980  139.9680 hc        1 FXM      0.056033
     63 H372      -16.7080 -106.1060  138.9360 hc        1 FXM      0.056033
     64 H373      -18.3340 -106.8670  138.6920 hc        1 FXM      0.056033
     65 H25       -20.6680 -107.4810  142.9240 h4        1 FXM      0.196000
     66 H381      -21.2240 -112.9130  143.8580 hn        1 FXM      0.434800
     67 H382      -22.6760 -112.0990  144.1050 hn        1 FXM      0.434800
     68 H193       19.7610   68.0430  -96.9680 hn        1 FXM      0.498467
     69 H142      -17.7310 -110.2010  144.4670 hn        1 FXM      0.478300
@<TRIPOS>BOND
     1    1    2 1   
     2    1   39 1   
     3    1   40 1   
     4    1   41 1   
     5    2    3 1   
     6    2    4 1   
     7    2    5 1   
     8    3   42 1   
     9    3   43 1   
    10    3   44 1   
    11    4   45 1   
    12    4   46 1   
    13    4   47 1   
    14    5    6 2   
    15    5    7 1   
    16    7    8 1   
    17    8    9 1   
    18    8   48 1   
    19    8   49 1   
    20    9   10 1   
    21   10   11 2   
    22   10   12 1   
    23   12   13 1   
    24   12   14 2   
    25   13   22 2   
    26   14   15 1   
    27   14   20 1   
    28   15   16 1   
    29   15   50 1   
    30   15   51 1   
    31   16   17 1   
    32   17   18 2   
    33   17   19 1   
    34   19   52 1   
    35   19   53 1   
    36   19   68 1   
    37   20   21 1   
    38   20   54 1   
    39   20   55 1   
    40   21   22 1   
    41   22   56 1   
    42   23   24 2   
    43   23   26 1   
    44   23   57 1   
    45   24   25 2   
    46   26   27 1   
    47   26   58 1   
    48   26   69 1   
    49   27   28 2   
    50   27   29 1   
    51   29   30 2   
    52   29   33 1   
    53   30   31 1   
    54   30   59 1   
    55   31   32 1   
    56   31   60 1   
    57   31   61 1   
    58   32   62 1   
    59   32   63 1   
    60   32   64 1   
    61   33   34 1   
    62   33   35 2   
    63   34   37 2   
    64   35   36 1   
    65   35   65 1   
    66   36   37 1   
    67   37   38 1   
    68   38   66 1   
    69   38   67 1   
@<TRIPOS>SUBSTRUCTURE
     1 FXM         1 TEMP              0 ****  ****    0 ROOT
