@<TRIPOS>MOLECULE
FXN
   28    29     1     0     0
SMALL
bcc


@<TRIPOS>ATOM
      1 F18         0.0120    0.5060    0.1290 f         1 FXN     -0.110900
      2 C10         1.3460    0.2890    0.1030 ca        1 FXN      0.127900
      3 C6          2.0600    0.2060    1.3050 ca        1 FXN     -0.090000
      4 C11         1.9950    0.1510   -1.1550 ca        1 FXN     -0.092000
      5 C8          3.3600   -0.0690   -1.2400 ca        1 FXN     -0.117000
      6 C12         4.0900   -0.1520   -0.0460 ca        1 FXN     -0.033200
      7 N1          5.4890   -0.2950    0.1450 na        1 FXN     -0.160400
      8 C16         3.4340   -0.0220    1.2320 ca        1 FXN     -0.122800
      9 C5          4.4550   -0.1670    2.2390 cc        1 FXN      0.056800
     10 C13         5.6680   -0.3700    1.5670 cd        1 FXN     -0.277300
     11 C7          6.9460   -0.4620    2.2290 c         1 FXN      0.588300
     12 O17         7.1760   -0.7480    3.3960 o         1 FXN     -0.425100
     13 N3          8.1530   -0.1200    1.3630 ny        1 FXN     -0.676800
     14 C14         9.4020    0.0930    2.1590 c3        1 FXN      0.102800
     15 C9         10.6160    0.3730    1.2910 c3        1 FXN     -0.064300
     16 S19        11.9350    0.9030    2.3170 sh        1 FXN     -0.248900
     17 H6          1.5480    0.3200    2.2730 ha        1 FXN      0.177000
     18 H11         1.3860    0.2230   -2.0720 ha        1 FXN      0.177000
     19 H8          3.8510   -0.1710   -2.2190 ha        1 FXN      0.163000
     20 HN1         5.9410   -0.9900   -0.4110 hn        1 FXN      0.267700
     21 H5          4.3130   -0.1020    3.3210 ha        1 FXN      0.194000
     22 HN3         8.3030   -0.8800    0.6940 hn        1 FXN      0.455800
     23 H141        9.5690   -0.8300    2.7880 hx        1 FXN      0.123700
     24 H142        9.2150    0.9590    2.8600 hx        1 FXN      0.123700
     25 H91        10.4260    1.2290    0.5900 h1        1 FXN      0.097200
     26 H92        10.8870   -0.5200    0.6770 h1        1 FXN      0.097200
     27 H19        12.4570   -0.2680    2.6450 hs        1 FXN      0.210800
     28 H32         7.9410    0.7340    0.8330 hn        1 FXN      0.455800
@<TRIPOS>BOND
     1    1    2 1   
     2    2    3 ar  
     3    2    4 ar  
     4    3    8 ar  
     5    3   17 1   
     6    4    5 ar  
     7    4   18 1   
     8    5    6 ar  
     9    5   19 1   
    10    6    7 1   
    11    6    8 ar  
    12    7   10 1   
    13    7   20 1   
    14    8    9 1   
    15    9   10 2   
    16    9   21 1   
    17   10   11 1   
    18   11   12 2   
    19   11   13 1   
    20   13   14 1   
    21   13   22 1   
    22   13   28 1   
    23   14   15 1   
    24   14   23 1   
    25   14   24 1   
    26   15   16 1   
    27   15   25 1   
    28   15   26 1   
    29   16   27 1   
@<TRIPOS>SUBSTRUCTURE
     1 FXN         1 TEMP              0 ****  ****    0 ROOT
