@<TRIPOS>MOLECULE
FXN
   27    28     1     0     0
SMALL
bcc


@<TRIPOS>ATOM
      1 F18        -0.3650    0.0950   -5.9770 f         1 FXN     -0.142900
      2 C10        -0.0110    0.0570   -4.6680 ca        1 FXN      0.096900
      3 C6         -0.9890    0.2090   -3.6800 ca        1 FXN     -0.110000
      4 C11         1.3570   -0.1380   -4.3370 ca        1 FXN     -0.135000
      5 C8          1.7720   -0.1880   -3.0190 ca        1 FXN     -0.122000
      6 C12         0.8040   -0.0390   -2.0140 ca        1 FXN     -0.050200
      7 N1          0.9240   -0.1060   -0.6190 na        1 FXN     -0.175400
      8 C16        -0.5870    0.1690   -2.3460 ca        1 FXN     -0.090800
      9 C5         -1.2950    0.2970   -1.0930 cc        1 FXN     -0.093200
     10 C13        -0.3520    0.1620   -0.0750 cd        1 FXN     -0.142300
     11 C7         -0.6390    0.2370    1.3770 c         1 FXN      0.691300
     12 O17        -1.5600    0.9590    1.8080 o         1 FXN     -0.589100
     13 N3          0.1380   -0.5280    2.2260 n         1 FXN     -0.576900
     14 C14        -0.0700   -0.5470    3.6480 c3        1 FXN      0.089000
     15 C9          1.0090    0.1820    4.4420 c3        1 FXN     -0.026300
     16 S19         0.7510    0.0140    6.1780 sh        1 FXN     -0.359900
     17 H6         -2.0440    0.3570   -3.9510 ha        1 FXN      0.156000
     18 H11         2.0850   -0.2490   -5.1550 ha        1 FXN      0.150000
     19 H8          2.8310   -0.3430   -2.7690 ha        1 FXN      0.142000
     20 HN1         1.7660    0.0940   -0.1420 hn        1 FXN      0.291700
     21 H5         -2.3610    0.4690   -0.9640 ha        1 FXN      0.177000
     22 HN3         0.8030   -1.1610    1.8550 hn        1 FXN      0.315500
     23 H141       -1.0710   -0.0740    3.8740 h1        1 FXN      0.070700
     24 H142       -0.1050   -1.6220    3.9920 h1        1 FXN      0.070700
     25 H91         2.0160   -0.2690    4.2570 h1        1 FXN      0.078700
     26 H92         1.0520    1.2580    4.1470 h1        1 FXN      0.078700
     27 H19        -0.3610    0.7180    6.3060 hs        1 FXN      0.205800
@<TRIPOS>BOND
     1    1    2 1   
     2    2    3 ar  
     3    2    4 ar  
     4    3    8 ar  
     5    3   17 1   
     6    4    5 ar  
     7    4   18 1   
     8    5    6 ar  
     9    5   19 1   
    10    6    7 1   
    11    6    8 ar  
    12    7   10 1   
    13    7   20 1   
    14    8    9 1   
    15    9   10 2   
    16    9   21 1   
    17   10   11 1   
    18   11   12 2   
    19   11   13 1   
    20   13   14 1   
    21   13   22 1   
    22   14   15 1   
    23   14   23 1   
    24   14   24 1   
    25   15   16 1   
    26   15   25 1   
    27   15   26 1   
    28   16   27 1   
@<TRIPOS>SUBSTRUCTURE
     1 FXN         1 TEMP              0 ****  ****    0 ROOT
