@<TRIPOS>MOLECULE
FXN
   28    29     1     0     0
SMALL
bcc


@<TRIPOS>ATOM
      1 F18         0.0100   -0.4900    0.1280 f         1 FXN     -0.110900
      2 C10         1.3450   -0.2800    0.1030 ca        1 FXN      0.127900
      3 C6          2.0590   -0.1990    1.3050 ca        1 FXN     -0.090000
      4 C11         1.9940   -0.1460   -1.1550 ca        1 FXN     -0.092000
      5 C8          3.3610    0.0670   -1.2400 ca        1 FXN     -0.117000
      6 C12         4.0910    0.1480   -0.0470 ca        1 FXN     -0.033200
      7 N1          5.4900    0.2840    0.1450 na        1 FXN     -0.160400
      8 C16         3.4340    0.0220    1.2310 ca        1 FXN     -0.122800
      9 C5          4.4550    0.1630    2.2390 cc        1 FXN      0.056800
     10 C13         5.6700    0.3590    1.5670 cd        1 FXN     -0.277300
     11 C7          6.9480    0.4460    2.2280 c         1 FXN      0.588300
     12 O17         7.1790    0.7330    3.3950 o         1 FXN     -0.425100
     13 N3          8.1530    0.0970    1.3630 n4        1 FXN     -0.676800
     14 C14         9.4010   -0.1200    2.1590 c3        1 FXN      0.102800
     15 C9         10.6140   -0.4080    1.2920 c3        1 FXN     -0.064300
     16 S19        11.9310   -0.9420    2.3190 sh        1 FXN     -0.248900
     17 H6          1.5460   -0.3090    2.2730 ha        1 FXN      0.177000
     18 H11         1.3850   -0.2160   -2.0720 ha        1 FXN      0.177000
     19 H8          3.8520    0.1650   -2.2200 ha        1 FXN      0.163000
     20 HN1         5.9460    0.9760   -0.4120 hn        1 FXN      0.267700
     21 H5          4.3130    0.1010    3.3200 ha        1 FXN      0.194000
     22 HN3         8.3070    0.8560    0.6920 hn        1 FXN      0.455800
     23 H141        9.2100   -0.9840    2.8630 hx        1 FXN      0.123700
     24 H142        9.5730    0.8040    2.7860 hx        1 FXN      0.123700
     25 H91        10.8890    0.4820    0.6760 h1        1 FXN      0.097200
     26 H92        10.4190   -1.2640    0.5930 h1        1 FXN      0.097200
     27 H19        12.4580    0.2280    2.6440 hs        1 FXN      0.210800
     28 H32         7.9370   -0.7560    0.8340 hn        1 FXN      0.455800
@<TRIPOS>BOND
     1    1    2 1   
     2    2    3 ar  
     3    2    4 ar  
     4    3    8 ar  
     5    3   17 1   
     6    4    5 ar  
     7    4   18 1   
     8    5    6 ar  
     9    5   19 1   
    10    6    7 1   
    11    6    8 ar  
    12    7   10 1   
    13    7   20 1   
    14    8    9 1   
    15    9   10 2   
    16    9   21 1   
    17   10   11 1   
    18   11   12 2   
    19   11   13 1   
    20   13   14 1   
    21   13   22 1   
    22   13   28 1   
    23   14   15 1   
    24   14   23 1   
    25   14   24 1   
    26   15   16 1   
    27   15   25 1   
    28   15   26 1   
    29   16   27 1   
@<TRIPOS>SUBSTRUCTURE
     1 FXN         1 TEMP              0 ****  ****    0 ROOT
