@<TRIPOS>MOLECULE
FXP
   36    37     1     0     0
SMALL
bcc


@<TRIPOS>ATOM
      1 O1         -4.1910    1.5080    0.0630 oh        1 FXP     -0.611800
      2 C1A        -3.9800    0.3990   -0.7720 c3        1 FXP      0.304900
      3 C2A        -3.5670   -0.8140    0.0940 c3        1 FXP      0.122600
      4 C3A        -2.2080   -0.5460    0.7870 c3        1 FXP      0.122100
      5 C4A        -1.1730   -0.1320   -0.2720 c3        1 FXP      0.123100
      6 C5A        -1.7060    1.0520   -1.0870 c3        1 FXP      0.099400
      7 F2A        -4.5370   -1.1150    1.0310 f         1 FXP     -0.226300
      8 O3A        -1.7480   -1.7420    1.3870 oh        1 FXP     -0.576800
      9 O4A        -0.0180    0.2940    0.4580 os        1 FXP     -0.403600
     10 O5A        -2.9630    0.7640   -1.6850 os        1 FXP     -0.439600
     11 C1B         1.1870    0.2750   -0.2800 c3        1 FXP      0.298900
     12 C2B         2.2630    0.8830    0.6490 c3        1 FXP      0.130100
     13 C3B         3.6690    0.5650    0.1210 c3        1 FXP      0.153100
     14 C4B         3.7820   -0.9370   -0.1990 c3        1 FXP      0.065100
     15 C5B         2.6500   -1.3840   -1.1230 c3        1 FXP      0.106400
     16 O2B         2.1200    2.2920    0.6280 oh        1 FXP     -0.583800
     17 O3B         4.5780    0.9000    1.1550 oh        1 FXP     -0.585800
     18 O4B         5.0420   -1.1010   -0.8330 oh        1 FXP     -0.599800
     19 O5B         1.3850   -1.1090   -0.5400 os        1 FXP     -0.425600
     20 H1A        -4.8770    0.1600   -1.4100 h2        1 FXP      0.084700
     21 H2A        -3.4510   -1.7000   -0.5970 h1        1 FXP      0.079700
     22 H3A        -2.3260    0.2690    1.5530 h1        1 FXP      0.077700
     23 H4A        -0.9250   -1.0080   -0.9290 h1        1 FXP      0.089700
     24 H5A        -1.7970    1.9580   -0.4310 h1        1 FXP      0.066700
     25 H5AA       -1.0360    1.2720   -1.9600 h1        1 FXP      0.066700
     26 HO3A       -2.3380   -1.9170    2.1320 ho        1 FXP      0.411000
     27 H1B         1.1010    0.8470   -1.2450 h2        1 FXP      0.050700
     28 H2B         2.1420    0.4780    1.6910 h1        1 FXP      0.084700
     29 H3B         3.8870    1.1750   -0.7990 h1        1 FXP      0.067700
     30 H4B         3.7520   -1.5240    0.7620 h1        1 FXP      0.067700
     31 H5B         2.7390   -0.8780   -2.1210 h1        1 FXP      0.059200
     32 H5BA        2.6540   -2.4980   -1.2580 h1        1 FXP      0.059200
     33 HO2B        1.3580    2.4950    1.1850 ho        1 FXP      0.416000
     34 HO3B        5.4620    0.7370    0.7990 ho        1 FXP      0.418000
     35 HO4B        5.1760   -2.0490   -0.9460 ho        1 FXP      0.410000
     36 H17        -4.4700    2.2420   -0.4990 ho        1 FXP      0.421000
@<TRIPOS>BOND
     1    1    2 1   
     2    1   36 1   
     3    2    3 1   
     4    2   10 1   
     5    2   20 1   
     6    3    4 1   
     7    3    7 1   
     8    3   21 1   
     9    4    5 1   
    10    4    8 1   
    11    4   22 1   
    12    5    6 1   
    13    5    9 1   
    14    5   23 1   
    15    6   10 1   
    16    6   24 1   
    17    6   25 1   
    18    8   26 1   
    19    9   11 1   
    20   11   12 1   
    21   11   19 1   
    22   11   27 1   
    23   12   13 1   
    24   12   16 1   
    25   12   28 1   
    26   13   14 1   
    27   13   17 1   
    28   13   29 1   
    29   14   15 1   
    30   14   18 1   
    31   14   30 1   
    32   15   19 1   
    33   15   31 1   
    34   15   32 1   
    35   16   33 1   
    36   17   34 1   
    37   18   35 1   
@<TRIPOS>SUBSTRUCTURE
     1 FXP         1 TEMP              0 ****  ****    0 ROOT
