@<TRIPOS>MOLECULE
FXP
   36    37     1     0     0
SMALL
bcc


@<TRIPOS>ATOM
      1 O1         -2.4200   -3.7460   -1.8640 oh        1 FXP     -0.610800
      2 C1A        -1.0390   -3.7460   -1.8640 c3        1 FXP      0.305900
      3 C2A        -0.5480   -3.7460   -0.4280 c3        1 FXP      0.122600
      4 C3A        -0.8290   -2.4570    0.2670 c3        1 FXP      0.121100
      5 C4A        -0.3410   -1.2790   -0.5080 c3        1 FXP      0.122100
      6 C5A        -0.8330   -1.2900   -1.9500 c3        1 FXP      0.099400
      7 F2A        -1.1680   -4.7590    0.2520 f         1 FXP     -0.227300
      8 O3A        -0.1740   -2.4710    1.5620 oh        1 FXP     -0.577800
      9 O4A        -0.8050   -0.0730    0.1340 os        1 FXP     -0.384600
     10 O5A        -0.5570   -2.5660   -2.6300 os        1 FXP     -0.441600
     11 C1B         0.2130    0.8760    0.1310 c3        1 FXP      0.336900
     12 C2B        -0.3940    2.2480    0.3680 c3        1 FXP      0.128100
     13 C3B         0.6430    3.3020    0.5570 c3        1 FXP      0.110100
     14 C4B         1.6440    2.9280    1.5970 c3        1 FXP      0.069100
     15 C5B         2.2440    1.5480    1.3560 c3        1 FXP      0.107400
     16 O2B        -1.2100    2.5970   -0.7640 oh        1 FXP     -0.592800
     17 O3B        -0.0090    4.5370    0.9550 oh        1 FXP     -0.604800
     18 O4B         2.7010    3.8990    1.5950 oh        1 FXP     -0.601800
     19 O5B         1.2140    0.5110    1.1650 os        1 FXP     -0.426600
     20 H1A        -0.7240   -4.5580   -2.3040 h2        1 FXP      0.082700
     21 H2A         0.4150   -3.9040   -0.4230 h1        1 FXP      0.077700
     22 H3A        -1.7920   -2.3730    0.4000 h1        1 FXP      0.080700
     23 H4A         0.6350   -1.2820   -0.5070 h1        1 FXP      0.083700
     24 H5A        -1.7970   -1.1310   -1.9560 h1        1 FXP      0.069700
     25 H5AA       -0.3920   -0.5700   -2.4400 h1        1 FXP      0.069700
     26 HO3A       -0.7010   -2.8680    2.1560 ho        1 FXP      0.410000
     27 H1B         0.6460    0.8700   -0.7430 h2        1 FXP      0.056700
     28 H2B        -0.9570    2.2120    1.1650 h1        1 FXP      0.083700
     29 H3B         1.1060    3.4470   -0.2900 h1        1 FXP      0.063700
     30 H4B         1.2100    2.9360    2.4710 h1        1 FXP      0.067700
     31 H5B         2.7970    1.3050    2.1230 h1        1 FXP      0.058700
     32 H5BA        2.8070    1.5830    0.5590 h1        1 FXP      0.058700
     33 HO2B       -1.9570    2.9840   -0.4810 ho        1 FXP      0.424000
     34 HO3B        0.2190    5.1860    0.3940 ho        1 FXP      0.426000
     35 HO4B        2.8660    4.1590    2.4280 ho        1 FXP      0.412000
     36 H17        -2.7160   -4.3090   -2.4830 ho        1 FXP      0.421000
@<TRIPOS>BOND
     1    1    2 1   
     2    1   36 1   
     3    2    3 1   
     4    2   10 1   
     5    2   20 1   
     6    3    4 1   
     7    3    7 1   
     8    3   21 1   
     9    4    5 1   
    10    4    8 1   
    11    4   22 1   
    12    5    6 1   
    13    5    9 1   
    14    5   23 1   
    15    6   10 1   
    16    6   24 1   
    17    6   25 1   
    18    8   26 1   
    19    9   11 1   
    20   11   12 1   
    21   11   19 1   
    22   11   27 1   
    23   12   13 1   
    24   12   16 1   
    25   12   28 1   
    26   13   14 1   
    27   13   17 1   
    28   13   29 1   
    29   14   15 1   
    30   14   18 1   
    31   14   30 1   
    32   15   19 1   
    33   15   31 1   
    34   15   32 1   
    35   16   33 1   
    36   17   34 1   
    37   18   35 1   
@<TRIPOS>SUBSTRUCTURE
     1 FXP         1 TEMP              0 ****  ****    0 ROOT
