@<TRIPOS>MOLECULE
FXV
   60    51     1     0     0
SMALL
bcc


@<TRIPOS>ATOM
      1 C1         -4.7350   -0.0680    0.6400 c1        1 FXV     -0.115833
      2 C2         -4.4280    1.2490    0.8470 c1        1 FXV     -0.049000
      3 C3         -5.2520    2.0290    1.6260 c1        1 FXV     -0.097000
      4 C4         -6.3800    1.4830    2.1940 c1        1 FXV     -0.199000
      5 N1         -6.6810    0.1680    1.9850 n2        1 FXV      0.365000
      6 C6         -5.8630   -0.6080    1.2110 c1        1 FXV     -0.115833
      7 C7         -1.8830    2.6680   -1.4080 c1        1 FXV     -0.085000
      8 C8         -0.7380    2.4590   -0.6690 c1        1 FXV     -0.155000
      9 C9         -0.8230    1.9020    0.6030 c1        1 FXV     -0.115833
     10 C10        -2.0670    1.5550    1.1320 c1        1 FXV     -0.115833
     11 C11        -3.2090    1.7630    0.3950 c1        1 FXV     -0.049000
     12 C12        -3.1210    2.3230   -0.8850 c1        1 FXV     -0.097000
     13 C13         0.6480    2.6960   -1.3110 c2        1 FXV      0.375000
     14 N14         1.8710    2.4700   -0.5160 n         1 FXV     -0.355000
     15 C15         2.9700    1.7430   -1.0830 c3        1 FXV      0.044000
     16 C16         2.5350    1.1120   -2.3860 c3        1 FXV     -0.231000
     17 C17         3.4110    0.6810   -0.1230 c3        1 FXV     -0.110000
     18 C18         4.8880    0.8300    0.1450 c2        1 FXV      0.289000
     19 O19         5.3380    1.7010    1.1650 os        1 FXV     -0.280000
     20 C20         3.1490   -0.6900   -0.7170 c3        1 FXV     -0.132000
     21 C23         1.4410   -2.4080   -0.7850 c1        1 FXV     -0.058000
     22 C24         0.2750   -3.0660   -0.3920 c1        1 FXV     -0.166000
     23 C25        -0.4140   -2.6460    0.7270 c1        1 FXV     -0.090000
     24 C26         0.0530   -1.5620    1.4710 c1        1 FXV     -0.115833
     25 C27         1.2210   -0.8960    1.0840 c1        1 FXV     -0.115833
     26 C28         1.9130   -1.3160   -0.0390 c1        1 FXV     -0.060000
     27 C29        -0.2180   -4.2890   -1.1730 c2        1 FXV      0.338000
     28 N30        -0.9390   -4.1120   -2.4270 n3        1 FXV     -0.306000
     29 N31         0.0030   -5.4840   -0.7140 n2        1 FXV     -0.331000
     30 O32         5.6830    0.2220   -0.5210 o         1 FXV     -0.330000
     31 O33         0.7280    3.2200   -2.4390 o         1 FXV     -0.450000
     32 C34         6.3190    1.1280    2.0270 c3        1 FXV     -0.066000
     33 O1         -7.8470   -0.3680    2.5050 o         1 FXV     -0.395000
     34 H1         -4.1490   -0.6290    0.0850 ha        1 FXV      0.159333
     35 H3         -5.0290    2.9930    1.7780 ha        1 FXV      0.154000
     36 H4         -6.9610    2.0350    2.7450 ha        1 FXV      0.196000
     37 H6         -6.0770   -1.5250    1.0680 ha        1 FXV      0.159333
     38 H7         -1.8250    3.0460   -2.2730 ha        1 FXV      0.151000
     39 H9         -0.0280    1.7570    1.1160 ha        1 FXV      0.159333
     40 H10        -2.1260    1.1770    2.0000 ha        1 FXV      0.159333
     41 H12        -3.9320    2.4750   -1.4110 ha        1 FXV      0.154000
     42 H14         1.9000    2.7300    0.3520 hn        1 FXV      0.240000
     43 H15         3.7050    2.3480   -1.2470 h1        1 FXV      0.112000
     44 H161        3.3440    0.8610   -2.9200 hc        1 FXV      0.101000
     45 H162        2.0120    0.3270   -2.2050 hc        1 FXV      0.101000
     46 H163        2.0050    1.7440   -2.8840 hc        1 FXV      0.101000
     47 H17         2.9230    0.7740    0.7030 hc        1 FXV      0.125000
     48 H201        3.9170   -1.2590   -0.5690 hc        1 FXV      0.123000
     49 H202        2.9840   -0.6020   -1.7040 hc        1 FXV      0.123000
     50 H23         1.9370   -2.7130   -1.5910 ha        1 FXV      0.171000
     51 H25        -1.2360   -3.1120    1.0010 ha        1 FXV      0.146000
     52 H26        -0.4220   -1.2770    2.2380 ha        1 FXV      0.159333
     53 H27         1.5520   -0.1300    1.6110 ha        1 FXV      0.159333
     54 H301       -1.0790   -3.2750   -2.7520 hn        1 FXV      0.288500
     55 H302       -1.0920   -4.8100   -2.9490 hn        1 FXV      0.288500
     56 H311        0.4710   -5.5890    0.1040 DU        1 FXV      0.280000
     57 H312       -0.2890   -6.2210   -1.1740 hn        1 FXV      0.263000
     58 H341        5.9180    0.3330    2.5120 h1        1 FXV      0.100000
     59 H342        6.6210    1.8260    2.7080 h1        1 FXV      0.100000
     60 H343        7.1080    0.8260    1.4870 h1        1 FXV      0.100000
@<TRIPOS>BOND
     1    1    6 1   
     2    1   34 1   
     3    2    3 1   
     4    3   35 1   
     5    4    5 1   
     6    4   36 1   
     7    5   33 1   
     8    6   37 1   
     9    7    8 1   
    10    7   38 1   
    11    8   13 1   
    12    9   10 1   
    13    9   39 1   
    14   10   40 1   
    15   11   12 1   
    16   12   41 1   
    17   13   14 1   
    18   13   31 1   
    19   14   15 1   
    20   14   42 1   
    21   15   16 1   
    22   15   17 1   
    23   15   43 1   
    24   16   44 1   
    25   16   45 1   
    26   16   46 1   
    27   17   18 1   
    28   17   20 1   
    29   17   47 1   
    30   18   19 1   
    31   18   30 1   
    32   19   32 1   
    33   20   26 1   
    34   20   48 1   
    35   20   49 1   
    36   21   26 1   
    37   21   50 1   
    38   22   23 1   
    39   22   27 1   
    40   23   51 1   
    41   24   25 1   
    42   24   52 1   
    43   25   53 1   
    44   27   28 1   
    45   27   29 1   
    46   28   54 1   
    47   28   55 1   
    48   29   57 1   
    49   32   58 1   
    50   32   59 1   
    51   32   60 1   
@<TRIPOS>SUBSTRUCTURE
     1 FXV         1 TEMP              0 ****  ****    0 ROOT
