@<TRIPOS>MOLECULE
FXV
   60    62     1     0     0
SMALL
bcc


@<TRIPOS>ATOM
      1 C1          6.6360    0.8360    1.5730 ca        1 FXV     -0.069500
      2 C2          5.9540    0.4200    0.4200 cp        1 FXV     -0.102000
      3 C3          6.6600    0.4250   -0.7910 ca        1 FXV     -0.069500
      4 C4          7.9900    0.8320   -0.8370 ca        1 FXV     -0.223800
      5 N1          8.6730    1.2530    0.3040 na        1 FXV      0.260600
      6 C6          7.9640    1.2440    1.5050 ca        1 FXV     -0.223800
      7 C7          2.3410   -0.0760   -0.5010 ca        1 FXV     -0.085500
      8 C8          1.8780   -0.8220    0.5870 ca        1 FXV     -0.154600
      9 C9          2.7560   -1.1480    1.6290 ca        1 FXV     -0.085500
     10 C10         4.0880   -0.7450    1.5730 ca        1 FXV     -0.131000
     11 C11         4.5610   -0.0040    0.4800 cp        1 FXV      0.008000
     12 C12         3.6720    0.3290   -0.5540 ca        1 FXV     -0.131000
     13 N14        -0.2160   -1.5710   -0.4690 n         1 FXV     -0.576900
     14 C15        -1.5080   -2.2130   -0.4540 c3        1 FXV      0.108700
     15 C16        -1.4920   -3.5870   -1.1270 c3        1 FXV     -0.122100
     16 C17        -2.6020   -1.3440   -1.1490 c3        1 FXV     -0.124700
     17 C18        -2.4390    0.0970   -0.7390 c         1 FXV      0.673100
     18 O19        -1.7910    0.8230   -1.6940 os        1 FXV     -0.424900
     19 C20        -3.9810   -1.9330   -0.8460 c3        1 FXV     -0.035100
     20 C23        -5.2540   -0.1870    0.3710 ca        1 FXV     -0.052000
     21 C24        -6.2000    0.8420    0.4130 ca        1 FXV     -0.255900
     22 C25        -7.0630    1.0580   -0.6710 ca        1 FXV     -0.080000
     23 C26        -6.9370    0.2620   -1.8060 ca        1 FXV     -0.122000
     24 C27        -5.9420   -0.7170   -1.8820 ca        1 FXV     -0.058000
     25 C28        -5.0830   -0.9350   -0.8010 ca        1 FXV     -0.087300
     26 N30        -7.3800    2.1230    2.1360 nh        1 FXV     -0.470600
     27 N31        -5.0030    2.1720    2.0550 nh        1 FXV     -0.454700
     28 O32        -2.7880    0.6900    0.2900 o         1 FXV     -0.608000
     29 C34        -1.5060    2.1920   -1.3990 c3        1 FXV      0.123700
     30 O1          9.8370    1.6130    0.2530 o         1 FXV     -0.258000
     31 H1          6.1290    0.8570    2.5510 ha        1 FXV      0.156000
     32 H3          6.1790    0.0980   -1.7250 ha        1 FXV      0.156000
     33 H4          8.5790    0.8440   -1.7700 h4        1 FXV      0.192000
     34 H6          8.5320    1.5830    2.3890 h4        1 FXV      0.192000
     35 H7          1.6620    0.2150   -1.3180 ha        1 FXV      0.147500
     36 H9          2.3820   -1.7190    2.4940 ha        1 FXV      0.147500
     37 H10         4.7740   -1.0180    2.3900 ha        1 FXV      0.145500
     38 H12         4.0280    0.9240   -1.4090 ha        1 FXV      0.145500
     39 H14         0.2950   -1.6130   -1.3200 hn        1 FXV      0.317500
     40 H15        -1.8130   -2.3420    0.6310 h1        1 FXV      0.099700
     41 H161       -0.7330   -4.2480   -0.6420 hc        1 FXV      0.053700
     42 H162       -2.4940   -4.0680   -1.0180 hc        1 FXV      0.053700
     43 H163       -1.2500   -3.5050   -2.2130 hc        1 FXV      0.053700
     44 H17        -2.4330   -1.3880   -2.2640 hc        1 FXV      0.093700
     45 H201       -4.2030   -2.7050   -1.6320 hc        1 FXV      0.075200
     46 H202       -3.9480   -2.4700    0.1430 hc        1 FXV      0.075200
     47 H23        -4.6060   -0.4040    1.2390 ha        1 FXV      0.170000
     48 H25        -7.8170    1.8600   -0.6470 ha        1 FXV      0.147000
     49 H26        -7.6170    0.4170   -2.6600 ha        1 FXV      0.165000
     50 H27        -5.8330   -1.3150   -2.8030 ha        1 FXV      0.162000
     51 H301       -7.4480    2.7410    2.9130 hn        1 FXV      0.330200
     52 H302       -8.2230    1.7540    1.7510 hn        1 FXV      0.330200
     53 H311       -4.1630    1.8480    1.6010 hn        1 FXV      0.330200
     54 H312       -4.9090    2.7570    2.8550 hn        1 FXV      0.330200
     55 H341       -0.9370    2.5400   -2.2970 h1        1 FXV      0.056033
     56 H342       -2.4600    2.7590   -1.2780 h1        1 FXV      0.056033
     57 H343       -0.8920    2.2650   -0.4700 h1        1 FXV      0.056033
     58 C13         0.4660   -1.2760    0.7060 c         1 FXV      0.677700
     59 C29        -6.1980    1.7480    1.5910 ce        1 FXV      0.518400
     60 O33        -0.1030   -1.3780    1.8110 o         1 FXV     -0.599100
@<TRIPOS>BOND
     1    1    2 ar  
     2    1    6 ar  
     3    1   31 1   
     4    2    3 ar  
     5    2   11 1   
     6    3    4 ar  
     7    3   32 1   
     8    4    5 2   
     9    4   33 1   
    10    5    6 1   
    11    5   30 1   
    12    6   34 1   
    13    7    8 ar  
    14    7   12 ar  
    15    7   35 1   
    16    8    9 ar  
    17    8   58 1   
    18    9   10 ar  
    19    9   36 1   
    20   10   11 ar  
    21   10   37 1   
    22   11   12 ar  
    23   12   38 1   
    24   13   14 1   
    25   13   39 1   
    26   13   58 1   
    27   14   15 1   
    28   14   16 1   
    29   14   40 1   
    30   15   41 1   
    31   15   42 1   
    32   15   43 1   
    33   16   17 1   
    34   16   19 1   
    35   16   44 1   
    36   17   18 1   
    37   17   28 2   
    38   18   29 1   
    39   19   25 1   
    40   19   45 1   
    41   19   46 1   
    42   20   21 ar  
    43   20   25 ar  
    44   20   47 1   
    45   21   22 ar  
    46   21   59 1   
    47   22   23 ar  
    48   22   48 1   
    49   23   24 ar  
    50   23   49 1   
    51   24   25 ar  
    52   24   50 1   
    53   26   51 1   
    54   26   52 1   
    55   26   59 2   
    56   27   53 1   
    57   27   54 1   
    58   27   59 1   
    59   29   55 1   
    60   29   56 1   
    61   29   57 1   
    62   58   60 2   
@<TRIPOS>SUBSTRUCTURE
     1 FXV         1 TEMP              0 ****  ****    0 ROOT
