@<TRIPOS>MOLECULE
FXY
   31    30     1     0     0
SMALL
bcc


@<TRIPOS>ATOM
      1 O10         0.3540   -0.5990   -0.8420 o         1 FXY     -0.371100
      2 C9          0.6450    0.2620   -0.0360 c         1 FXY      0.544900
      3 N8          1.7650   -0.0340    0.9210 ny        1 FXY     -0.703800
      4 C1          1.3010    0.0090    2.3620 c3        1 FXY      0.134500
      5 C25         1.0970    1.4400    2.8380 c3        1 FXY     -0.136100
      6 C2          2.2970   -0.7090    3.2780 c3        1 FXY     -0.116400
      7 C3          2.4380   -2.1830    2.9680 c3        1 FXY     -0.095400
      8 C4          3.1500   -2.9000    4.0990 c3        1 FXY     -0.078400
      9 C5          3.3430   -4.3670    3.7760 c3        1 FXY     -0.080400
     10 C6          4.0420   -5.0870    4.9100 c3        1 FXY     -0.079400
     11 C7          4.2400   -6.5470    4.5930 c3        1 FXY     -0.096100
     12 H9          0.1960    1.2690    0.1130 hx        1 FXY      0.135200
     13 HN8         2.5140    0.6550    0.7900 hn        1 FXY      0.463300
     14 H1          0.3150   -0.5480    2.3850 hx        1 FXY      0.109700
     15 H251        0.3420    1.9820    2.2200 hc        1 FXY      0.078700
     16 H252        0.7160    1.4070    3.8920 hc        1 FXY      0.078700
     17 H253        2.0550    2.0150    2.8370 hc        1 FXY      0.078700
     18 H21         1.9090   -0.5880    4.3280 hc        1 FXY      0.088700
     19 H22         3.2990   -0.2050    3.2400 hc        1 FXY      0.088700
     20 H31         3.0260   -2.3360    2.0240 hc        1 FXY      0.042700
     21 H32         1.4270   -2.6450    2.8170 hc        1 FXY      0.042700
     22 H41         2.5520   -2.8000    5.0440 hc        1 FXY      0.054200
     23 H42         4.1460   -2.4190    4.2820 hc        1 FXY      0.054200
     24 H51         2.3470   -4.8460    3.5840 hc        1 FXY      0.043700
     25 H52         3.9490   -4.4710    2.8370 hc        1 FXY      0.043700
     26 H61         3.4350   -4.9840    5.8490 hc        1 FXY      0.044200
     27 H62         5.0360   -4.6040    5.1050 hc        1 FXY      0.044200
     28 H71         4.7550   -7.0580    5.4420 hc        1 FXY      0.041033
     29 H72         4.8650   -6.6710    3.6760 hc        1 FXY      0.041033
     30 H73         3.2590   -7.0520    4.4210 hc        1 FXY      0.041033
     31 H82         2.1520   -0.9720    0.7330 hn        1 FXY      0.463300
@<TRIPOS>BOND
     1    1    2 2   
     2    2    3 1   
     3    2   12 1   
     4    3    4 1   
     5    3   13 1   
     6    3   31 1   
     7    4    5 1   
     8    4    6 1   
     9    4   14 1   
    10    5   15 1   
    11    5   16 1   
    12    5   17 1   
    13    6    7 1   
    14    6   18 1   
    15    6   19 1   
    16    7    8 1   
    17    7   20 1   
    18    7   21 1   
    19    8    9 1   
    20    8   22 1   
    21    8   23 1   
    22    9   10 1   
    23    9   24 1   
    24    9   25 1   
    25   10   11 1   
    26   10   26 1   
    27   10   27 1   
    28   11   28 1   
    29   11   29 1   
    30   11   30 1   
@<TRIPOS>SUBSTRUCTURE
     1 FXY         1 TEMP              0 ****  ****    0 ROOT
