@<TRIPOS>MOLECULE
FXY
   31    30     1     0     0
SMALL
bcc


@<TRIPOS>ATOM
      1 O10         0.5060   -0.5220   -0.8910 o         1 FXY     -0.371100
      2 C9          0.7300    0.3170   -0.0430 c         1 FXY      0.544900
      3 N8          1.8100    0.0190    0.9590 n4        1 FXY     -0.703800
      4 C1          1.2750   -0.0010    2.3760 c3        1 FXY      0.134500
      5 C25         1.0050    1.4050    2.8900 c3        1 FXY     -0.136100
      6 C2          2.2450   -0.7230    3.3160 c3        1 FXY     -0.116400
      7 C3          2.4430   -2.1820    2.9640 c3        1 FXY     -0.095400
      8 C4          3.1210   -2.9180    4.1040 c3        1 FXY     -0.078400
      9 C5          3.3700   -4.3670    3.7420 c3        1 FXY     -0.080400
     10 C6          4.0360   -5.1060    4.8840 c3        1 FXY     -0.079400
     11 C7          4.2900   -6.5490    4.5290 c3        1 FXY     -0.096100
     12 H9          0.2430    1.3050    0.1180 hx        1 FXY      0.135200
     13 HN8         2.5430    0.7340    0.8890 hn        1 FXY      0.463300
     14 H1          0.3050   -0.5860    2.3310 hx        1 FXY      0.109700
     15 H251        0.2660    1.9480    2.2520 hc        1 FXY      0.078700
     16 H252        0.5740    1.3250    3.9210 hc        1 FXY      0.078700
     17 H253        1.9450    2.0060    2.9560 hc        1 FXY      0.078700
     18 H21         1.8030   -0.6490    4.3490 hc        1 FXY      0.088700
     19 H22         3.2320   -0.1910    3.3440 hc        1 FXY      0.088700
     20 H31         1.4530   -2.6660    2.7490 hc        1 FXY      0.042700
     21 H32         3.0790   -2.2860    2.0450 hc        1 FXY      0.042700
     22 H41         4.0950   -2.4170    4.3490 hc        1 FXY      0.054200
     23 H42         2.4780   -2.8650    5.0220 hc        1 FXY      0.054200
     24 H51         2.3980   -4.8660    3.4890 hc        1 FXY      0.043700
     25 H52         4.0210   -4.4230    2.8300 hc        1 FXY      0.043700
     26 H61         5.0070   -4.6040    5.1390 hc        1 FXY      0.044200
     27 H62         3.3850   -5.0510    5.7960 hc        1 FXY      0.044200
     28 H71         3.3320   -7.0730    4.2950 hc        1 FXY      0.041033
     29 H72         4.7800   -7.0750    5.3840 hc        1 FXY      0.041033
     30 H73         4.9590   -6.6260    3.6380 hc        1 FXY      0.041033
     31 H82         2.2340   -0.8990    0.7590 hn        1 FXY      0.463300
@<TRIPOS>BOND
     1    1    2 2   
     2    2    3 1   
     3    2   12 1   
     4    3    4 1   
     5    3   13 1   
     6    3   31 1   
     7    4    5 1   
     8    4    6 1   
     9    4   14 1   
    10    5   15 1   
    11    5   16 1   
    12    5   17 1   
    13    6    7 1   
    14    6   18 1   
    15    6   19 1   
    16    7    8 1   
    17    7   20 1   
    18    7   21 1   
    19    8    9 1   
    20    8   22 1   
    21    8   23 1   
    22    9   10 1   
    23    9   24 1   
    24    9   25 1   
    25   10   11 1   
    26   10   26 1   
    27   10   27 1   
    28   11   28 1   
    29   11   29 1   
    30   11   30 1   
@<TRIPOS>SUBSTRUCTURE
     1 FXY         1 TEMP              0 ****  ****    0 ROOT
