@<TRIPOS>MOLECULE
FXY
   30    29     1     0     0
SMALL
bcc


@<TRIPOS>ATOM
      1 O10         1.9240   -0.8400   -3.0730 o         1 FXY     -0.609100
      2 C9          1.5950    0.3530   -2.9600 c         1 FXY      0.659900
      3 N8          0.3790    0.7640   -2.4770 n         1 FXY     -0.581900
      4 C1         -0.6640   -0.1460   -2.0570 c3        1 FXY      0.091700
      5 C25        -1.8620   -0.1420   -3.0110 c3        1 FXY     -0.111100
      6 C2         -1.1780    0.1520   -0.6380 c3        1 FXY     -0.091400
      7 C3         -0.1210   -0.0760    0.4190 c3        1 FXY     -0.079400
      8 C4         -0.6960    0.0970    1.8100 c3        1 FXY     -0.079400
      9 C5          0.3620   -0.1170    2.8700 c3        1 FXY     -0.079400
     10 C6         -0.2110    0.0510    4.2620 c3        1 FXY     -0.080400
     11 C7          0.8400   -0.1600    5.3210 c3        1 FXY     -0.093100
     12 H9          2.2720    1.1930   -3.2420 h5        1 FXY      0.023200
     13 HN8         0.1750    1.7320   -2.4220 hn        1 FXY      0.306500
     14 H1         -0.2170   -1.1880   -2.0590 h1        1 FXY      0.088700
     15 H251       -2.3730    0.8500   -3.0090 hc        1 FXY      0.040700
     16 H252       -1.5400   -0.3780   -4.0530 hc        1 FXY      0.040700
     17 H253       -2.5930   -0.9190   -2.6820 hc        1 FXY      0.040700
     18 H21        -2.0510   -0.5260   -0.4440 hc        1 FXY      0.044200
     19 H22        -1.5560    1.2060   -0.5790 hc        1 FXY      0.044200
     20 H31         0.7270    0.6430    0.2760 hc        1 FXY      0.045700
     21 H32         0.3020   -1.1100    0.3130 hc        1 FXY      0.045700
     22 H41        -1.5350   -0.6310    1.9640 hc        1 FXY      0.038200
     23 H42        -1.1290    1.1270    1.9130 hc        1 FXY      0.038200
     24 H51         1.2000    0.6130    2.7190 hc        1 FXY      0.041200
     25 H52         0.7970   -1.1450    2.7650 hc        1 FXY      0.041200
     26 H61        -1.0490   -0.6800    4.4110 hc        1 FXY      0.038200
     27 H62        -0.6480    1.0800    4.3640 hc        1 FXY      0.038200
     28 H71         0.3970   -0.0320    6.3380 hc        1 FXY      0.033033
     29 H72         1.2700   -1.1880    5.2500 hc        1 FXY      0.033033
     30 H73         1.6720    0.5760    5.2040 hc        1 FXY      0.033033
@<TRIPOS>BOND
     1    1    2 2   
     2    2    3 1   
     3    2   12 1   
     4    3    4 1   
     5    3   13 1   
     6    4    5 1   
     7    4    6 1   
     8    4   14 1   
     9    5   15 1   
    10    5   16 1   
    11    5   17 1   
    12    6    7 1   
    13    6   18 1   
    14    6   19 1   
    15    7    8 1   
    16    7   20 1   
    17    7   21 1   
    18    8    9 1   
    19    8   22 1   
    20    8   23 1   
    21    9   10 1   
    22    9   24 1   
    23    9   25 1   
    24   10   11 1   
    25   10   26 1   
    26   10   27 1   
    27   11   28 1   
    28   11   29 1   
    29   11   30 1   
@<TRIPOS>SUBSTRUCTURE
     1 FXY         1 TEMP              0 ****  ****    0 ROOT
