@<TRIPOS>MOLECULE
FXY
   31    30     1     0     0
SMALL
bcc


@<TRIPOS>ATOM
      1 O10         0.3070   -0.5940   -0.8140 o         1 FXY     -0.371100
      2 C9          0.6290    0.2690   -0.0220 c         1 FXY      0.544900
      3 N8          1.7620   -0.0400    0.9160 n4        1 FXY     -0.703800
      4 C1          1.3270    0.0250    2.3650 c3        1 FXY      0.134500
      5 C25         1.1580    1.4630    2.8330 c3        1 FXY     -0.136100
      6 C2          2.3270   -0.7030    3.2690 c3        1 FXY     -0.116400
      7 C3          2.4350   -2.1830    2.9700 c3        1 FXY     -0.095400
      8 C4          3.1560   -2.9030    4.0930 c3        1 FXY     -0.078400
      9 C5          3.3160   -4.3760    3.7800 c3        1 FXY     -0.080400
     10 C6          4.0230   -5.0990    4.9070 c3        1 FXY     -0.079400
     11 C7          4.1890   -6.5640    4.5990 c3        1 FXY     -0.096100
     12 H9          0.2020    1.2850    0.1260 hx        1 FXY      0.135200
     13 HN8         2.1280   -0.9860    0.7290 hn        1 FXY      0.463300
     14 H1          0.3310   -0.5140    2.4130 hx        1 FXY      0.109700
     15 H251        0.4010    2.0140    2.2240 hc        1 FXY      0.078700
     16 H252        0.7970    1.4460    3.8940 hc        1 FXY      0.078700
     17 H253        2.1260    2.0200    2.8080 hc        1 FXY      0.078700
     18 H21         3.3370   -0.2180    3.2070 hc        1 FXY      0.088700
     19 H22         1.9620   -0.5660    4.3250 hc        1 FXY      0.088700
     20 H31         1.4130   -2.6270    2.8420 hc        1 FXY      0.042700
     21 H32         3.0020   -2.3550    2.0160 hc        1 FXY      0.042700
     22 H41         2.5790   -2.7830    5.0480 hc        1 FXY      0.054200
     23 H42         4.1650   -2.4390    4.2530 hc        1 FXY      0.054200
     24 H51         2.3080   -4.8380    3.6120 hc        1 FXY      0.043700
     25 H52         3.9010   -4.5000    2.8300 hc        1 FXY      0.043700
     26 H61         5.0300   -4.6330    5.0770 hc        1 FXY      0.044200
     27 H62         3.4370   -4.9760    5.8560 hc        1 FXY      0.044200
     28 H71         4.7930   -6.7090    3.6710 hc        1 FXY      0.041033
     29 H72         4.7110   -7.0780    5.4420 hc        1 FXY      0.041033
     30 H73         3.1960   -7.0530    4.4510 hc        1 FXY      0.041033
     31 H82         2.5210    0.6340    0.7650 hn        1 FXY      0.463300
@<TRIPOS>BOND
     1    1    2 2   
     2    2    3 1   
     3    2   12 1   
     4    3    4 1   
     5    3   13 1   
     6    3   31 1   
     7    4    5 1   
     8    4    6 1   
     9    4   14 1   
    10    5   15 1   
    11    5   16 1   
    12    5   17 1   
    13    6    7 1   
    14    6   18 1   
    15    6   19 1   
    16    7    8 1   
    17    7   20 1   
    18    7   21 1   
    19    8    9 1   
    20    8   22 1   
    21    8   23 1   
    22    9   10 1   
    23    9   24 1   
    24    9   25 1   
    25   10   11 1   
    26   10   26 1   
    27   10   27 1   
    28   11   28 1   
    29   11   29 1   
    30   11   30 1   
@<TRIPOS>SUBSTRUCTURE
     1 FXY         1 TEMP              0 ****  ****    0 ROOT
