@<TRIPOS>MOLECULE
FY0
   34    31     1     0     0
SMALL
bcc


@<TRIPOS>ATOM
      1 C1          1.4970    0.8880   -1.3350 c1        1 FY0     -0.004500
      2 C2          2.8830    0.8810   -1.3540 c1        1 FY0     -0.271500
      3 C3          3.5930    1.0500   -0.1760 c1        1 FY0      0.342600
      4 C4          2.9180    1.2260    1.0210 c1        1 FY0     -0.139000
      5 C5          1.5310    1.2330    1.0410 c1        1 FY0     -0.139000
      6 C6          0.8210    1.0640   -0.1380 c1        1 FY0     -0.241100
      7 O1          4.9980    0.9980   -0.1890 os        1 FY0     -0.402000
      8 P1          5.7990    2.3480   -0.3710 p5        1 FY0      1.335900
      9 O2          5.0710    3.2380   -1.3490 o         1 FY0     -0.868500
     10 O3          5.9110    3.0510    0.9610 o         1 FY0     -0.868500
     11 O4          7.1820    2.0460   -0.8970 o         1 FY0     -0.868500
     12 C7         -0.6920    1.1280   -0.1250 c3        1 FY0     -0.009300
     13 C8         -1.2570   -0.2690   -0.2520 c3        1 FY0     -0.160700
     14 C9         -1.6700   -0.5190   -1.6860 c         1 FY0      0.897600
     15 O5         -2.4910    0.2530   -2.2480 o         1 FY0     -0.871800
     16 O6         -1.1920   -1.4980   -2.3170 o         1 FY0     -0.871800
     17 C10        -2.4630   -0.4100    0.6520 c3        1 FY0     -0.126400
     18 C11        -2.9390   -1.8460    0.6370 c         1 FY0      0.662100
     19 N1         -4.2710   -2.1550    1.0190 n         1 FY0     -0.574900
     20 C12        -4.6930   -3.5140    1.0950 c3        1 FY0      0.087300
     21 O7         -2.1720   -2.7370    0.3320 o         1 FY0     -0.676100
     22 H1          0.9970    0.7700   -2.1650 ha        1 FY0      0.020500
     23 H2          3.3590    0.7570   -2.1980 ha        1 FY0      0.040500
     24 H3          3.4180    1.3440    1.8510 ha        1 FY0      0.038000
     25 H4          1.0560    1.3340    1.8870 ha        1 FY0      0.038000
     26 H7         -0.9940    1.5280    0.7160 hc        1 FY0      0.019700
     27 H8         -1.0010    1.6740   -0.8750 hc        1 FY0      0.019700
     28 H9         -0.5780   -0.9200    0.0090 hc        1 FY0      0.050700
     29 H11        -3.1790    0.1750    0.3330 hc        1 FY0      0.072700
     30 H12        -2.2180   -0.1570    1.5640 hc        1 FY0      0.072700
     31 H13        -4.8550   -1.4840    1.2200 hn        1 FY0      0.357500
     32 H14        -4.2630   -3.9470    1.8640 h1        1 FY0      0.012367
     33 H15        -4.4370   -3.9820    0.2710 h1        1 FY0      0.012367
     34 H16        -5.6680   -3.5480    1.2020 h1        1 FY0      0.012367
@<TRIPOS>BOND
     1    1    6 3   
     2    1   22 1   
     3    2    3 3   
     4    2   23 1   
     5    3    7 1   
     6    4    5 3   
     7    4   24 1   
     8    5   25 1   
     9    6   12 1   
    10    7    8 1   
    11    8    9 1   
    12    8   10 1   
    13    8   11 1   
    14   12   13 1   
    15   12   26 1   
    16   12   27 1   
    17   13   14 1   
    18   13   17 1   
    19   13   28 1   
    20   14   15 1   
    21   14   16 1   
    22   17   18 1   
    23   17   29 1   
    24   17   30 1   
    25   18   19 1   
    26   18   21 2   
    27   19   20 1   
    28   19   31 1   
    29   20   32 1   
    30   20   33 1   
    31   20   34 1   
@<TRIPOS>SUBSTRUCTURE
     1 FY0         1 TEMP              0 ****  ****    0 ROOT
