@<TRIPOS>MOLECULE
FY0
   34    33     1     0     0
SMALL
bcc


@<TRIPOS>ATOM
      1 C1         -0.2190   -0.1190   -0.1060 ca        1 FY0     -0.066500
      2 C2          1.1230   -0.0500    0.1990 ca        1 FY0     -0.328000
      3 C3          1.5780    0.3590    1.5010 ca        1 FY0      0.316000
      4 C4          0.5410    0.6500    2.4550 ca        1 FY0     -0.328000
      5 C5         -0.7940    0.5720    2.1170 ca        1 FY0     -0.066500
      6 C6         -1.2160    0.2010    0.8310 ca        1 FY0     -0.270000
      7 O1          2.8170    0.4590    1.8020 o         1 FY0     -0.604000
      8 P1          5.0280    0.6850    1.6980 p3        1 FY0      2.527000
      9 O2          5.3800   -0.1550    2.8690 o         1 FY0     -1.185667
     10 O3          5.2750    0.1260    0.3480 o         1 FY0     -1.185667
     11 O4          5.0990    2.1580    1.8610 o         1 FY0     -1.185667
     12 C7         -2.6510    0.2330    0.4470 c3        1 FY0     -0.060000
     13 C8         -3.3850   -1.1040    0.5200 c3        1 FY0     -0.164000
     14 C9         -4.7510   -1.0010   -0.1900 c2        1 FY0      0.320000
     15 O5         -5.5200   -0.0230    0.0360 o         1 FY0     -0.604000
     16 O6         -5.0790   -1.9430   -0.9860 o         1 FY0     -0.604000
     17 C10        -3.5720   -1.5160    1.9680 c3        1 FY0     -0.153000
     18 C11        -4.1040   -2.9070    2.2400 c2        1 FY0      0.310000
     19 N1         -4.3630   -3.7650    1.1890 n         1 FY0     -0.376000
     20 C12        -4.9840   -5.0290    1.3930 c3        1 FY0     -0.060000
     21 O7         -4.2790   -3.2980    3.4240 o         1 FY0     -0.469000
     22 H1         -0.5310   -0.4280   -1.1170 ha        1 FY0      0.072500
     23 H2          1.8870   -0.2980   -0.5480 ha        1 FY0      0.107500
     24 H3          0.8480    0.9450    3.4660 ha        1 FY0      0.107500
     25 H4         -1.5590    0.8150    2.8730 ha        1 FY0      0.072500
     26 H7         -3.2040    0.9690    1.0910 hc        1 FY0      0.061000
     27 H8         -2.7390    0.6010   -0.6130 hc        1 FY0      0.061000
     28 H9         -2.7620   -1.8710   -0.0160 hc        1 FY0      0.088000
     29 H11        -4.2910   -0.8030    2.4560 hc        1 FY0      0.115000
     30 H12        -2.5840   -1.4320    2.4990 hc        1 FY0      0.115000
     31 H13        -4.4280   -3.3730    0.2630 hn        1 FY0      0.283000
     32 H14        -4.7770   -5.4050    2.4310 h1        1 FY0      0.051333
     33 H15        -4.5790   -5.7650    0.6470 h1        1 FY0      0.051333
     34 H16        -6.1000   -4.9750    1.2540 h1        1 FY0      0.051333
@<TRIPOS>BOND
     1    1    2 1   
     2    1    6 1   
     3    1   22 1   
     4    2    3 1   
     5    2   23 1   
     6    3    4 1   
     7    3    7 1   
     8    4    5 1   
     9    4   24 1   
    10    5    6 1   
    11    5   25 1   
    12    6   12 1   
    13    8    9 1   
    14    8   10 1   
    15    8   11 1   
    16   12   13 1   
    17   12   26 1   
    18   12   27 1   
    19   13   14 1   
    20   13   17 1   
    21   13   28 1   
    22   14   15 1   
    23   14   16 1   
    24   17   18 1   
    25   17   29 1   
    26   17   30 1   
    27   18   19 1   
    28   18   21 1   
    29   19   20 1   
    30   19   31 1   
    31   20   32 1   
    32   20   33 1   
    33   20   34 1   
@<TRIPOS>SUBSTRUCTURE
     1 FY0         1 TEMP              0 ****  ****    0 ROOT
