@<TRIPOS>MOLECULE
FY0
   34    33     1     0     0
SMALL
bcc


@<TRIPOS>ATOM
      1 C1         -0.4670   -1.0430    0.7490 ca        1 FY0     -0.064500
      2 C2         -1.7330   -0.8490    0.2390 ca        1 FY0     -0.328500
      3 C3         -2.2420    0.4690   -0.0340 ca        1 FY0      0.318000
      4 C4         -1.3250    1.5490    0.2220 ca        1 FY0     -0.328500
      5 C5         -0.0650    1.3210    0.7340 ca        1 FY0     -0.064500
      6 C6          0.3970    0.0290    1.0280 ca        1 FY0     -0.269000
      7 O1         -3.4230    0.6770   -0.4760 o         1 FY0     -0.603000
      8 P1         -5.6060    0.5950   -0.9490 p3        1 FY0      2.527000
      9 O2         -5.5910    1.4510   -2.1600 o         1 FY0     -1.185000
     10 O3         -5.7630   -0.8670   -1.1390 o         1 FY0     -1.185000
     11 O4         -6.1200    1.1890    0.3090 o         1 FY0     -1.185000
     12 C7          1.6980   -0.1880    1.7110 c3        1 FY0     -0.061000
     13 C8          2.9190   -0.4030    0.8160 c3        1 FY0     -0.151000
     14 C9          4.1270   -0.7380    1.7120 c2        1 FY0      0.317000
     15 O5          4.7790    0.2020    2.2760 o         1 FY0     -0.607000
     16 O6          4.4650   -1.9490    1.8550 o         1 FY0     -0.607000
     17 C10         3.1610    0.8300   -0.0400 c3        1 FY0     -0.157000
     18 C11         4.3250    0.6760   -0.9990 c2        1 FY0      0.306000
     19 N1          5.6070    0.7750   -0.4680 n         1 FY0     -0.384000
     20 C12         6.7520    0.3920   -1.2230 c3        1 FY0     -0.067000
     21 O7          4.1690    0.5510   -2.2360 o         1 FY0     -0.437000
     22 H1         -0.1170   -2.0670    0.9550 ha        1 FY0      0.072000
     23 H2         -2.3960   -1.6980    0.0320 ha        1 FY0      0.106000
     24 H3         -1.6670    2.5680    0.0030 ha        1 FY0      0.106000
     25 H4          0.6040    2.1750    0.9290 ha        1 FY0      0.072000
     26 H7          1.9180    0.6900    2.3790 hc        1 FY0      0.060000
     27 H8          1.6180   -1.0940    2.3730 hc        1 FY0      0.060000
     28 H9          2.7260   -1.2820    0.1460 hc        1 FY0      0.091000
     29 H11         2.2380    1.0390   -0.6450 hc        1 FY0      0.111500
     30 H12         3.3520    1.7040    0.6370 hc        1 FY0      0.111500
     31 H13         5.6790    0.6820    0.5330 hn        1 FY0      0.271000
     32 H14         7.6030    1.0870   -0.9830 h1        1 FY0      0.051667
     33 H15         7.0850   -0.6560   -0.9820 h1        1 FY0      0.051667
     34 H16         6.5340    0.4500   -2.3220 h1        1 FY0      0.051667
@<TRIPOS>BOND
     1    1    2 1   
     2    1    6 1   
     3    1   22 1   
     4    2    3 1   
     5    2   23 1   
     6    3    4 1   
     7    3    7 1   
     8    4    5 1   
     9    4   24 1   
    10    5    6 1   
    11    5   25 1   
    12    6   12 1   
    13    8    9 1   
    14    8   10 1   
    15    8   11 1   
    16   12   13 1   
    17   12   26 1   
    18   12   27 1   
    19   13   14 1   
    20   13   17 1   
    21   13   28 1   
    22   14   15 1   
    23   14   16 1   
    24   17   18 1   
    25   17   29 1   
    26   17   30 1   
    27   18   19 1   
    28   18   21 1   
    29   19   20 1   
    30   19   31 1   
    31   20   32 1   
    32   20   33 1   
    33   20   34 1   
@<TRIPOS>SUBSTRUCTURE
     1 FY0         1 TEMP              0 ****  ****    0 ROOT
