@<TRIPOS>MOLECULE
FY0
   35    35     1     0     0
SMALL
bcc


@<TRIPOS>ATOM
      1 C1          0.0000    0.0000    0.0000 ca        1 FY0     -0.081500
      2 C2          1.3820    0.0000    0.0000 ca        1 FY0     -0.178500
      3 C3          2.0730    0.0000    1.2020 ca        1 FY0      0.286100
      4 C4          1.3760   -0.0010    2.4010 ca        1 FY0     -0.178500
      5 C5         -0.0050   -0.0010    2.3950 ca        1 FY0     -0.081500
      6 C6         -0.6930   -0.0010    1.1960 ca        1 FY0     -0.195300
      7 O1          3.4330   -0.0010    1.2050 os        1 FY0     -0.368500
      8 P1          4.0890    1.4690    1.2060 p5        1 FY0      0.710900
      9 O2          5.6880    1.3440    1.0770 o         1 FY0     -0.676833
     10 O3          3.7180    2.2210    2.5820 o         1 FY0     -0.676833
     11 O4          3.5600    2.2460    0.0630 o         1 FY0     -0.676833
     12 C7         -2.2000    0.0010    1.1930 c3        1 FY0      0.079900
     13 C8         -2.7100   -1.4410    1.1920 c3        1 FY0     -0.153700
     14 C9         -2.3100   -2.1140   -0.0950 c         1 FY0      0.976600
     15 O5         -2.6520   -3.3920   -0.3190 o         1 FY0     -0.850800
     16 O6         -1.6800   -1.5040   -0.9260 o         1 FY0     -0.850800
     17 C10        -4.2350   -1.4420    1.3150 c3        1 FY0     -0.043400
     18 C11        -4.7280   -2.8610    1.4360 c         1 FY0      0.225100
     19 N1         -6.0480   -3.1080    1.5570 ny        1 FY0      0.036200
     20 C12        -6.5270   -4.4870    1.6750 c3        1 FY0      0.020100
     21 O7         -3.9380   -3.7810    1.4260 o         1 FY0     -0.331100
     22 H1         -0.5410    0.0000   -0.9390 ha        1 FY0      0.095500
     23 H2          1.9240    0.0010   -0.9380 ha        1 FY0      0.110000
     24 H3          1.9140   -0.0630    3.3400 ha        1 FY0      0.110000
     25 H4         -0.5510   -0.0010    3.3320 ha        1 FY0      0.095500
     26 H7         -2.5630    0.5120    2.0770 hc        1 FY0     -0.010300
     27 H8         -2.5590    0.5120    0.3080 hc        1 FY0     -0.010300
     28 H9         -2.2800   -1.9780    2.0290 hc        1 FY0      0.046700
     29 H11        -4.6690   -0.9840    0.4340 hc        1 FY0      0.011700
     30 H12        -4.5270   -0.8820    2.1950 hc        1 FY0      0.011700
     31 H13        -6.3620   -2.6200    2.3720 hn        1 FY0      0.211300
     32 H14        -6.0830   -4.9510    2.5470 hx        1 FY0      0.041700
     33 H15        -7.6060   -4.4870    1.7760 hx        1 FY0      0.041700
     34 H16        -6.2480   -5.0430    0.7880 hx        1 FY0      0.041700
     35 H121       -6.4930   -2.7140    0.7520 hn        1 FY0      0.211300
@<TRIPOS>BOND
     1    1    2 ar  
     2    1    6 ar  
     3    1   22 1   
     4    2    3 ar  
     5    2   23 1   
     6    3    4 ar  
     7    3    7 1   
     8    4    5 ar  
     9    4   24 1   
    10    5    6 ar  
    11    5   25 1   
    12    6   12 1   
    13    7    8 1   
    14    8    9 1   
    15    8   10 1   
    16    8   11 1   
    17   12   13 1   
    18   12   26 1   
    19   12   27 1   
    20   13   14 1   
    21   13   17 1   
    22   13   28 1   
    23   14   15 1   
    24   14   16 1   
    25   17   18 1   
    26   17   29 1   
    27   17   30 1   
    28   18   19 1   
    29   18   21 2   
    30   19   20 1   
    31   19   31 1   
    32   19   35 1   
    33   20   32 1   
    34   20   33 1   
    35   20   34 1   
@<TRIPOS>SUBSTRUCTURE
     1 FY0         1 TEMP              0 ****  ****    0 ROOT
