@<TRIPOS>MOLECULE
FYA
   59    62     1     0     0
SMALL
bcc


@<TRIPOS>ATOM
      1 C          -0.1980    1.6900   -0.9410 c3        1 FYA      0.194400
      2 CA          1.0380    0.9790   -0.3230 c3        1 FYA      0.089500
      3 N           0.6270   -0.0730    0.6560 n4        1 FYA     -0.863600
      4 CB          1.9120    0.4060   -1.4420 c3        1 FYA     -0.056100
      5 CG          2.9980   -0.4640   -0.9140 ca        1 FYA     -0.139300
      6 CD1         2.8460   -1.8560   -0.9110 ca        1 FYA     -0.133500
      7 CD2         4.1870    0.1010   -0.4390 ca        1 FYA     -0.133500
      8 CE1         3.8690   -2.6720   -0.4320 ca        1 FYA     -0.118000
      9 CE2         5.2090   -0.7180    0.0410 ca        1 FYA     -0.118000
     10 CZ          5.0510   -2.1040    0.0460 ca        1 FYA     -0.110000
     11 P          -2.2350    2.0570    0.6490 p5        1 FYA      1.485800
     12 O1P        -3.3710    2.6470   -0.0770 o         1 FYA     -0.833500
     13 O2P        -1.9680    0.6170    0.8890 o         1 FYA     -0.833500
     14 O3P        -0.7920    2.5290   -0.0110 os        1 FYA     -0.582200
     15 O5'        -2.1150    2.8480    2.0670 os        1 FYA     -0.567200
     16 C5'        -2.6030    4.1570    2.1240 c3        1 FYA      0.175400
     17 C4'        -3.8700    4.2520    2.9890 c3        1 FYA      0.106100
     18 O4'        -4.5250    5.4990    2.6890 os        1 FYA     -0.405600
     19 C3'        -4.8860    3.1230    2.7430 c3        1 FYA      0.094100
     20 O3'        -5.3110    2.6410    4.0020 oh        1 FYA     -0.586800
     21 C2'        -6.0750    3.7720    1.9990 c3        1 FYA      0.092100
     22 O2'        -7.3010    3.5890    2.6550 oh        1 FYA     -0.576800
     23 C1'        -5.7250    5.2950    1.9480 c3        1 FYA      0.208800
     24 N9         -5.5920    5.8210    0.5950 na        1 FYA     -0.263000
     25 C8         -5.0030    5.2240   -0.5410 cc        1 FYA      0.523700
     26 N7         -4.9950    6.0160   -1.6360 nd        1 FYA     -0.616100
     27 C5         -5.5870    7.2090   -1.2230 ca        1 FYA     -0.122200
     28 C6         -5.8900    8.4240   -1.8540 ca        1 FYA      0.491200
     29 N6         -5.5460    8.5730   -3.2790 n4        1 FYA     -0.811300
     30 N1         -6.4870    9.4540   -1.1970 nb        1 FYA     -0.686000
     31 C2         -6.7860    9.2440    0.1140 ca        1 FYA      0.660900
     32 N3         -6.5700    8.1330    0.8730 nb        1 FYA     -0.617000
     33 C4         -5.9710    7.1180    0.2100 ca        1 FYA      0.459800
     34 H1          0.1840    2.3240   -1.7900 h1        1 FYA      0.059200
     35 H2A        -0.9340    0.9310   -1.3280 h1        1 FYA      0.059200
     36 HA          1.6210    1.7520    0.2610 hx        1 FYA      0.108700
     37 HN1         0.4390   -0.9490    0.1670 hn        1 FYA      0.466800
     38 HN2         1.3630   -0.2270    1.3390 hn        1 FYA      0.466800
     39 HB1         2.3530    1.2740   -2.0030 hc        1 FYA      0.080200
     40 HB2         1.2710   -0.1680   -2.1650 hc        1 FYA      0.080200
     41 HD1         1.9290   -2.3120   -1.3150 ha        1 FYA      0.135500
     42 HD2         4.3210    1.1930   -0.4560 ha        1 FYA      0.135500
     43 HE1         3.7480   -3.7660   -0.4410 ha        1 FYA      0.148500
     44 HE2         6.1440   -0.2690    0.4080 ha        1 FYA      0.148500
     45 HZ          5.8600   -2.7500    0.4200 ha        1 FYA      0.150000
     46 H5'1       -2.8240    4.5380    1.0880 h1        1 FYA      0.051200
     47 H5'2       -1.8080    4.7960    2.6000 h1        1 FYA      0.051200
     48 H4'        -3.6020    4.3150    4.0800 h1        1 FYA      0.113700
     49 H3'        -4.4270    2.3070    2.1200 h1        1 FYA      0.082700
     50 HO'3       -5.7020    1.7700    3.8540 ho        1 FYA      0.425000
     51 H2'        -6.2150    3.3190    0.9800 h1        1 FYA      0.113700
     52 HO'2       -7.1610    3.7240    3.6070 ho        1 FYA      0.429000
     53 H1'        -6.5180    5.9140    2.4700 h2        1 FYA      0.126700
     54 H8         -4.5890    4.1820   -0.5190 h5        1 FYA      0.180800
     55 H61        -4.5400    8.3940   -3.3890 hn        1 FYA      0.473133
     56 H62        -6.0730    7.8730   -3.8140 hn        1 FYA      0.473133
     57 H2         -7.2740   10.1000    0.6350 h5        1 FYA      0.093100
     58 HN3        -0.2790    0.2330    1.1280 hn        1 FYA      0.466800
     59 H63        -5.7720    9.5150   -3.6210 hn        1 FYA      0.473133
@<TRIPOS>BOND
     1    1    2 1   
     2    1   14 1   
     3    1   34 1   
     4    1   35 1   
     5    2    3 1   
     6    2    4 1   
     7    2   36 1   
     8    3   37 1   
     9    3   38 1   
    10    3   58 1   
    11    4    5 1   
    12    4   39 1   
    13    4   40 1   
    14    5    6 ar  
    15    5    7 ar  
    16    6    8 ar  
    17    6   41 1   
    18    7    9 ar  
    19    7   42 1   
    20    8   10 ar  
    21    8   43 1   
    22    9   10 ar  
    23    9   44 1   
    24   10   45 1   
    25   11   12 1   
    26   11   13 1   
    27   11   14 1   
    28   11   15 1   
    29   15   16 1   
    30   16   17 1   
    31   16   46 1   
    32   16   47 1   
    33   17   18 1   
    34   17   19 1   
    35   17   48 1   
    36   18   23 1   
    37   19   20 1   
    38   19   21 1   
    39   19   49 1   
    40   20   50 1   
    41   21   22 1   
    42   21   23 1   
    43   21   51 1   
    44   22   52 1   
    45   23   24 1   
    46   23   53 1   
    47   24   25 1   
    48   24   33 1   
    49   25   26 2   
    50   25   54 1   
    51   26   27 1   
    52   27   28 ar  
    53   27   33 ar  
    54   28   29 1   
    55   28   30 ar  
    56   29   55 1   
    57   29   56 1   
    58   29   59 1   
    59   30   31 ar  
    60   31   32 ar  
    61   31   57 1   
    62   32   33 ar  
@<TRIPOS>SUBSTRUCTURE
     1 FYA         1 TEMP              0 ****  ****    0 ROOT
