@<TRIPOS>MOLECULE
FYA
   57    60     1     0     0
SMALL
bcc


@<TRIPOS>ATOM
      1 C           0.4870   -1.0460   -3.1640 c3        1 FYA      0.168400
      2 CA          0.0090   -0.2330   -4.3970 c3        1 FYA      0.148500
      3 N           0.9690    0.7200   -4.9220 n3        1 FYA     -0.908800
      4 CB         -0.4210   -1.2570   -5.4670 c3        1 FYA     -0.037100
      5 CG         -1.2680   -0.6530   -6.5300 ca        1 FYA     -0.051300
      6 CD1        -0.6890    0.0890   -7.5670 ca        1 FYA     -0.120000
      7 CD2        -2.6570   -0.8330   -6.5140 ca        1 FYA     -0.120000
      8 CE1        -1.4870    0.6380   -8.5700 ca        1 FYA     -0.139500
      9 CE2        -3.4520   -0.2850   -7.5190 ca        1 FYA     -0.139500
     10 CZ         -2.8690    0.4500   -8.5500 ca        1 FYA     -0.147000
     11 P           2.3770   -0.1480   -1.6450 p5        1 FYA      1.432800
     12 O1P         2.6140   -1.2030   -0.6390 o         1 FYA     -0.828500
     13 O2P         3.1070    0.0820   -2.9040 o         1 FYA     -0.828500
     14 O3P         0.7800   -0.2130   -2.0890 os        1 FYA     -0.585200
     15 O5'         2.2740    1.2550   -0.7800 os        1 FYA     -0.553200
     16 C5'         1.5010    1.2040    0.3740 c3        1 FYA      0.184400
     17 C4'         2.3680    1.4610    1.6170 c3        1 FYA      0.108100
     18 O4'         1.5220    1.9780    2.6700 os        1 FYA     -0.417600
     19 C3'         3.0460    0.1910    2.1600 c3        1 FYA      0.107100
     20 O3'         4.3220    0.5700    2.6440 oh        1 FYA     -0.592800
     21 C2'         2.1150   -0.2810    3.3000 c3        1 FYA      0.075100
     22 O2'         2.9020   -0.6440    4.4130 oh        1 FYA     -0.594800
     23 C1'         1.2380    0.9700    3.6360 c3        1 FYA      0.221800
     24 N9         -0.1880    0.6990    3.6630 na        1 FYA     -0.274000
     25 C8         -1.1790    1.1040    2.7390 cc        1 FYA      0.442700
     26 N7         -2.4220    0.7320    3.0860 nd        1 FYA     -0.566100
     27 C5         -2.2710    0.0400    4.2960 ca        1 FYA     -0.214200
     28 C6         -3.2000   -0.6100    5.1730 ca        1 FYA      0.735200
     29 N6         -4.5550   -0.5480    4.9100 nh        1 FYA     -0.943500
     30 N1         -2.7250   -1.2420    6.2950 nb        1 FYA     -0.798000
     31 C2         -1.3840   -1.1900    6.5250 ca        1 FYA      0.671900
     32 N3         -0.3960   -0.6140    5.8060 nb        1 FYA     -0.739000
     33 C4         -0.8610    0.0070    4.6770 ca        1 FYA      0.440800
     34 H1         -0.3480   -1.7350   -2.8500 h1        1 FYA      0.018200
     35 H2A         1.3880   -1.6610   -3.4430 h1        1 FYA      0.018200
     36 HA         -0.9050    0.3470   -4.0780 h1        1 FYA      0.054700
     37 HN1         1.0410    1.4950   -4.2900 hn        1 FYA      0.365300
     38 HN2         1.8790    0.2970   -4.9870 hn        1 FYA      0.365300
     39 HB1         0.4900   -1.7220   -5.9310 hc        1 FYA      0.043700
     40 HB2        -0.9920   -2.0780   -4.9550 hc        1 FYA      0.043700
     41 HD1         0.4000    0.2530   -7.5720 ha        1 FYA      0.138000
     42 HD2        -3.1230   -1.4080   -5.7000 ha        1 FYA      0.138000
     43 HE1        -1.0240    1.2250   -9.3760 ha        1 FYA      0.118500
     44 HE2        -4.5410   -0.4300   -7.4950 ha        1 FYA      0.118500
     45 HZ         -3.4960    0.8840   -9.3410 ha        1 FYA      0.116000
     46 H5'1        0.7320    2.0280    0.3200 h1        1 FYA      0.034200
     47 H5'2        0.9800    0.2100    0.4630 h1        1 FYA      0.034200
     48 H4'         3.1170    2.2730    1.4180 h1        1 FYA      0.107700
     49 H3'         3.1460   -0.6080    1.3690 h1        1 FYA      0.147700
     50 HO'3        4.6920   -0.2100    3.0770 ho        1 FYA      0.412000
     51 H2'         1.4940   -1.1510    2.9570 h1        1 FYA      0.074700
     52 HO'2        2.2960   -0.9930    5.0800 ho        1 FYA      0.418000
     53 H1'         1.5240    1.3980    4.6440 h2        1 FYA      0.094700
     54 H8         -0.8960    1.6640    1.8350 h5        1 FYA      0.096800
     55 H61        -5.1600   -1.1650    5.3970 hn        1 FYA      0.430300
     56 H62        -4.8160   -0.2820    3.9910 hn        1 FYA      0.430300
     57 H2         -1.0560   -1.7110    7.4500 h5        1 FYA      0.042100
@<TRIPOS>BOND
     1    1    2 1   
     2    1   14 1   
     3    1   34 1   
     4    1   35 1   
     5    2    3 1   
     6    2    4 1   
     7    2   36 1   
     8    3   37 1   
     9    3   38 1   
    10    4    5 1   
    11    4   39 1   
    12    4   40 1   
    13    5    6 ar  
    14    5    7 ar  
    15    6    8 ar  
    16    6   41 1   
    17    7    9 ar  
    18    7   42 1   
    19    8   10 ar  
    20    8   43 1   
    21    9   10 ar  
    22    9   44 1   
    23   10   45 1   
    24   11   12 1   
    25   11   13 1   
    26   11   14 1   
    27   11   15 1   
    28   15   16 1   
    29   16   17 1   
    30   16   46 1   
    31   16   47 1   
    32   17   18 1   
    33   17   19 1   
    34   17   48 1   
    35   18   23 1   
    36   19   20 1   
    37   19   21 1   
    38   19   49 1   
    39   20   50 1   
    40   21   22 1   
    41   21   23 1   
    42   21   51 1   
    43   22   52 1   
    44   23   24 1   
    45   23   53 1   
    46   24   25 1   
    47   24   33 1   
    48   25   26 2   
    49   25   54 1   
    50   26   27 1   
    51   27   28 ar  
    52   27   33 ar  
    53   28   29 1   
    54   28   30 ar  
    55   29   55 1   
    56   29   56 1   
    57   30   31 ar  
    58   31   32 ar  
    59   31   57 1   
    60   32   33 ar  
@<TRIPOS>SUBSTRUCTURE
     1 FYA         1 TEMP              0 ****  ****    0 ROOT
