@<TRIPOS>MOLECULE
FYA
   58    61     1     0     0
SMALL
bcc


@<TRIPOS>ATOM
      1 C          -0.2530    0.8330   -0.6880 c3        1 FYA      0.170400
      2 CA          1.2060    0.5260   -0.2750 c3        1 FYA      0.135500
      3 N           1.2740   -0.0860    1.0380 n3        1 FYA     -0.921800
      4 CB          1.8430   -0.2900   -1.4150 c3        1 FYA     -0.074100
      5 CG          3.2670   -0.6120   -1.1290 ca        1 FYA     -0.090300
      6 CD1         3.6000   -1.7730   -0.4210 ca        1 FYA     -0.130000
      7 CD2         4.2870    0.2380   -1.5700 ca        1 FYA     -0.130000
      8 CE1         4.9350   -2.0770   -0.1570 ca        1 FYA     -0.125000
      9 CE2         5.6210   -0.0670   -1.3040 ca        1 FYA     -0.125000
     10 CZ          5.9470   -1.2240   -0.5970 ca        1 FYA     -0.127000
     11 P          -1.9460    1.4490    1.1720 p5        1 FYA      1.634500
     12 O1P        -1.1590    1.5560    2.5420 oh        1 FYA     -0.749400
     13 O2P        -2.6730    0.2270    0.8650 o         1 FYA     -0.814300
     14 O3P        -0.7830    1.8430    0.1400 os        1 FYA     -0.579200
     15 O5'        -2.8540    2.7710    1.1710 os        1 FYA     -0.558200
     16 C5'        -4.2540    2.6120    1.2040 c3        1 FYA      0.139400
     17 C4'        -4.8240    3.2180    2.4900 c3        1 FYA      0.106100
     18 O4'        -4.3890    4.5740    2.6500 os        1 FYA     -0.380600
     19 C3'        -6.3680    3.2310    2.4370 c3        1 FYA      0.131100
     20 O3'        -6.8320    2.8130    3.7030 oh        1 FYA     -0.585800
     21 C2'        -6.7330    4.6860    2.0630 c3        1 FYA      0.080100
     22 O2'        -7.6780    5.1740    2.9870 oh        1 FYA     -0.597800
     23 C1'        -5.3900    5.4830    2.1880 c3        1 FYA      0.224800
     24 N9         -4.9740    6.0990    0.9490 na        1 FYA     -0.297000
     25 C8         -3.7740    5.9010    0.2200 cc        1 FYA      0.430700
     26 N7         -3.6700    6.6960   -0.8550 nd        1 FYA     -0.554100
     27 C5         -4.8420    7.4690   -0.8590 ca        1 FYA     -0.225200
     28 C6         -5.3370    8.4950   -1.7320 ca        1 FYA      0.761200
     29 N6         -4.6190    8.8630   -2.8400 nh        1 FYA     -0.956500
     30 N1         -6.5520    9.0770   -1.4490 nb        1 FYA     -0.795000
     31 C2         -7.2260    8.6310   -0.3570 ca        1 FYA      0.687900
     32 N3         -6.8940    7.6780    0.5450 nb        1 FYA     -0.761000
     33 C4         -5.6810    7.1060    0.2770 ca        1 FYA      0.445800
     34 H1         -0.2450    1.2450   -1.7360 h1        1 FYA      0.063700
     35 H2A        -0.9040   -0.0830   -0.6400 h1        1 FYA      0.063700
     36 HA          1.7480    1.5160   -0.2030 h1        1 FYA      0.079700
     37 HN1         2.2290   -0.1440    1.3380 hn        1 FYA      0.358300
     38 HN2         0.8880   -1.0110    1.0190 hn        1 FYA      0.358300
     39 HB1         1.2600   -1.2380   -1.5690 hc        1 FYA      0.057700
     40 HB2         1.7710    0.3060   -2.3630 hc        1 FYA      0.057700
     41 HD1         2.8050   -2.4530   -0.0790 ha        1 FYA      0.132000
     42 HD2         4.0340    1.1510   -2.1310 ha        1 FYA      0.132000
     43 HE1         5.1890   -2.9920    0.3990 ha        1 FYA      0.135000
     44 HE2         6.4170    0.6060   -1.6550 ha        1 FYA      0.135000
     45 HZ          7.0000   -1.4650   -0.3890 ha        1 FYA      0.135000
     46 H5'1       -4.6640    3.1730    0.3160 h1        1 FYA      0.070700
     47 H5'2       -4.5280    1.5220    1.1360 h1        1 FYA      0.070700
     48 H4'        -4.4450    2.6890    3.4060 h1        1 FYA      0.115700
     49 H3'        -6.7620    2.5220    1.6590 h1        1 FYA      0.060700
     50 HO'3       -7.6880    3.2320    3.8650 ho        1 FYA      0.433000
     51 H2'        -7.1500    4.7290    1.0220 h1        1 FYA      0.073700
     52 HO'2       -7.9670    6.0390    2.6620 ho        1 FYA      0.439000
     53 H1'        -5.4710    6.2840    2.9840 h2        1 FYA      0.108700
     54 H8         -3.0440    5.1440    0.5530 h5        1 FYA      0.106800
     55 H61        -4.9150    9.6220   -3.4010 hn        1 FYA      0.447800
     56 H62        -3.7090    8.4920   -2.9580 hn        1 FYA      0.447800
     57 H2         -8.2020    9.1340   -0.1810 h5        1 FYA      0.050100
     58 HN3        -0.2170    1.7190    2.4940 ho        1 FYA      0.499000
@<TRIPOS>BOND
     1    1    2 1   
     2    1   14 1   
     3    1   34 1   
     4    1   35 1   
     5    2    3 1   
     6    2    4 1   
     7    2   36 1   
     8    3   37 1   
     9    3   38 1   
    10    4    5 1   
    11    4   39 1   
    12    4   40 1   
    13    5    6 ar  
    14    5    7 ar  
    15    6    8 ar  
    16    6   41 1   
    17    7    9 ar  
    18    7   42 1   
    19    8   10 ar  
    20    8   43 1   
    21    9   10 ar  
    22    9   44 1   
    23   10   45 1   
    24   11   12 1   
    25   11   13 2   
    26   11   14 1   
    27   11   15 1   
    28   12   58 1   
    29   15   16 1   
    30   16   17 1   
    31   16   46 1   
    32   16   47 1   
    33   17   18 1   
    34   17   19 1   
    35   17   48 1   
    36   18   23 1   
    37   19   20 1   
    38   19   21 1   
    39   19   49 1   
    40   20   50 1   
    41   21   22 1   
    42   21   23 1   
    43   21   51 1   
    44   22   52 1   
    45   23   24 1   
    46   23   53 1   
    47   24   25 1   
    48   24   33 1   
    49   25   26 2   
    50   25   54 1   
    51   26   27 1   
    52   27   28 ar  
    53   27   33 ar  
    54   28   29 1   
    55   28   30 ar  
    56   29   55 1   
    57   29   56 1   
    58   30   31 ar  
    59   31   32 ar  
    60   31   57 1   
    61   32   33 ar  
@<TRIPOS>SUBSTRUCTURE
     1 FYA         1 TEMP              0 ****  ****    0 ROOT
