@<TRIPOS>MOLECULE
FYA
   58    61     1     0     0
SMALL
bcc


@<TRIPOS>ATOM
      1 C          -0.2370    0.8420   -0.7200 c3        1 FYA      0.170400
      2 CA          1.2080    0.5170   -0.2730 c3        1 FYA      0.135500
      3 N           1.2370   -0.1130    1.0320 n8        1 FYA     -0.921800
      4 CB          1.8690   -0.2890   -1.4080 c3        1 FYA     -0.074100
      5 CG          3.2810   -0.6250   -1.0900 ca        1 FYA     -0.090300
      6 CD1         3.5880   -1.7980   -0.3890 ca        1 FYA     -0.130000
      7 CD2         4.3190    0.2230   -1.4930 ca        1 FYA     -0.130000
      8 CE1         4.9130   -2.1150   -0.0950 ca        1 FYA     -0.125000
      9 CE2         5.6430   -0.0960   -1.1980 ca        1 FYA     -0.125000
     10 CZ          5.9430   -1.2650   -0.4980 ca        1 FYA     -0.127000
     11 P          -1.9720    1.4460    1.1030 p5        1 FYA      1.634500
     12 O1P        -1.2220    1.5320    2.4960 oh        1 FYA     -0.750400
     13 O2P        -2.6990    0.2310    0.7650 o         1 FYA     -0.814300
     14 O3P        -0.7810    1.8450    0.1070 os        1 FYA     -0.579200
     15 O5'        -2.8730    2.7730    1.0970 os        1 FYA     -0.558200
     16 C5'        -4.2740    2.6250    1.0990 c3        1 FYA      0.143400
     17 C4'        -4.8690    3.2060    2.3850 c3        1 FYA      0.071100
     18 O4'        -4.4010    4.5430    2.6020 os        1 FYA     -0.384600
     19 C3'        -6.4110    3.2510    2.2960 c3        1 FYA      0.130100
     20 O3'        -7.0120    2.6550    3.4170 oh        1 FYA     -0.571800
     21 C2'        -6.7570    4.7480    2.1220 c3        1 FYA      0.080100
     22 O2'        -7.5430    5.1540    3.2210 oh        1 FYA     -0.591800
     23 C1'        -5.3800    5.4940    2.1780 c3        1 FYA      0.220800
     24 N9         -4.9950    6.0930    0.9200 na        1 FYA     -0.297000
     25 C8         -3.8180    5.8740    0.1610 cc        1 FYA      0.427700
     26 N7         -3.7230    6.6720   -0.9120 nd        1 FYA     -0.554100
     27 C5         -4.8760    7.4730   -0.8810 ca        1 FYA     -0.226200
     28 C6         -5.3670    8.5170   -1.7350 ca        1 FYA      0.761200
     29 N6         -4.6710    8.8710   -2.8600 nv        1 FYA     -0.957500
     30 N1         -6.5560    9.1310   -1.4140 nb        1 FYA     -0.795000
     31 C2         -7.2100    8.6980   -0.3040 ca        1 FYA      0.687900
     32 N3         -6.8800    7.7300    0.5830 nb        1 FYA     -0.758000
     33 C4         -5.6920    7.1250    0.2760 ca        1 FYA      0.446800
     34 H1         -0.8960   -0.0700   -0.7020 h1        1 FYA      0.063700
     35 H2A        -0.1990    1.2670   -1.7620 h1        1 FYA      0.063700
     36 HA          1.7560    1.5020   -0.1740 h1        1 FYA      0.079700
     37 HN1         2.1830   -0.1850    1.3560 hn        1 FYA      0.358300
     38 HN2         0.8440   -1.0340    0.9900 hn        1 FYA      0.358300
     39 HB1         1.2830   -1.2300   -1.5890 hc        1 FYA      0.057700
     40 HB2         1.8250    0.3210   -2.3490 hc        1 FYA      0.057700
     41 HD1         2.7800   -2.4760   -0.0770 ha        1 FYA      0.132000
     42 HD2         4.0870    1.1450   -2.0480 ha        1 FYA      0.132000
     43 HE1         5.1460   -3.0400    0.4540 ha        1 FYA      0.135000
     44 HE2         6.4530    0.5760   -1.5190 ha        1 FYA      0.135000
     45 HZ          6.9880   -1.5160   -0.2660 ha        1 FYA      0.135000
     46 H5'1       -4.5540    1.5380    1.0030 h1        1 FYA      0.072200
     47 H5'2       -4.6610    3.2070    0.2140 h1        1 FYA      0.072200
     48 H4'        -4.5230    2.6340    3.2890 h1        1 FYA      0.102700
     49 H3'        -6.7880    2.6510    1.4220 h1        1 FYA      0.094700
     50 HO'3       -6.9260    3.2620    4.1660 ho        1 FYA      0.426000
     51 H2'        -7.3000    4.9240    1.1570 h1        1 FYA      0.082700
     52 HO'2       -7.9290    6.0090    2.9880 ho        1 FYA      0.433000
     53 H1'        -5.3890    6.2960    2.9760 h2        1 FYA      0.106700
     54 H8         -3.0940    5.1020    0.4720 h5        1 FYA      0.106800
     55 H61        -4.9640    9.6390   -3.4120 hn        1 FYA      0.448300
     56 H62        -3.7770    8.4740   -3.0090 hn        1 FYA      0.448300
     57 H2         -8.1660    9.2270   -0.0970 h5        1 FYA      0.050100
     58 HN3        -0.2770    1.6830    2.4740 ho        1 FYA      0.499000
@<TRIPOS>BOND
     1    1    2 1   
     2    1   14 1   
     3    1   34 1   
     4    1   35 1   
     5    2    3 1   
     6    2    4 1   
     7    2   36 1   
     8    3   37 1   
     9    3   38 1   
    10    4    5 1   
    11    4   39 1   
    12    4   40 1   
    13    5    6 ar  
    14    5    7 ar  
    15    6    8 ar  
    16    6   41 1   
    17    7    9 ar  
    18    7   42 1   
    19    8   10 ar  
    20    8   43 1   
    21    9   10 ar  
    22    9   44 1   
    23   10   45 1   
    24   11   12 1   
    25   11   13 2   
    26   11   14 1   
    27   11   15 1   
    28   12   58 1   
    29   15   16 1   
    30   16   17 1   
    31   16   46 1   
    32   16   47 1   
    33   17   18 1   
    34   17   19 1   
    35   17   48 1   
    36   18   23 1   
    37   19   20 1   
    38   19   21 1   
    39   19   49 1   
    40   20   50 1   
    41   21   22 1   
    42   21   23 1   
    43   21   51 1   
    44   22   52 1   
    45   23   24 1   
    46   23   53 1   
    47   24   25 1   
    48   24   33 1   
    49   25   26 2   
    50   25   54 1   
    51   26   27 1   
    52   27   28 ar  
    53   27   33 ar  
    54   28   29 1   
    55   28   30 ar  
    56   29   55 1   
    57   29   56 1   
    58   30   31 ar  
    59   31   32 ar  
    60   31   57 1   
    61   32   33 ar  
@<TRIPOS>SUBSTRUCTURE
     1 FYA         1 TEMP              0 ****  ****    0 ROOT
