@<TRIPOS>MOLECULE
FYC
   41    43     1     0     0
SMALL
bcc


@<TRIPOS>ATOM
      1 O1         -0.1660    0.4170   -0.1000 o         1 FYC     -0.567500
      2 C1          1.0660    0.3300   -0.0650 c         1 FYC      0.790500
      3 N1          1.8850    0.4740    1.1000 n         1 FYC     -0.453100
      4 C2          3.2210    0.3460    0.7240 ca        1 FYC      0.065600
      5 C3          4.4040    0.4260    1.4510 ca        1 FYC     -0.141000
      6 C4          5.6080    0.2240    0.7710 ca        1 FYC     -0.083000
      7 C5          5.6400   -0.0480   -0.5990 ca        1 FYC     -0.201300
      8 C6          6.9490   -0.2260   -1.2840 c3        1 FYC      0.182100
      9 N2          7.3270   -1.6790   -1.3260 n4        1 FYC     -0.674800
     10 C7          8.6560   -1.9400   -2.0080 c         1 FYC      0.552300
     11 C8          8.9310   -3.3310   -2.3730 ce        1 FYC     -0.266400
     12 C9          8.0000   -4.3920   -1.9310 c3        1 FYC     -0.072900
     13 C10        10.0730   -3.5490   -3.0810 cf        1 FYC      0.099800
     14 C11        10.5430   -4.8010   -3.6220 ca        1 FYC     -0.176800
     15 C12         9.6800   -5.7610   -4.1780 ca        1 FYC     -0.068000
     16 C13        10.1780   -6.9340   -4.7320 ca        1 FYC     -0.146000
     17 C14        11.5530   -7.1810   -4.7390 ca        1 FYC     -0.051000
     18 C15        12.4380   -6.2490   -4.2070 ca        1 FYC     -0.164000
     19 C16        11.9410   -5.0520   -3.6600 ca        1 FYC      0.178900
     20 F1         12.8030   -4.1420   -3.1540 f         1 FYC     -0.121900
     21 O2          9.3600   -0.9530   -2.1910 o         1 FYC     -0.447100
     22 C17         4.4590   -0.1240   -1.3610 ca        1 FYC     -0.111000
     23 C18         3.2530    0.0690   -0.7100 ca        1 FYC     -0.003400
     24 N3          1.9250   -0.0010   -1.1660 n         1 FYC     -0.437100
     25 H1          1.5470    0.7760    1.9780 hn        1 FYC      0.372500
     26 H3          1.6520    0.1660   -2.1030 hn        1 FYC      0.357500
     27 HA          4.4000    0.6450    2.5290 ha        1 FYC      0.167000
     28 H4          6.5510    0.3000    1.3370 ha        1 FYC      0.143000
     29 H61C        6.9130    0.1440   -2.3490 hx        1 FYC      0.114200
     30 H62C        7.7760    0.3260   -0.7470 hx        1 FYC      0.114200
     31 H17         4.4980   -0.3130   -2.4440 ha        1 FYC      0.146000
     32 H2          7.3790   -2.0400   -0.3660 hn        1 FYC      0.455300
     33 H91C        7.7270   -4.2790   -0.8510 hc        1 FYC      0.061367
     34 H92C        7.0640   -4.3950   -2.5450 hc        1 FYC      0.061367
     35 H93C        8.4810   -5.4000   -2.0310 hc        1 FYC      0.061367
     36 H10        10.7550   -2.6880   -3.2700 ha        1 FYC      0.170000
     37 H12         8.5960   -5.5640   -4.2030 ha        1 FYC      0.141000
     38 H13         9.4860   -7.6710   -5.1700 ha        1 FYC      0.159000
     39 H14        11.9430   -8.1170   -5.1740 ha        1 FYC      0.162000
     40 H15        13.5250   -6.4290   -4.2140 ha        1 FYC      0.173000
     41 H22         6.5950   -2.2060   -1.8150 hn        1 FYC      0.455300
@<TRIPOS>BOND
     1    1    2 2   
     2    2    3 1   
     3    2   24 1   
     4    3    4 1   
     5    3   25 1   
     6    4    5 ar  
     7    4   23 ar  
     8    5    6 ar  
     9    5   27 1   
    10    6    7 ar  
    11    6   28 1   
    12    7    8 1   
    13    7   22 ar  
    14    8    9 1   
    15    8   29 1   
    16    8   30 1   
    17    9   10 1   
    18    9   32 1   
    19    9   41 1   
    20   10   11 1   
    21   10   21 2   
    22   11   12 1   
    23   11   13 2   
    24   12   33 1   
    25   12   34 1   
    26   12   35 1   
    27   13   14 1   
    28   13   36 1   
    29   14   15 ar  
    30   14   19 ar  
    31   15   16 ar  
    32   15   37 1   
    33   16   17 ar  
    34   16   38 1   
    35   17   18 ar  
    36   17   39 1   
    37   18   19 ar  
    38   18   40 1   
    39   19   20 1   
    40   22   23 ar  
    41   22   31 1   
    42   23   24 1   
    43   24   26 1   
@<TRIPOS>SUBSTRUCTURE
     1 FYC         1 TEMP              0 ****  ****    0 ROOT
