@<TRIPOS>MOLECULE
FYC
   41    43     1     0     0
SMALL
bcc


@<TRIPOS>ATOM
      1 O1         -0.1660    0.4270   -0.1100 o         1 FYC     -0.567500
      2 C1          1.0660    0.3370   -0.0720 c         1 FYC      0.790500
      3 N1          1.8820    0.4760    1.0960 ns        1 FYC     -0.453100
      4 C2          3.2190    0.3470    0.7220 ca        1 FYC      0.065600
      5 C3          4.4000    0.4220    1.4520 ca        1 FYC     -0.141000
      6 C4          5.6060    0.2210    0.7750 ca        1 FYC     -0.083000
      7 C5          5.6400   -0.0470   -0.5960 ca        1 FYC     -0.201300
      8 C6          6.9510   -0.2250   -1.2780 c3        1 FYC      0.182100
      9 N2          7.3270   -1.6790   -1.3240 ny        1 FYC     -0.674800
     10 C7          8.6560   -1.9410   -2.0030 c         1 FYC      0.552300
     11 C8          8.9300   -3.3310   -2.3710 ce        1 FYC     -0.266400
     12 C9          7.9960   -4.3910   -1.9330 c3        1 FYC     -0.072900
     13 C10        10.0740   -3.5490   -3.0770 cf        1 FYC      0.099800
     14 C11        10.5430   -4.8010   -3.6200 ca        1 FYC     -0.176800
     15 C12         9.6800   -5.7580   -4.1800 ca        1 FYC     -0.068000
     16 C13        10.1770   -6.9310   -4.7340 ca        1 FYC     -0.146000
     17 C14        11.5530   -7.1790   -4.7390 ca        1 FYC     -0.051000
     18 C15        12.4370   -6.2500   -4.2040 ca        1 FYC     -0.164000
     19 C16        11.9410   -5.0530   -3.6550 ca        1 FYC      0.178900
     20 F1         12.8030   -4.1460   -3.1450 f         1 FYC     -0.121900
     21 O2          9.3620   -0.9540   -2.1830 o         1 FYC     -0.447100
     22 C17         4.4610   -0.1190   -1.3620 ca        1 FYC     -0.111000
     23 C18         3.2540    0.0740   -0.7130 ca        1 FYC     -0.003400
     24 N3          1.9270    0.0080   -1.1720 ns        1 FYC     -0.437100
     25 H1          1.5420    0.7760    1.9740 hn        1 FYC      0.372500
     26 H3          1.6560    0.1790   -2.1090 hn        1 FYC      0.357500
     27 HA          4.3940    0.6380    2.5310 ha        1 FYC      0.167000
     28 H4          6.5470    0.2930    1.3430 ha        1 FYC      0.143000
     29 H61C        7.7770    0.3240   -0.7390 hx        1 FYC      0.114200
     30 H62C        6.9180    0.1480   -2.3420 hx        1 FYC      0.114200
     31 H17         4.5020   -0.3050   -2.4450 ha        1 FYC      0.146000
     32 H2          6.5940   -2.2040   -1.8160 hn        1 FYC      0.455300
     33 H91C        8.4770   -5.4000   -2.0350 hc        1 FYC      0.061367
     34 H92C        7.7220   -4.2810   -0.8540 hc        1 FYC      0.061367
     35 H93C        7.0620   -4.3920   -2.5500 hc        1 FYC      0.061367
     36 H10        10.7570   -2.6890   -3.2630 ha        1 FYC      0.170000
     37 H12         8.5960   -5.5600   -4.2060 ha        1 FYC      0.141000
     38 H13         9.4860   -7.6660   -5.1760 ha        1 FYC      0.159000
     39 H14        11.9420   -8.1150   -5.1750 ha        1 FYC      0.162000
     40 H15        13.5240   -6.4320   -4.2080 ha        1 FYC      0.173000
     41 H22         7.3760   -2.0430   -0.3650 hn        1 FYC      0.455300
@<TRIPOS>BOND
     1    1    2 2   
     2    2    3 1   
     3    2   24 1   
     4    3    4 1   
     5    3   25 1   
     6    4    5 ar  
     7    4   23 ar  
     8    5    6 ar  
     9    5   27 1   
    10    6    7 ar  
    11    6   28 1   
    12    7    8 1   
    13    7   22 ar  
    14    8    9 1   
    15    8   29 1   
    16    8   30 1   
    17    9   10 1   
    18    9   32 1   
    19    9   41 1   
    20   10   11 1   
    21   10   21 2   
    22   11   12 1   
    23   11   13 2   
    24   12   33 1   
    25   12   34 1   
    26   12   35 1   
    27   13   14 1   
    28   13   36 1   
    29   14   15 ar  
    30   14   19 ar  
    31   15   16 ar  
    32   15   37 1   
    33   16   17 ar  
    34   16   38 1   
    35   17   18 ar  
    36   17   39 1   
    37   18   19 ar  
    38   18   40 1   
    39   19   20 1   
    40   22   23 ar  
    41   22   31 1   
    42   23   24 1   
    43   24   26 1   
@<TRIPOS>SUBSTRUCTURE
     1 FYC         1 TEMP              0 ****  ****    0 ROOT
