@<TRIPOS>MOLECULE
FYI
   69    68     1     0     0
SMALL
bcc


@<TRIPOS>ATOM
      1 C1         -3.6320   -0.9400    0.5500 ca        1 FYI     -0.073500
      2 C2         -4.8560   -0.5190    0.0910 ca        1 FYI     -0.317500
      3 C3         -5.2590    0.8650    0.1840 ca        1 FYI      0.308000
      4 C4         -4.3280    1.7450    0.8590 ca        1 FYI     -0.317500
      5 C5         -3.1190    1.2890    1.3130 ca        1 FYI     -0.073500
      6 C6         -2.7100   -0.0500    1.1250 ca        1 FYI     -0.348000
      7 O1         -6.3550    1.2820   -0.2990 o         1 FYI     -0.516000
      8 P1         -7.5920    3.1700   -0.8780 p3        1 FYI      2.483000
      9 O2         -7.4980    3.0020   -2.3450 o         1 FYI     -1.168333
     10 O3         -8.8570    2.8070   -0.2020 o         1 FYI     -1.168333
     11 O4         -6.6620    4.1070   -0.2070 o         1 FYI     -1.168333
     12 C7         -1.3630   -0.4810    1.5520 c3        1 FYI     -0.052000
     13 C8         -0.6220   -1.2920    0.4790 c3        1 FYI     -0.104000
     14 C9          0.7810   -1.6110    0.9790 c2        1 FYI      0.303000
     15 O5          0.9930   -1.9380    2.1670 o         1 FYI     -0.395000
     16 C10        -0.7160   -0.6640   -0.8990 c3        1 FYI     -0.182000
     17 C11        -0.0900    0.7160   -0.9990 c2        1 FYI      0.311000
     18 N1         -0.9010    1.8010   -0.8300 n         1 FYI     -0.344000
     19 C12        -0.4250    3.1450   -0.9010 c3        1 FYI     -0.080000
     20 O7          1.1330    0.8470   -1.2830 o         1 FYI     -0.492000
     21 N2          1.8370   -1.6230    0.0780 n         1 FYI     -0.382000
     22 C13         3.1910   -1.8300    0.5230 c3        1 FYI      0.036000
     23 C14         4.1450   -0.9650   -0.3350 c2        1 FYI      0.302000
     24 O8          4.3720   -1.2130   -1.5370 o         1 FYI     -0.391000
     25 C15         3.6420   -3.3100    0.5030 c3        1 FYI     -0.109000
     26 C16         5.0960   -3.4370    0.9330 c3        1 FYI     -0.160000
     27 C17         3.4300   -3.9820   -0.8350 c3        1 FYI     -0.212000
     28 C18         5.3190   -3.0720    2.3780 c3        1 FYI     -0.212000
     29 N3          4.7480    0.1160    0.2790 n         1 FYI     -0.377000
     30 C19         5.4890    1.0970   -0.4730 c3        1 FYI      0.016000
     31 C20         6.9750    0.6890   -0.6630 c2        1 FYI      0.286000
     32 O10         7.9110    1.4030   -0.2460 o         1 FYI     -0.397000
     33 C21         5.4680    2.4870    0.1670 c3        1 FYI     -0.193000
     34 C22         4.1000    2.9810    0.5950 c2        1 FYI      0.283000
     35 O11         3.9990    3.6780    1.6300 o         1 FYI     -0.395000
     36 N4          3.0090    2.7340   -0.1900 n         1 FYI     -0.401000
     37 N5          7.2300   -0.4730   -1.3350 n         1 FYI     -0.427000
     38 H1         -3.3540   -2.0020    0.4590 ha        1 FYI      0.072000
     39 H2         -5.5640   -1.2220   -0.3630 ha        1 FYI      0.136000
     40 H3         -4.6450    2.7930    0.9840 ha        1 FYI      0.136000
     41 H4         -2.4370    1.9790    1.8370 ha        1 FYI      0.072000
     42 H7         -0.7370    0.4120    1.8190 hc        1 FYI      0.068500
     43 H8         -1.4210   -1.1270    2.4710 hc        1 FYI      0.068500
     44 H9         -1.1350   -2.2990    0.4060 hc        1 FYI      0.118000
     45 H11        -0.2270   -1.3150   -1.6710 hc        1 FYI      0.122500
     46 H12        -1.8150   -0.6110   -1.1560 hc        1 FYI      0.122500
     47 H13        -1.8480    1.6560   -0.5220 hn        1 FYI      0.289000
     48 H14        -1.2530    3.8080   -1.2690 h1        1 FYI      0.080000
     49 H15        -0.0990    3.5080    0.1130 h1        1 FYI      0.080000
     50 H16         0.4500    3.2120   -1.6030 h1        1 FYI      0.080000
     51 H17         1.7160   -1.2250   -0.8300 hn        1 FYI      0.259000
     52 H19         3.2530   -1.5110    1.6130 h1        1 FYI      0.119000
     53 H20         2.9980   -3.8370    1.2670 hc        1 FYI      0.111000
     54 H21         5.4200   -4.5010    0.7720 hc        1 FYI      0.076500
     55 H22         5.7400   -2.7960    0.2730 hc        1 FYI      0.076500
     56 H23         3.9880   -3.4460   -1.6410 hc        1 FYI      0.079667
     57 H24         3.7890   -5.0390   -0.7930 hc        1 FYI      0.079667
     58 H25         2.3460   -3.9930   -1.1040 hc        1 FYI      0.079667
     59 H26         6.3620   -3.3300    2.6840 hc        1 FYI      0.072667
     60 H27         5.1710   -1.9770    2.5420 hc        1 FYI      0.072667
     61 H28         4.6080   -3.6220    3.0410 hc        1 FYI      0.072667
     62 H30         4.5220    0.3390    1.2200 hn        1 FYI      0.244000
     63 H32         5.0420    1.1570   -1.5160 h1        1 FYI      0.129000
     64 H33         6.1370    2.5020    1.0700 hc        1 FYI      0.133000
     65 H34         5.8940    3.2160   -0.5720 hc        1 FYI      0.133000
     66 H35         3.0230    2.0440   -0.9040 hn        1 FYI      0.239500
     67 H36         2.1080    2.9960    0.1410 hn        1 FYI      0.239500
     68 H38         6.4920   -1.0300   -1.6930 hn        1 FYI      0.234000
     69 H39         8.1650   -0.7530   -1.4890 hn        1 FYI      0.234000
@<TRIPOS>BOND
     1    1    2 1   
     2    1    6 1   
     3    1   38 1   
     4    2    3 1   
     5    2   39 1   
     6    3    4 1   
     7    3    7 1   
     8    4    5 1   
     9    4   40 1   
    10    5    6 1   
    11    5   41 1   
    12    6   12 1   
    13    8    9 1   
    14    8   10 1   
    15    8   11 1   
    16   12   13 1   
    17   12   42 1   
    18   12   43 1   
    19   13   14 1   
    20   13   16 1   
    21   13   44 1   
    22   14   15 1   
    23   14   21 1   
    24   16   17 1   
    25   16   45 1   
    26   16   46 1   
    27   17   18 1   
    28   17   20 1   
    29   18   19 1   
    30   18   47 1   
    31   19   48 1   
    32   19   49 1   
    33   19   50 1   
    34   21   22 1   
    35   21   51 1   
    36   22   23 1   
    37   22   25 1   
    38   22   52 1   
    39   23   24 1   
    40   23   29 1   
    41   25   26 1   
    42   25   27 1   
    43   25   53 1   
    44   26   28 1   
    45   26   54 1   
    46   26   55 1   
    47   27   56 1   
    48   27   57 1   
    49   27   58 1   
    50   28   59 1   
    51   28   60 1   
    52   28   61 1   
    53   29   30 1   
    54   29   62 1   
    55   30   31 1   
    56   30   33 1   
    57   30   63 1   
    58   31   32 1   
    59   31   37 1   
    60   33   34 1   
    61   33   64 1   
    62   33   65 1   
    63   34   35 1   
    64   34   36 1   
    65   36   66 1   
    66   36   67 1   
    67   37   68 1   
    68   37   69 1   
@<TRIPOS>SUBSTRUCTURE
     1 FYI         1 TEMP              0 ****  ****    0 ROOT
