@<TRIPOS>MOLECULE
FYI
   69    66     1     0     0
SMALL
bcc


@<TRIPOS>ATOM
      1 C1         -2.2670    2.4340   -0.1710 c1        1 FYI     -0.006500
      2 C2         -3.4100    3.1180   -0.6900 c1        1 FYI     -0.253500
      3 C3         -3.2840    4.4230   -1.1560 c1        1 FYI      0.337600
      4 C4         -2.0510    5.0610   -1.1140 c1        1 FYI     -0.136000
      5 C5         -0.9200    4.3860   -0.6010 c1        1 FYI     -0.136000
      6 C6         -1.0390    3.0730   -0.1320 c1        1 FYI     -0.320100
      7 O1         -4.3740    5.0520   -1.7890 os        1 FYI     -0.313000
      8 P1         -5.3960    5.8790   -0.8950 p5        1 FYI      1.299900
      9 O2         -6.5000    4.9660   -0.4030 o         1 FYI     -0.848833
     10 O3         -5.9910    6.9730   -1.7070 o         1 FYI     -0.848833
     11 O4         -4.6450    6.4800    0.3170 o         1 FYI     -0.848833
     12 C7          0.1530    2.4110    0.6340 c3        1 FYI      0.005700
     13 C8          0.8500    1.4120   -0.2690 c3        1 FYI     -0.128700
     14 C9          1.1940    0.1450    0.5470 c         1 FYI      0.674100
     15 O5          2.3410   -0.2640    0.5870 o         1 FYI     -0.671100
     16 C10         2.1220    2.0270   -0.8200 c3        1 FYI     -0.148400
     17 C11         1.8250    2.7240   -2.1970 c         1 FYI      0.641100
     18 N1          2.8560    3.2720   -2.9150 n         1 FYI     -0.508900
     19 C12         2.5920    4.3520   -3.8720 c3        1 FYI      0.043300
     20 O7          0.6930    2.7290   -2.6510 o         1 FYI     -0.729100
     21 N2          0.1160   -0.5940    1.2540 n         1 FYI     -0.572900
     22 C13         0.3560   -1.9210    1.7420 c3        1 FYI      0.044700
     23 C14        -0.8190   -2.8150    1.4040 c         1 FYI      0.646100
     24 O8         -1.9840   -2.4260    1.6210 o         1 FYI     -0.624100
     25 C15         0.5500   -1.8800    3.2780 c3        1 FYI     -0.072700
     26 C16         2.0450   -1.7590    3.6030 c3        1 FYI     -0.080400
     27 C17         0.0210   -3.1000    3.8700 c3        1 FYI     -0.092100
     28 C18         2.2340   -0.8330    4.8560 c3        1 FYI     -0.089100
     29 N3         -0.5980   -4.0540    0.8340 n         1 FYI     -0.559900
     30 C19        -0.4790   -4.1790   -0.5950 c3        1 FYI      0.038700
     31 C20        -1.5560   -5.1010   -1.1070 c         1 FYI      0.635100
     32 O10        -1.7700   -6.1880   -0.5290 o         1 FYI     -0.646100
     33 C21         0.8710   -4.7490   -0.9430 c3        1 FYI     -0.165400
     34 C22         1.4210   -4.0420   -2.2890 c         1 FYI      0.660100
     35 O11         0.7140   -3.2340   -2.8920 o         1 FYI     -0.647100
     36 N4          2.7340   -4.3420   -2.7720 n         1 FYI     -0.662000
     37 N5         -2.1830   -4.8290   -2.3720 n         1 FYI     -0.628000
     38 H1         -2.3400    1.4720    0.0950 ha        1 FYI      0.017500
     39 H2         -4.2770    2.6480   -0.7600 ha        1 FYI      0.079500
     40 H3         -1.9630    6.0400   -1.4380 ha        1 FYI      0.037000
     41 H4         -0.0760    4.8740   -0.4830 ha        1 FYI      0.037000
     42 H7          0.7840    3.0980    0.9050 hc        1 FYI      0.017700
     43 H8         -0.1790    1.9610    1.4070 hc        1 FYI      0.017700
     44 H9          0.2270    1.1600   -1.0440 hc        1 FYI      0.083700
     45 H11         2.4710    2.7090   -0.1720 hc        1 FYI      0.078700
     46 H12         2.8260    1.2960   -0.9540 hc        1 FYI      0.078700
     47 H13         3.6970    2.9050   -2.8560 hn        1 FYI      0.362500
     48 H14         2.2060    5.1210   -3.3970 h1        1 FYI      0.067367
     49 H15         3.4410    4.6240   -4.3060 h1        1 FYI      0.067367
     50 H16         1.9310    4.0270   -4.5880 h1        1 FYI      0.067367
     51 H17        -0.7470   -0.2180    1.3190 hn        1 FYI      0.328500
     52 H19         1.1480   -2.2730    1.3290 h1        1 FYI      0.094700
     53 H20         0.0880   -1.1340    3.6330 hc        1 FYI      0.074700
     54 H21         2.4210   -2.6700    3.7950 hc        1 FYI      0.050700
     55 H22         2.5010   -1.3800    2.8560 hc        1 FYI      0.050700
     56 H23        -0.8240   -3.3230    3.4530 hc        1 FYI      0.036367
     57 H24        -0.1180   -2.9610    4.8410 hc        1 FYI      0.036367
     58 H25         0.6800   -3.8560    3.7250 hc        1 FYI      0.036367
     59 H26         1.8320   -1.2600    5.6440 hc        1 FYI      0.029367
     60 H27         3.1860   -0.6890    5.0160 hc        1 FYI      0.029367
     61 H28         1.8040    0.0140    4.6940 hc        1 FYI      0.029367
     62 H30        -0.4930   -4.7880    1.3660 hn        1 FYI      0.333500
     63 H32        -0.5770   -3.3150   -1.0040 h1        1 FYI      0.090700
     64 H33         0.7810   -5.7580   -1.1000 hc        1 FYI      0.080200
     65 H34         1.5020   -4.5860   -0.2010 hc        1 FYI      0.080200
     66 H35         3.1170   -3.8180   -3.4700 hn        1 FYI      0.325500
     67 H36         3.2140   -5.0310   -2.3990 hn        1 FYI      0.325500
     68 H38        -2.5280   -5.5030   -2.8520 hn        1 FYI      0.333500
     69 H39        -2.1550   -3.9890   -2.7210 hn        1 FYI      0.333500
@<TRIPOS>BOND
     1    1    6 3   
     2    1   38 1   
     3    2    3 3   
     4    2   39 1   
     5    3    7 1   
     6    4    5 3   
     7    4   40 1   
     8    5   41 1   
     9    6   12 1   
    10    7    8 1   
    11    8    9 1   
    12    8   10 1   
    13    8   11 1   
    14   12   13 1   
    15   12   42 1   
    16   12   43 1   
    17   13   14 1   
    18   13   16 1   
    19   13   44 1   
    20   14   15 2   
    21   14   21 1   
    22   16   17 1   
    23   16   45 1   
    24   16   46 1   
    25   17   18 1   
    26   17   20 2   
    27   18   19 1   
    28   18   47 1   
    29   19   48 1   
    30   19   49 1   
    31   19   50 1   
    32   21   22 1   
    33   21   51 1   
    34   22   23 1   
    35   22   25 1   
    36   22   52 1   
    37   23   24 2   
    38   23   29 1   
    39   25   26 1   
    40   25   27 1   
    41   25   53 1   
    42   26   28 1   
    43   26   54 1   
    44   26   55 1   
    45   27   56 1   
    46   27   57 1   
    47   27   58 1   
    48   28   59 1   
    49   28   60 1   
    50   28   61 1   
    51   29   30 1   
    52   29   62 1   
    53   30   31 1   
    54   30   33 1   
    55   30   63 1   
    56   31   32 2   
    57   31   37 1   
    58   33   34 1   
    59   33   64 1   
    60   33   65 1   
    61   34   35 2   
    62   34   36 1   
    63   36   66 1   
    64   36   67 1   
    65   37   68 1   
    66   37   69 1   
@<TRIPOS>SUBSTRUCTURE
     1 FYI         1 TEMP              0 ****  ****    0 ROOT
