@<TRIPOS>MOLECULE
FYM
   65    66     1     0     0
SMALL
bcc


@<TRIPOS>ATOM
      1 C1         -0.4410   -0.5160    1.8860 cc        1 FYM     -0.147000
      2 C2          0.8360   -0.9010    1.5520 cd        1 FYM     -0.042000
      3 C3          3.6450    2.3560    7.2360 ca        1 FYM      0.003000
      4 C4          5.4320    1.4890    8.6530 ca        1 FYM      0.003000
      5 C5         -0.6640    0.3570    2.9670 cc        1 FYM     -0.049000
      6 C6          2.7970    2.3920    8.3260 ca        1 FYM     -0.213500
      7 C7          4.5930    1.5240    9.7510 ca        1 FYM     -0.213500
      8 C8          7.1610    4.6350    3.3730 ca        1 FYM     -0.088000
      9 C9          6.3210    4.0210    0.6900 ca        1 FYM     -0.120000
     10 C10         6.6940    3.3490    3.0070 ca        1 FYM     -0.153600
     11 C11         1.7360    0.5140    3.3680 cd        1 FYM      0.066000
     12 C12         4.9820    1.9180    7.3820 ca        1 FYM     -0.303900
     13 C13         1.9570   -0.4190    2.3060 cd        1 FYM     -0.171000
     14 C14         6.2670    3.0460    1.7120 ca        1 FYM     -0.055300
     15 C15         7.1930    5.5760    2.3700 ca        1 FYM      0.068100
     16 C16         6.7820    5.2710    1.0410 ca        1 FYM      0.102100
     17 C17         3.2670    1.9800    9.5940 ca        1 FYM      0.227100
     18 C18         0.4130    0.8630    3.7030 cd        1 FYM      0.087100
     19 C20         2.9330    1.1320    4.0600 c         1 FYM      0.880600
     20 C21         7.4580    7.4480    1.0980 c3        1 FYM      0.320200
     21 C22         3.8120    2.0660   -0.1050 c3        1 FYM      0.136100
     22 C23         2.7790    1.6480   11.9050 c3        1 FYM      0.103700
     23 C24        -1.0130    2.2780    4.9840 c3        1 FYM      0.102700
     24 C25         5.9100    1.8670    6.2930 ce        1 FYM      0.447100
     25 C26         3.2320   -0.8710    2.0280 c2        1 FYM      0.186000
     26 C27         5.7340    1.6830    1.3500 c3        1 FYM      0.193100
     27 N28         5.7480    2.4090    5.0940 n         1 FYM     -0.380500
     28 N29         4.3000    1.5860    1.1630 n3        1 FYM     -0.856200
     29 O30         3.0890    2.3860    3.9840 o         1 FYM     -0.807300
     30 O31         7.6170    1.4310    4.1530 o         1 FYM     -0.485100
     31 O32         3.7670    0.3730    4.6240 o         1 FYM     -0.807300
     32 O33         7.6030    6.8990    2.4330 os        1 FYM     -0.320900
     33 O34         6.9320    6.3950    0.2480 os        1 FYM     -0.318900
     34 O35         2.3540    2.0590   10.6030 os        1 FYM     -0.301900
     35 O36         0.2740    1.6900    4.7960 os        1 FYM     -0.295900
     36 H1         -1.3070   -0.8900    1.3140 ha        1 FYM      0.170000
     37 H2          1.0160   -1.5940    0.7130 ha        1 FYM      0.160000
     38 H5         -1.7010    0.6410    3.2190 ha        1 FYM      0.169000
     39 H3          3.2550    2.6440    6.2370 ha        1 FYM      0.169000
     40 H6          1.7540    2.7290    8.2240 ha        1 FYM      0.167000
     41 H4          6.4680    1.1270    8.7740 ha        1 FYM      0.169000
     42 H7          4.9590    1.1940   10.7350 ha        1 FYM      0.167000
     43 H8          7.4930    4.8640    4.3940 ha        1 FYM      0.164000
     44 H9          6.0160    3.7830   -0.3380 ha        1 FYM      0.171000
     45 H251        6.8920    1.3650    6.4850 h4        1 FYM      0.055800
     46 H252        4.8410    2.7860    4.8030 hn        1 FYM      0.409500
     47 H261        3.4210   -1.5620    1.1890 ha        1 FYM      0.173000
     48 H262        4.0990   -0.5920    2.6620 ha        1 FYM      0.173000
     49 H271        6.2530    1.3420    0.4080 h1        1 FYM      0.067700
     50 H272        6.0010    0.9510    2.1680 h1        1 FYM      0.067700
     51 H28         3.6520    4.6370    5.1070 ha        1 FYM      0.002000
     52 H211        6.7120    8.2800    1.1340 h2        1 FYM      0.090700
     53 H212        8.4680    7.7390    0.7190 h2        1 FYM      0.090700
     54 H221        4.3550    1.5500   -0.9410 h1        1 FYM      0.040033
     55 H222        3.9250    3.1760   -0.2440 h1        1 FYM      0.040033
     56 H223        2.7200    1.8170   -0.1770 h1        1 FYM      0.040033
     57 H231        3.6220    2.2880   12.2600 h1        1 FYM      0.063367
     58 H232        1.8630    1.8110   12.5300 h1        1 FYM      0.063367
     59 H233        3.0690    0.5700   11.8970 h1        1 FYM      0.063367
     60 H241       -1.3430    2.8200    4.0660 h1        1 FYM      0.058033
     61 H242       -1.7560    1.4980    5.2790 h1        1 FYM      0.058033
     62 H243       -0.8400    2.9970    5.8270 h1        1 FYM      0.058033
     63 H282        3.1670    4.6240    4.6340 ha        1 FYM      0.002000
     64 H291        3.8200    2.0500    1.9200 hn        1 FYM      0.394800
     65 C19         6.7590    2.3110    4.0650 c         1 FYM      0.688700
@<TRIPOS>BOND
     1    1    2 2   
     2    1    5 1   
     3    1   36 1   
     4    2   13 1   
     5    2   37 1   
     6    3    6 ar  
     7    3   12 ar  
     8    3   39 1   
     9    4    7 ar  
    10    4   12 ar  
    11    4   41 1   
    12    5   18 2   
    13    5   38 1   
    14    6   17 ar  
    15    6   40 1   
    16    7   17 ar  
    17    7   42 1   
    18    8   10 ar  
    19    8   15 ar  
    20    8   43 1   
    21    9   14 ar  
    22    9   16 ar  
    23    9   44 1   
    24   10   14 ar  
    25   10   65 1   
    26   11   13 1   
    27   11   18 1   
    28   11   19 2   
    29   12   24 1   
    30   13   25 2   
    31   14   26 1   
    32   15   16 ar  
    33   15   32 1   
    34   16   33 1   
    35   17   34 1   
    36   18   35 1   
    37   19   29 1   
    38   19   31 1   
    39   20   32 1   
    40   20   33 1   
    41   20   52 1   
    42   20   53 1   
    43   21   28 1   
    44   21   54 1   
    45   21   55 1   
    46   21   56 1   
    47   22   34 1   
    48   22   57 1   
    49   22   58 1   
    50   22   59 1   
    51   23   35 1   
    52   23   60 1   
    53   23   61 1   
    54   23   62 1   
    55   24   27 2   
    56   24   45 1   
    57   25   47 1   
    58   25   48 1   
    59   26   28 1   
    60   26   49 1   
    61   26   50 1   
    62   27   46 1   
    63   27   65 1   
    64   28   64 1   
    65   30   65 2   
    66   51   63 1   
@<TRIPOS>SUBSTRUCTURE
     1 FYM         1 TEMP              0 ****  ****    0 ROOT
