@<TRIPOS>MOLECULE
FYM
   63    66     1     0     0
SMALL
bcc


@<TRIPOS>ATOM
      1 C1          5.6400    2.1230    0.6650 ca        1 FYM     -0.151000
      2 C2          5.0670    1.1340   -0.1300 ca        1 FYM     -0.153000
      3 C3         -2.5930    2.2110    0.1950 ca        1 FYM     -0.085500
      4 C4         -4.0750    1.2480   -1.4580 ca        1 FYM     -0.085500
      5 C5          4.8480    3.1460    1.1790 ca        1 FYM     -0.155000
      6 C6         -3.6850    2.6950    0.9050 ca        1 FYM     -0.195000
      7 C7         -5.1850    1.7300   -0.7610 ca        1 FYM     -0.195000
      8 C8         -1.4640   -3.3620   -0.1040 ca        1 FYM     -0.075000
      9 C9          1.3410   -3.9670   -0.1610 ca        1 FYM     -0.118000
     10 C10        -0.5390   -2.5300   -0.7780 ca        1 FYM     -0.097600
     11 C11         2.8850    2.1960    0.0670 ca        1 FYM     -0.092600
     12 C12        -2.7840    1.4890   -0.9920 ca        1 FYM     -0.119300
     13 C13         3.7010    1.1660   -0.4280 ca        1 FYM     -0.063300
     14 C14         0.8290   -2.8090   -0.7940 ca        1 FYM     -0.040300
     15 C15        -0.9490   -4.4710    0.5270 ca        1 FYM      0.039100
     16 C16         0.4370   -4.7740    0.4910 ca        1 FYM      0.051100
     17 C17        -4.9830    2.4520    0.4190 ca        1 FYM      0.101100
     18 C18         3.4780    3.1800    0.8760 ca        1 FYM      0.109100
     19 C20         1.4200    2.2240   -0.3210 c         1 FYM      0.923200
     20 C21        -0.6140   -6.3970    1.6940 c3        1 FYM      0.322200
     21 C22         3.3820   -1.6600    0.3290 c3        1 FYM      0.154100
     22 C23        -7.3240    2.7330    0.7380 c3        1 FYM      0.119700
     23 C24         1.8380    4.0160    2.3610 c3        1 FYM      0.101700
     24 C25        -1.5800    1.0080   -1.7560 c3        1 FYM      0.110300
     25 C26         3.1200    0.1080   -1.3260 c3        1 FYM      0.211100
     26 C27         1.8150   -1.9170   -1.5030 c3        1 FYM      0.215100
     27 N28        -0.9200   -0.1170   -1.1420 n         1 FYM     -0.520900
     28 N29         2.5030   -1.0010   -0.6040 n3        1 FYM     -0.722600
     29 O30         0.5510    1.8510    0.5240 o         1 FYM     -0.833300
     30 O31        -1.8960   -1.6700   -2.5270 o         1 FYM     -0.659100
     31 O32         1.1240    2.5800   -1.4960 o         1 FYM     -0.833300
     32 O33        -1.6160   -5.4560    1.2560 os        1 FYM     -0.337900
     33 O34         0.6670   -5.9570    1.1940 os        1 FYM     -0.342900
     34 O35        -6.0050    2.9810    1.1970 os        1 FYM     -0.337900
     35 O36         2.7840    4.2970    1.3300 os        1 FYM     -0.351900
     36 H1          6.7150    2.0960    0.8890 ha        1 FYM      0.110000
     37 H2          5.6930    0.3230   -0.5290 ha        1 FYM      0.112000
     38 H5          5.2830    3.9370    1.8050 ha        1 FYM      0.125000
     39 H3         -1.5560    2.3840    0.5510 ha        1 FYM      0.168500
     40 H6         -3.5520    3.2620    1.8350 ha        1 FYM      0.129000
     41 H4         -4.2250    0.6680   -2.3820 ha        1 FYM      0.168500
     42 H7         -6.1940    1.5340   -1.1440 ha        1 FYM      0.129000
     43 H8         -2.5370   -3.1280   -0.1080 ha        1 FYM      0.167000
     44 H9          2.4130   -4.2010   -0.1930 ha        1 FYM      0.151000
     45 H251       -1.8870    0.7310   -2.8040 h1        1 FYM      0.095700
     46 H252       -0.8200    1.8540   -1.7950 h1        1 FYM      0.095700
     47 H261        2.3170    0.5930   -1.9590 h1        1 FYM      0.050700
     48 H262        3.9350   -0.2650   -2.0170 h1        1 FYM      0.050700
     49 H271        2.5460   -2.5840   -2.0560 h1        1 FYM      0.042700
     50 H272        1.2670   -1.3090   -2.2800 h1        1 FYM      0.042700
     51 H28        -0.2790    0.0950   -0.3980 hn        1 FYM      0.374500
     52 H211       -0.5820   -6.3920    2.8120 h2        1 FYM      0.060700
     53 H212       -0.8450   -7.3970    1.2510 h2        1 FYM      0.060700
     54 H221        3.9240   -0.8890    0.9380 h1        1 FYM      0.028033
     55 H222        2.7660   -2.2890    1.0230 h1        1 FYM      0.028033
     56 H223        4.1460   -2.3210   -0.1700 h1        1 FYM      0.028033
     57 H231       -7.4880    3.1900   -0.2690 h1        1 FYM      0.033033
     58 H232       -7.5330    1.6350    0.7020 h1        1 FYM      0.033033
     59 H233       -7.9710    3.2300    1.5040 h1        1 FYM      0.033033
     60 H241        1.1610    3.1730    2.0710 h1        1 FYM      0.044700
     61 H242        2.3810    3.7820    3.3100 h1        1 FYM      0.044700
     62 H243        1.2670    4.9720    2.4630 h1        1 FYM      0.044700
     63 C19        -1.1570   -1.3960   -1.5480 c         1 FYM      0.654700
@<TRIPOS>BOND
     1    1    2 ar  
     2    1    5 ar  
     3    1   36 1   
     4    2   13 ar  
     5    2   37 1   
     6    3    6 ar  
     7    3   12 ar  
     8    3   39 1   
     9    4    7 ar  
    10    4   12 ar  
    11    4   41 1   
    12    5   18 ar  
    13    5   38 1   
    14    6   17 ar  
    15    6   40 1   
    16    7   17 ar  
    17    7   42 1   
    18    8   10 ar  
    19    8   15 ar  
    20    8   43 1   
    21    9   14 ar  
    22    9   16 ar  
    23    9   44 1   
    24   10   14 ar  
    25   10   63 1   
    26   11   13 ar  
    27   11   18 ar  
    28   11   19 1   
    29   12   24 1   
    30   13   25 1   
    31   14   26 1   
    32   15   16 ar  
    33   15   32 1   
    34   16   33 1   
    35   17   34 1   
    36   18   35 1   
    37   19   29 1   
    38   19   31 1   
    39   20   32 1   
    40   20   33 1   
    41   20   52 1   
    42   20   53 1   
    43   21   28 1   
    44   21   54 1   
    45   21   55 1   
    46   21   56 1   
    47   22   34 1   
    48   22   57 1   
    49   22   58 1   
    50   22   59 1   
    51   23   35 1   
    52   23   60 1   
    53   23   61 1   
    54   23   62 1   
    55   24   27 1   
    56   24   45 1   
    57   24   46 1   
    58   25   28 1   
    59   25   47 1   
    60   25   48 1   
    61   26   28 1   
    62   26   49 1   
    63   26   50 1   
    64   27   51 1   
    65   27   63 1   
    66   30   63 2   
@<TRIPOS>SUBSTRUCTURE
     1 FYM         1 TEMP              0 ****  ****    0 ROOT
