@<TRIPOS>MOLECULE
FYM
   65    68     1     0     0
SMALL
bcc


@<TRIPOS>ATOM
      1 C1         -0.3060   -0.1940    0.8870 ca        1 FYM     -0.083000
      2 C2          1.0570   -0.1990    0.5980 ca        1 FYM     -0.151000
      3 C3          3.4770    1.4600    7.9340 ca        1 FYM     -0.062500
      4 C4          5.7180    1.8610    8.7770 ca        1 FYM     -0.062500
      5 C5         -0.7690    0.2850    2.1090 ca        1 FYM     -0.177000
      6 C6          2.9390    1.8800    9.1400 ca        1 FYM     -0.188000
      7 C7          5.1950    2.2810    9.9960 ca        1 FYM     -0.188000
      8 C8          6.9380    3.9420    3.8260 ca        1 FYM     -0.105000
      9 C9          6.4150    3.8080    1.0040 ca        1 FYM     -0.118000
     10 C10         6.3390    2.8020    3.2380 ca        1 FYM     -0.123600
     11 C11         1.5300    0.7500    2.7890 ca        1 FYM     -0.121600
     12 C12         4.8690    1.4520    7.7450 ca        1 FYM     -0.222300
     13 C13         1.9700    0.2690    1.5480 ca        1 FYM     -0.118300
     14 C14         6.0960    2.7280    1.8580 ca        1 FYM     -0.060300
     15 C15         7.2470    4.9850    2.9820 ca        1 FYM      0.095100
     16 C16         6.9830    4.9230    1.5830 ca        1 FYM      0.112100
     17 C17         3.8030    2.2920   10.1780 ca        1 FYM      0.170100
     18 C18         0.1460    0.7600    3.0620 ca        1 FYM      0.168100
     19 C20         2.5200    1.2340    3.7940 c         1 FYM      0.919200
     20 C21         7.9380    6.9420    2.0390 c3        1 FYM      0.320200
     21 C22         3.6520    2.0910   -0.2810 c3        1 FYM      0.088100
     22 C23         4.0080    3.0630   12.4240 c3        1 FYM      0.107700
     23 C24        -1.5920    1.1760    4.6370 c3        1 FYM      0.107700
     24 C25         5.4230    0.9550    6.4580 c3        1 FYM      0.192100
     25 C26         3.4360    0.1880    1.2620 c3        1 FYM      0.177100
     26 C27         5.5370    1.5020    1.1920 c3        1 FYM      0.151100
     27 N28         5.2720    1.9940    5.3830 n4        1 FYM     -0.681800
     28 N29         4.0470    1.5470    1.0370 n4        1 FYM     -0.714400
     29 O30         3.2170    2.2920    3.5360 o         1 FYM     -0.842800
     30 O31         6.2980    0.4910    3.9260 o         1 FYM     -0.460100
     31 O32         2.7770    0.6250    4.8650 o         1 FYM     -0.842800
     32 O33         7.8310    6.2000    3.2850 os        1 FYM     -0.310900
     33 O34         7.3920    6.0980    0.9880 os        1 FYM     -0.309900
     34 O35         3.1720    2.6910   11.3300 os        1 FYM     -0.312900
     35 O36        -0.2150    1.2810    4.2820 os        1 FYM     -0.304900
     36 H1         -1.0250   -0.5720    0.1420 ha        1 FYM      0.151000
     37 H2          1.4100   -0.5880   -0.3690 ha        1 FYM      0.136000
     38 H5         -1.8490    0.2820    2.3210 ha        1 FYM      0.156000
     39 H3          2.8130    1.1210    7.1160 ha        1 FYM      0.157500
     40 H6          1.8510    1.8910    9.3070 ha        1 FYM      0.159500
     41 H4          6.8110    1.8390    8.6390 ha        1 FYM      0.157500
     42 H7          5.8730    2.5920   10.8040 ha        1 FYM      0.159500
     43 H8          7.1810    4.0010    4.8960 ha        1 FYM      0.167000
     44 H9          6.2360    3.7570   -0.0790 ha        1 FYM      0.170000
     45 H251        6.5140    0.6960    6.5470 hx        1 FYM      0.109700
     46 H252        4.8490    0.0460    6.1030 hx        1 FYM      0.109700
     47 H261        3.9500   -0.2740    2.1580 hx        1 FYM      0.099200
     48 H262        3.6400   -0.4440    0.3530 hx        1 FYM      0.099200
     49 H271        6.0020    1.3890    0.1690 hx        1 FYM      0.111200
     50 H272        5.8170    0.5810    1.7850 hx        1 FYM      0.111200
     51 H28         5.5520    2.9120    5.7340 hn        1 FYM      0.492800
     52 H211        9.0210    7.1210    1.8240 h2        1 FYM      0.102200
     53 H212        7.3090    7.8630    2.1180 h2        1 FYM      0.102200
     54 H221        2.5290    2.0950   -0.3450 hx        1 FYM      0.093367
     55 H222        4.0670    1.4550   -1.1060 hx        1 FYM      0.093367
     56 H223        4.0390    3.1390   -0.3780 hx        1 FYM      0.093367
     57 H231        4.6580    2.2080   12.7310 h1        1 FYM      0.054700
     58 H232        3.2740    3.3140   13.2320 h1        1 FYM      0.054700
     59 H233        4.6250    3.9550   12.1590 h1        1 FYM      0.054700
     60 H241       -1.9230    0.1090    4.6300 h1        1 FYM      0.054033
     61 H242       -2.2210    1.7920    3.9500 h1        1 FYM      0.054033
     62 H243       -1.6170    1.5920    5.6770 h1        1 FYM      0.054033
     63 H282        4.2350    2.0470    5.1300 hn        1 FYM      0.492800
     64 H291        3.6510    2.1860    1.7920 hn        1 FYM      0.518800
     65 C19         6.0120    1.6680    4.1360 c         1 FYM      0.582700
@<TRIPOS>BOND
     1    1    2 ar  
     2    1    5 ar  
     3    1   36 1   
     4    2   13 ar  
     5    2   37 1   
     6    3    6 ar  
     7    3   12 ar  
     8    3   39 1   
     9    4    7 ar  
    10    4   12 ar  
    11    4   41 1   
    12    5   18 ar  
    13    5   38 1   
    14    6   17 ar  
    15    6   40 1   
    16    7   17 ar  
    17    7   42 1   
    18    8   10 ar  
    19    8   15 ar  
    20    8   43 1   
    21    9   14 ar  
    22    9   16 ar  
    23    9   44 1   
    24   10   14 ar  
    25   10   65 1   
    26   11   13 ar  
    27   11   18 ar  
    28   11   19 1   
    29   12   24 1   
    30   13   25 1   
    31   14   26 1   
    32   15   16 ar  
    33   15   32 1   
    34   16   33 1   
    35   17   34 1   
    36   18   35 1   
    37   19   29 1   
    38   19   31 1   
    39   20   32 1   
    40   20   33 1   
    41   20   52 1   
    42   20   53 1   
    43   21   28 1   
    44   21   54 1   
    45   21   55 1   
    46   21   56 1   
    47   22   34 1   
    48   22   57 1   
    49   22   58 1   
    50   22   59 1   
    51   23   35 1   
    52   23   60 1   
    53   23   61 1   
    54   23   62 1   
    55   24   27 1   
    56   24   45 1   
    57   24   46 1   
    58   25   28 1   
    59   25   47 1   
    60   25   48 1   
    61   26   28 1   
    62   26   49 1   
    63   26   50 1   
    64   27   51 1   
    65   27   63 1   
    66   27   65 1   
    67   28   64 1   
    68   30   65 2   
@<TRIPOS>SUBSTRUCTURE
     1 FYM         1 TEMP              0 ****  ****    0 ROOT
