@<TRIPOS>MOLECULE
FYM
   65    68     1     0     0
SMALL
bcc


@<TRIPOS>ATOM
      1 C1         -0.2670   -0.2130    0.7390 ca        1 FYM     -0.048000
      2 C2          1.1030   -0.1760    0.4720 ca        1 FYM     -0.163000
      3 C3          3.5030    1.6700    7.6620 ca        1 FYM     -0.064500
      4 C4          5.6420    1.8910    8.7820 ca        1 FYM     -0.064500
      5 C5         -0.7590    0.1650    1.9850 ca        1 FYM     -0.198000
      6 C6          2.8490    2.1180    8.7980 ca        1 FYM     -0.184000
      7 C7          5.0020    2.3370    9.9350 ca        1 FYM     -0.184000
      8 C8          7.2900    3.8780    3.7230 ca        1 FYM     -0.109000
      9 C9          6.5510    3.7050    0.9470 ca        1 FYM     -0.124000
     10 C10         6.6150    2.7480    3.1940 ca        1 FYM     -0.191600
     11 C11         1.5300    0.5790    2.7340 ca        1 FYM     -0.203600
     12 C12         4.9020    1.5570    7.6450 ca        1 FYM     -0.222300
     13 C13         2.0050    0.2160    1.4630 ca        1 FYM      0.007700
     14 C14         6.2530    2.6550    1.8460 ca        1 FYM      0.011700
     15 C15         7.5740    4.8870    2.8360 ca        1 FYM      0.071100
     16 C16         7.2090    4.8020    1.4580 ca        1 FYM      0.118100
     17 C17         3.6030    2.4510    9.9440 ca        1 FYM      0.172100
     18 C18         0.1400    0.5730    2.9790 ca        1 FYM      0.164100
     19 C20         2.4740    0.9310    3.7980 c         1 FYM      0.709700
     20 C21         8.2790    6.7880    1.7940 c3        1 FYM      0.320200
     21 C22         3.5630    2.5390    0.4700 c3        1 FYM      0.133100
     22 C23         3.5790    3.1830   12.2120 c3        1 FYM      0.106700
     23 C24        -1.6140    0.8430    4.5790 c3        1 FYM      0.115700
     24 C25         5.5840    1.0270    6.4340 c3        1 FYM      0.184100
     25 C26         3.4800    0.2210    1.1660 c3        1 FYM      0.188100
     26 C27         5.5590    1.4390    1.2870 c3        1 FYM      0.184100
     27 N28         5.4750    1.9900    5.2890 ny        1 FYM     -0.676800
     28 N29         4.1010    1.5330    1.3630 n3        1 FYM     -0.737600
     29 O30         2.2820    2.0480    4.5650 oh        1 FYM     -0.629100
     30 O31         6.7840    0.4870    4.0650 o         1 FYM     -0.413100
     31 O32         3.5160    0.3430    4.1250 o         1 FYM     -0.571000
     32 O33         8.2200    6.0900    3.0660 os        1 FYM     -0.317900
     33 O34         7.6200    5.9480    0.8080 os        1 FYM     -0.310900
     34 O35         2.8630    2.8830   11.0150 os        1 FYM     -0.312900
     35 O36        -0.2370    1.0040    4.2330 os        1 FYM     -0.358900
     36 H1         -0.9680   -0.5380   -0.0470 ha        1 FYM      0.156000
     37 H2          1.4720   -0.4660   -0.5240 ha        1 FYM      0.154000
     38 H5         -1.8410    0.1410    2.1790 ha        1 FYM      0.159000
     39 H3          2.9200    1.3970    6.7630 ha        1 FYM      0.146000
     40 H6          1.7530    2.2100    8.8290 ha        1 FYM      0.160500
     41 H4          6.7390    1.7910    8.7800 ha        1 FYM      0.146000
     42 H7          5.5950    2.5880   10.8260 ha        1 FYM      0.160500
     43 H8          7.6050    3.9360    4.7740 ha        1 FYM      0.159000
     44 H9          6.2730    3.6380   -0.1150 ha        1 FYM      0.180000
     45 H251        5.1050    0.0620    6.0880 hx        1 FYM      0.112700
     46 H252        6.6780    0.8370    6.6260 hx        1 FYM      0.112700
     47 H261        3.6450   -0.1580    0.1140 h1        1 FYM      0.068200
     48 H262        3.9700   -0.5080    1.8780 h1        1 FYM      0.068200
     49 H271        5.9110    1.2960    0.2210 h1        1 FYM      0.067200
     50 H272        5.8890    0.5290    1.8680 h1        1 FYM      0.067200
     51 H28         4.4900    1.9760    4.9540 hn        1 FYM      0.471300
     52 H211        7.7050    7.7430    1.8850 h2        1 FYM      0.097200
     53 H212        9.3510    6.9070    1.5000 h2        1 FYM      0.097200
     54 H221        2.4480    2.5690    0.5850 h1        1 FYM      0.045033
     55 H222        3.8060    2.3480   -0.6110 h1        1 FYM      0.045033
     56 H223        3.9830    3.5390    0.7580 h1        1 FYM      0.045033
     57 H231        4.2870    4.0290   12.0420 h1        1 FYM      0.057033
     58 H232        4.1200    2.2790   12.5820 h1        1 FYM      0.057033
     59 H233        2.7680    3.4800   12.9250 h1        1 FYM      0.057033
     60 H241       -1.9190   -0.2270    4.4840 h1        1 FYM      0.060033
     61 H242       -1.6480    1.1730    5.6490 h1        1 FYM      0.060033
     62 H243       -2.2510    1.5000    3.9400 h1        1 FYM      0.060033
     63 H282        5.6920    2.9400    5.6040 hn        1 FYM      0.471300
     64 H291        1.4200    2.4530    4.3800 ho        1 FYM      0.468000
     65 C19         6.3600    1.6310    4.1210 c         1 FYM      0.588700
@<TRIPOS>BOND
     1    1    2 ar  
     2    1    5 ar  
     3    1   36 1   
     4    2   13 ar  
     5    2   37 1   
     6    3    6 ar  
     7    3   12 ar  
     8    3   39 1   
     9    4    7 ar  
    10    4   12 ar  
    11    4   41 1   
    12    5   18 ar  
    13    5   38 1   
    14    6   17 ar  
    15    6   40 1   
    16    7   17 ar  
    17    7   42 1   
    18    8   10 ar  
    19    8   15 ar  
    20    8   43 1   
    21    9   14 ar  
    22    9   16 ar  
    23    9   44 1   
    24   10   14 ar  
    25   10   65 1   
    26   11   13 ar  
    27   11   18 ar  
    28   11   19 1   
    29   12   24 1   
    30   13   25 1   
    31   14   26 1   
    32   15   16 ar  
    33   15   32 1   
    34   16   33 1   
    35   17   34 1   
    36   18   35 1   
    37   19   29 1   
    38   19   31 2   
    39   20   32 1   
    40   20   33 1   
    41   20   52 1   
    42   20   53 1   
    43   21   28 1   
    44   21   54 1   
    45   21   55 1   
    46   21   56 1   
    47   22   34 1   
    48   22   57 1   
    49   22   58 1   
    50   22   59 1   
    51   23   35 1   
    52   23   60 1   
    53   23   61 1   
    54   23   62 1   
    55   24   27 1   
    56   24   45 1   
    57   24   46 1   
    58   25   28 1   
    59   25   47 1   
    60   25   48 1   
    61   26   28 1   
    62   26   49 1   
    63   26   50 1   
    64   27   51 1   
    65   27   63 1   
    66   27   65 1   
    67   29   64 1   
    68   30   65 2   
@<TRIPOS>SUBSTRUCTURE
     1 FYM         1 TEMP              0 ****  ****    0 ROOT
