@<TRIPOS>MOLECULE
FYO
   30    32     1     0     0
SMALL
bcc


@<TRIPOS>ATOM
      1 NAA         8.2890   -0.9420    9.3480 n1        1 FYO     -0.313800
      2 OAB        -0.1390   -0.3240    0.0360 o         1 FYO     -0.589500
      3 OAC         3.7510    0.3690   -2.2410 o         1 FYO     -0.593500
      4 CAE         8.2340   -0.7440    8.2040 cg        1 FYO      0.171500
      5 CAF         1.8520   -0.1820    1.3490 ce        1 FYO     -0.209200
      6 CAG         3.9910    0.1700    0.1420 c3        1 FYO     -0.127200
      7 CAH         7.9590   -0.0290    4.0530 cc        1 FYO     -0.191200
      8 CAI         6.8980   -0.4090    6.2000 cd        1 FYO     -0.172000
      9 NAJ         3.3770    0.1420    3.9120 na        1 FYO     -0.127400
     10 NAK         1.8120    0.0190   -1.1050 ns        1 FYO     -0.593500
     11 NAL         9.3090   -0.3660    6.0710 ns        1 FYO     -0.435100
     12 NAM         5.2930   -0.1430    2.7680 nd        1 FYO     -0.644000
     13 NAN         4.3120    0.1090    4.8470 nc        1 FYO     -0.484800
     14 CAO         1.0940   -0.1730    0.0770 c         1 FYO      0.703700
     15 CAP         3.1960    0.1960   -1.1440 c         1 FYO      0.703500
     16 CAQ         9.2790   -0.1280    4.6850 c         1 FYO      0.683700
     17 CAR         8.1360   -0.5010    6.7950 cc        1 FYO      0.165900
     18 CAS         3.1860   -0.0150    1.3770 cf        1 FYO     -0.087000
     19 CAT         6.8180   -0.1650    4.7860 cd        1 FYO     -0.037800
     20 CAU         3.9460   -0.0090    2.6240 cd        1 FYO      0.439300
     21 CAV         5.4990   -0.0680    4.1610 cd        1 FYO      0.559800
     22 HAF         1.2240   -0.3440    2.2390 ha        1 FYO      0.163000
     23 HAG         4.7490   -0.6620    0.0540 hc        1 FYO      0.121700
     24 HAGA        4.5730    1.1330    0.2030 hc        1 FYO      0.121700
     25 HAH         7.9710    0.1560    2.9680 ha        1 FYO      0.186000
     26 HAI         5.9850   -0.5210    6.8020 ha        1 FYO      0.176000
     27 HNAK        1.3090    0.0310   -1.9680 hn        1 FYO      0.346500
     28 HNAL       10.1910   -0.4390    6.5300 hn        1 FYO      0.344500
     29 HNAJ        2.4190    0.2770    4.1480 hn        1 FYO      0.339700
     30 OAD        10.3640   -0.0140    4.0850 o         1 FYO     -0.619500
@<TRIPOS>BOND
     1    1    4 3   
     2    2   14 2   
     3    3   15 2   
     4    4   17 1   
     5    5   14 1   
     6    5   18 2   
     7    5   22 1   
     8    6   15 1   
     9    6   18 1   
    10    6   23 1   
    11    6   24 1   
    12    7   16 1   
    13    7   19 2   
    14    7   25 1   
    15    8   17 2   
    16    8   19 1   
    17    8   26 1   
    18    9   13 1   
    19    9   20 1   
    20    9   29 1   
    21   10   14 1   
    22   10   15 1   
    23   10   27 1   
    24   11   16 1   
    25   11   17 1   
    26   11   28 1   
    27   12   20 2   
    28   12   21 1   
    29   13   21 2   
    30   16   30 2   
    31   18   20 1   
    32   19   21 1   
@<TRIPOS>SUBSTRUCTURE
     1 FYO         1 TEMP              0 ****  ****    0 ROOT
