@<TRIPOS>MOLECULE
FYO
   30    32     1     0     0
SMALL
bcc


@<TRIPOS>ATOM
      1 NAA         8.4520   -1.9710    9.0340 n1        1 FYO     -0.313800
      2 OAB        -0.0990    0.6010    0.0560 o         1 FYO     -0.588500
      3 OAC         3.7110   -0.2620   -2.2960 o         1 FYO     -0.593500
      4 CAE         8.3560   -1.5300    7.9630 cg        1 FYO      0.171500
      5 CAF         1.8780    0.2120    1.3400 ce        1 FYO     -0.209200
      6 CAG         3.9770   -0.2330    0.0930 c3        1 FYO     -0.127200
      7 CAH         7.9360    0.0550    4.0740 cc        1 FYO     -0.191200
      8 CAI         6.9660   -0.9570    6.0520 cd        1 FYO     -0.172000
      9 NAJ         3.3800   -0.4230    3.8590 na        1 FYO     -0.127400
     10 NAK         1.8130    0.1740   -1.1210 n         1 FYO     -0.593500
     11 NAL         9.3410   -0.5210    5.9980 n         1 FYO     -0.435100
     12 NAM         5.3090   -0.1850    2.7240 nd        1 FYO     -0.644000
     13 NAN         4.3180   -0.5270    4.7860 nc        1 FYO     -0.484800
     14 CAO         1.1170    0.3470    0.0760 c         1 FYO      0.703700
     15 CAP         3.1770   -0.1130   -1.1850 c         1 FYO      0.703500
     16 CAQ         9.2610    0.0180    4.7010 c         1 FYO      0.683700
     17 CAR         8.2090   -0.9930    6.6430 cc        1 FYO      0.165900
     18 CAS         3.1940   -0.0660    1.3450 cf        1 FYO     -0.088000
     19 CAT         6.8360   -0.4150    4.7270 cd        1 FYO     -0.037800
     20 CAU         3.9560   -0.2150    2.5820 cd        1 FYO      0.439300
     21 CAV         5.5130   -0.3800    4.1060 cd        1 FYO      0.558800
     22 HAF         1.2700    0.3660    2.2440 ha        1 FYO      0.164000
     23 HAG         4.4810   -1.2420    0.0860 hc        1 FYO      0.121200
     24 HAGA        4.7980    0.5400    0.0510 hc        1 FYO      0.121200
     25 HAH         7.9090    0.4810    3.0590 ha        1 FYO      0.186000
     26 HAI         6.0870   -1.3390    6.5890 ha        1 FYO      0.176000
     27 HNAK        1.3070    0.2580   -1.9800 hn        1 FYO      0.346500
     28 HNAL       10.2280   -0.5610    6.4520 hn        1 FYO      0.344500
     29 HNAJ        2.4160   -0.5030    4.0920 hn        1 FYO      0.339700
     30 OAD        10.3100    0.4270    4.1700 o         1 FYO     -0.619500
@<TRIPOS>BOND
     1    1    4 3   
     2    2   14 2   
     3    3   15 2   
     4    4   17 1   
     5    5   14 1   
     6    5   18 2   
     7    5   22 1   
     8    6   15 1   
     9    6   18 1   
    10    6   23 1   
    11    6   24 1   
    12    7   16 1   
    13    7   19 2   
    14    7   25 1   
    15    8   17 2   
    16    8   19 1   
    17    8   26 1   
    18    9   13 1   
    19    9   20 1   
    20    9   29 1   
    21   10   14 1   
    22   10   15 1   
    23   10   27 1   
    24   11   16 1   
    25   11   17 1   
    26   11   28 1   
    27   12   20 2   
    28   12   21 1   
    29   13   21 2   
    30   16   30 2   
    31   18   20 1   
    32   19   21 1   
@<TRIPOS>SUBSTRUCTURE
     1 FYO         1 TEMP              0 ****  ****    0 ROOT
