@<TRIPOS>MOLECULE
FYO
   30    27     1     0     0
SMALL
bcc


@<TRIPOS>ATOM
      1 NAA         2.5690    4.8800    4.3340 n1        1 FYO      0.011000
      2 OAB        -2.1560   -3.2490   -4.6120 o         1 FYO     -0.300000
      3 OAC        -4.3330    0.5080   -3.4800 o         1 FYO     -0.323000
      4 OAD         5.4840    0.1520    2.0540 o         1 FYO     -0.344000
      5 CAE         2.6840    3.8630    3.7990 c1        1 FYO     -0.120000
      6 CAF        -1.4250   -2.0330   -2.6120 c1        1 FYO     -0.135000
      7 CAG        -3.1820   -0.4300   -1.6910 c3        1 FYO     -0.169000
      8 CAH         3.1430    0.0040    1.5160 c1        1 FYO     -0.171000
      9 CAI         1.6250    1.8650    2.4340 c1        1 FYO     -0.172000
     10 NAJ        -1.0450   -1.4030    0.7190 n2        1 FYO     -0.170000
     11 NAK        -3.6350   -1.5760   -3.8520 n         1 FYO     -0.373000
     12 NAL         4.1700    1.8750    2.9870 n3        1 FYO     -0.279000
     13 NAM         0.0330    0.1800   -0.2830 n2        1 FYO     -0.116000
     14 NAN        -0.0770   -0.9620    1.5370 n2        1 FYO     -0.053000
     15 CAO        -2.4590   -2.4090   -3.7080 c1        1 FYO      0.334000
     16 CAP        -3.7030   -0.4060   -3.0970 c2        1 FYO      0.315000
     17 CAQ         4.3450    0.6570    2.1820 c1        1 FYO      0.322000
     18 CAR         2.8350    2.5150    3.0870 c1        1 FYO      0.129000
     19 CAS        -1.8110   -0.9340   -1.6260 c2        1 FYO     -0.010000
     20 CAT         1.7860    0.6240    1.6530 c1        1 FYO      0.072000
     21 CAU        -0.9820   -0.7050   -0.4000 c2        1 FYO     -0.012000
     22 CAV         0.5830    0.0190    0.9040 c2        1 FYO     -0.077000
     23 HAF        -0.4510   -2.3150   -2.7100 ha        1 FYO      0.195000
     24 HAG        -3.3750    0.3720   -1.2030 hc        1 FYO      0.139500
     25 HAGA       -3.7170   -1.0620   -1.1860 hc        1 FYO      0.139500
     26 HAH         3.2580   -0.8330    0.9910 ha        1 FYO      0.187000
     27 HAI         0.7420    2.2760    2.5270 ha        1 FYO      0.175000
     28 HNAK       -4.1770   -1.6890   -4.5490 hn        1 FYO      0.261000
     29 HNAL        4.8980    2.2710    3.3820 hn        1 FYO      0.258000
     30 HNAJ       -1.6270   -2.0530    0.9000 DU        1 FYO      0.286000
@<TRIPOS>BOND
     1    1    5 1   
     2    2   15 1   
     3    3   16 1   
     4    4   17 1   
     5    6   19 1   
     6    6   23 1   
     7    7   16 1   
     8    7   19 1   
     9    7   24 1   
    10    7   25 1   
    11    8   20 1   
    12    8   26 1   
    13    9   18 1   
    14    9   27 1   
    15   10   14 1   
    16   10   21 1   
    17   11   15 1   
    18   11   16 1   
    19   11   28 1   
    20   12   17 1   
    21   12   18 1   
    22   12   29 1   
    23   13   21 1   
    24   13   22 1   
    25   14   22 1   
    26   19   21 1   
    27   20   22 1   
@<TRIPOS>SUBSTRUCTURE
     1 FYO         1 TEMP              0 ****  ****    0 ROOT
