@<TRIPOS>MOLECULE
FYO
   30    32     1     0     0
SMALL
bcc


@<TRIPOS>ATOM
      1 NAA         6.6320    2.0330   -0.3280 n1        1 FYO     -0.313800
      2 OAB        -5.9420    1.8660   -0.3310 o         1 FYO     -0.589500
      3 OAC        -4.9970   -2.5790    0.0420 o         1 FYO     -0.593500
      4 CAE         5.7480    1.2840   -0.2360 cg        1 FYO      0.171500
      5 CAF        -3.6350    1.2830   -0.1260 ce        1 FYO     -0.209200
      6 CAG        -3.0800   -1.1290    0.0540 c3        1 FYO     -0.127200
      7 CAH         2.4890   -1.3780    0.0980 cc        1 FYO     -0.191200
      8 CAI         3.3570    0.8810   -0.0490 cd        1 FYO     -0.172000
      9 NAJ        -0.7380    1.8700    0.3890 na        1 FYO     -0.127400
     10 NAK        -5.4670   -0.3620   -0.1490 n         1 FYO     -0.593500
     11 NAL         4.9000   -0.9760   -0.0890 n         1 FYO     -0.435100
     12 NAM        -0.2590   -0.2830   -0.0540 nd        1 FYO     -0.644000
     13 NAN         0.5830    1.8180    0.4150 nc        1 FYO     -0.484800
     14 CAO        -5.0820    0.9780   -0.2110 c         1 FYO      0.703700
     15 CAP        -4.5630   -1.4170   -0.0150 c         1 FYO      0.703500
     16 CAQ         3.8540   -1.9100    0.0210 c         1 FYO      0.683700
     17 CAR         4.6390    0.3830   -0.1220 cc        1 FYO      0.165900
     18 CAS        -2.7150    0.3110    0.0060 cf        1 FYO     -0.088000
     19 CAT         2.2560   -0.0350    0.0640 cd        1 FYO     -0.037800
     20 CAU        -1.2860    0.5950    0.1040 cd        1 FYO      0.439300
     21 CAV         0.8970    0.5000    0.1410 cd        1 FYO      0.559800
     22 HAF        -3.4020    2.3570   -0.1880 ha        1 FYO      0.163000
     23 HAG        -2.6860   -1.5940    1.0020 hc        1 FYO      0.121700
     24 HAGA       -2.5900   -1.6750   -0.8030 hc        1 FYO      0.121700
     25 HAH         1.6940   -2.1350    0.1820 ha        1 FYO      0.186000
     26 HAI         3.1820    1.9660   -0.0780 ha        1 FYO      0.176000
     27 HNAK       -6.4420   -0.5780   -0.2010 hn        1 FYO      0.346500
     28 HNAL        5.8390   -1.3060   -0.1450 hn        1 FYO      0.344500
     29 HNAJ       -1.2230    2.7200    0.5720 hn        1 FYO      0.339700
     30 OAD         4.1460   -3.1200    0.0460 o         1 FYO     -0.619500
@<TRIPOS>BOND
     1    1    4 3   
     2    2   14 2   
     3    3   15 2   
     4    4   17 1   
     5    5   14 1   
     6    5   18 2   
     7    5   22 1   
     8    6   15 1   
     9    6   18 1   
    10    6   23 1   
    11    6   24 1   
    12    7   16 1   
    13    7   19 2   
    14    7   25 1   
    15    8   17 2   
    16    8   19 1   
    17    8   26 1   
    18    9   13 1   
    19    9   20 1   
    20    9   29 1   
    21   10   14 1   
    22   10   15 1   
    23   10   27 1   
    24   11   16 1   
    25   11   17 1   
    26   11   28 1   
    27   12   20 2   
    28   12   21 1   
    29   13   21 2   
    30   16   30 2   
    31   18   20 1   
    32   19   21 1   
@<TRIPOS>SUBSTRUCTURE
     1 FYO         1 TEMP              0 ****  ****    0 ROOT
