@<TRIPOS>MOLECULE
FYO
   30    32     1     0     0
SMALL
bcc


@<TRIPOS>ATOM
      1 NAA         9.4020   -3.6160    7.5710 n1        1 FYO     -0.313800
      2 OAB        -0.2060    0.3990    0.3660 o         1 FYO     -0.588500
      3 OAC         3.4220    0.7560   -2.3720 o         1 FYO     -0.593500
      4 CAE         9.1570   -2.8920    6.6950 cg        1 FYO      0.171500
      5 CAF         1.9160   -0.0990    1.3430 ce        1 FYO     -0.209200
      6 CAG         3.9170    0.1120   -0.1100 c3        1 FYO     -0.127200
      7 CAH         8.1970   -0.2870    3.5150 cc        1 FYO     -0.191200
      8 CAI         7.5340   -1.9580    5.1430 cd        1 FYO     -0.172000
      9 NAJ         3.7150   -1.2560    3.4490 na        1 FYO     -0.127400
     10 NAK         1.6140    0.5830   -1.0040 n         1 FYO     -0.593500
     11 NAL         9.8350   -1.2260    5.0780 n         1 FYO     -0.435100
     12 NAM         5.4890   -0.4510    2.3220 nd        1 FYO     -0.644000
     13 NAN         4.7450   -1.5090    4.2390 nc        1 FYO     -0.484800
     14 CAO         1.0250    0.3060    0.2310 c         1 FYO      0.703700
     15 CAP         2.9880    0.5020   -1.2370 c         1 FYO      0.703500
     16 CAQ         9.5740   -0.3400    4.0170 c         1 FYO      0.683700
     17 CAR         8.8270   -2.0090    5.6150 cc        1 FYO      0.165900
     18 CAS         3.2480   -0.1970    1.1800 cf        1 FYO     -0.088000
     19 CAT         7.2210   -1.0670    4.0600 cd        1 FYO     -0.037800
     20 CAU         4.1380   -0.6080    2.2620 cd        1 FYO      0.439300
     21 CAV         5.8460   -1.0180    3.5630 cd        1 FYO      0.558800
     22 HAF         1.3870   -0.2960    2.2880 ha        1 FYO      0.164000
     23 HAG         4.6480    0.9600    0.0340 hc        1 FYO      0.121200
     24 HAGA        4.5170   -0.7780   -0.4550 hc        1 FYO      0.121200
     25 HAH         8.0270    0.4150    2.6840 ha        1 FYO      0.186000
     26 HAI         6.7560   -2.5910    5.5900 ha        1 FYO      0.176000
     27 HNAK        1.0200    0.8520   -1.7620 hn        1 FYO      0.346500
     28 HNAL       10.7620   -1.2860    5.4410 hn        1 FYO      0.344500
     29 HNAJ        2.7910   -1.5220    3.7060 hn        1 FYO      0.339700
     30 OAD        10.5180    0.3390    3.5730 o         1 FYO     -0.619500
@<TRIPOS>BOND
     1    1    4 3   
     2    2   14 2   
     3    3   15 2   
     4    4   17 1   
     5    5   14 1   
     6    5   18 2   
     7    5   22 1   
     8    6   15 1   
     9    6   18 1   
    10    6   23 1   
    11    6   24 1   
    12    7   16 1   
    13    7   19 2   
    14    7   25 1   
    15    8   17 2   
    16    8   19 1   
    17    8   26 1   
    18    9   13 1   
    19    9   20 1   
    20    9   29 1   
    21   10   14 1   
    22   10   15 1   
    23   10   27 1   
    24   11   16 1   
    25   11   17 1   
    26   11   28 1   
    27   12   20 2   
    28   12   21 1   
    29   13   21 2   
    30   16   30 2   
    31   18   20 1   
    32   19   21 1   
@<TRIPOS>SUBSTRUCTURE
     1 FYO         1 TEMP              0 ****  ****    0 ROOT
