@<TRIPOS>MOLECULE
FYQ
   67    66     1     0     0
SMALL
bcc


@<TRIPOS>ATOM
      1 CAN        -2.7490   -0.4340    2.1280 ca        1 FYQ     -0.060000
      2 CAP        -4.0980   -0.4050    1.8920 ca        1 FYQ     -0.325500
      3 CBH        -4.7180    0.7240    1.2350 ca        1 FYQ      0.303000
      4 CAQ        -3.8770    1.8850    1.0640 ca        1 FYQ     -0.325500
      5 CAO        -2.5290    1.8290    1.3230 ca        1 FYQ     -0.060000
      6 CBG        -1.9150    0.6470    1.7720 ca        1 FYQ     -0.341000
      7 OAZ        -5.9120    0.6800    0.8080 o         1 FYQ     -0.522000
      8 PBL        -7.2590   -0.7070   -0.5590 p3        1 FYQ      2.491000
      9 OAK        -8.0250   -1.3900    0.5040 o         1 FYQ     -1.168000
     10 OAM        -7.9150    0.3510   -1.3550 o         1 FYQ     -1.168000
     11 OAL        -6.0600   -1.3810   -1.1160 o         1 FYQ     -1.168000
     12 CAV        -0.4500    0.4850    1.8170 c3        1 FYQ     -0.048000
     13 CBI         0.2510    0.9350    0.5250 c3        1 FYQ     -0.098000
     14 CBE         1.6920    0.4400    0.5970 c2        1 FYQ      0.311000
     15 OAI         2.4580    0.8650    1.5000 o         1 FYQ     -0.459000
     16 CAU        -0.5060    0.6350   -0.7550 c3        1 FYQ     -0.177000
     17 CBD        -1.0310   -0.7830   -0.9550 c2        1 FYQ      0.302000
     18 NAW        -2.3640   -1.0050   -0.8460 n         1 FYQ     -0.291000
     19 CAA        -2.9740   -2.2690   -1.1320 c3        1 FYQ     -0.112000
     20 OAH        -0.2330   -1.6940   -1.3340 o         1 FYQ     -0.526000
     21 NAX         2.1730   -0.4410   -0.3470 n         1 FYQ     -0.368000
     22 CBK         3.3570   -1.2340   -0.1340 c3        1 FYQ      0.024000
     23 CBF         4.6320   -0.4760   -0.5900 c2        1 FYQ      0.299000
     24 OAJ         5.2680   -0.7950   -1.6160 o         1 FYQ     -0.402000
     25 CAS         3.3100   -2.5790   -0.8770 c3        1 FYQ     -0.152000
     26 CAR         2.2810   -3.5060   -0.2660 c3        1 FYQ     -0.189000
     27 CBA         1.9470   -4.6310   -1.2320 c2        1 FYQ      0.303000
     28 OAE         2.5910   -5.7060   -1.2300 o         1 FYQ     -0.425000
     29 NAB         0.9290   -4.4280   -2.1220 n         1 FYQ     -0.419000
     30 N           5.0530    0.5480    0.2290 n         1 FYQ     -0.381000
     31 CA          6.1600    1.4070   -0.0940 c3        1 FYQ      0.024000
     32 C           7.5180    0.7830    0.3290 c2        1 FYQ      0.285000
     33 O           8.2520    1.3210    1.1840 o         1 FYQ     -0.402000
     34 CB          6.0570    2.7900    0.5610 c3        1 FYQ     -0.186000
     35 CG          4.9450    3.6120   -0.0620 c2        1 FYQ      0.296000
     36 OD1         5.1990    4.4510   -0.9560 o         1 FYQ     -0.401000
     37 ND2         3.6670    3.4550    0.3980 n         1 FYQ     -0.421000
     38 NAD         7.8980   -0.3690   -0.2980 n         1 FYQ     -0.426000
     39 HAN        -2.2900   -1.3290    2.5790 ha        1 FYQ      0.076500
     40 HAP        -4.7450   -1.2550    2.1460 ha        1 FYQ      0.124000
     41 HAQ        -4.3480    2.8030    0.6910 ha        1 FYQ      0.124000
     42 HAO        -1.9000    2.7170    1.1490 ha        1 FYQ      0.076500
     43 HAV         0.0010    1.0820    2.6570 hc        1 FYQ      0.065000
     44 HAVA       -0.1940   -0.5930    2.0070 hc        1 FYQ      0.065000
     45 HBI         0.3340    2.0630    0.5730 hc        1 FYQ      0.105000
     46 HAU        -1.3730    1.3570   -0.7860 hc        1 FYQ      0.111000
     47 HAUA        0.1430    0.8630   -1.6430 hc        1 FYQ      0.111000
     48 HAA        -2.7190   -3.0210   -0.3390 h1        1 FYQ      0.104333
     49 HAAA       -4.0990   -2.1230   -1.1730 h1        1 FYQ      0.104333
     50 HNAX        1.5340   -0.8040   -1.0320 hn        1 FYQ      0.276000
     51 HBK         3.4700   -1.4420    0.9760 h1        1 FYQ      0.111000
     52 HAS         3.0890   -2.4020   -1.9630 hc        1 FYQ      0.109000
     53 HASA        4.3280   -3.0460   -0.8220 hc        1 FYQ      0.109000
     54 HAR         2.6870   -3.9680    0.6710 hc        1 FYQ      0.119000
     55 HARA        1.3430   -2.9460    0.0020 hc        1 FYQ      0.119000
     56 HNAB        0.3530   -3.6180   -2.0570 hn        1 FYQ      0.240500
     57 HNAA        0.6410   -5.1710   -2.7070 hn        1 FYQ      0.240500
     58 HN          4.5130    0.7680    1.0410 hn        1 FYQ      0.264000
     59 HA          6.1970    1.5420   -1.2210 h1        1 FYQ      0.134000
     60 HB          5.9250    2.6940    1.6700 hc        1 FYQ      0.128500
     61 HBA         7.0260    3.3310    0.3850 hc        1 FYQ      0.128500
     62 HND2        3.4260    2.7390    1.0410 hn        1 FYQ      0.237500
     63 HNDA        2.9330    3.9520   -0.0430 hn        1 FYQ      0.237500
     64 HNAD        7.3100   -0.8040   -0.9690 hn        1 FYQ      0.235000
     65 HNAC        8.7460   -0.8090   -0.0430 hn        1 FYQ      0.235000
     66 H30        -2.9470   -0.3180   -0.3990 hn        1 FYQ      0.285000
     67 H31        -2.5960   -2.6580   -2.1150 h1        1 FYQ      0.104333
@<TRIPOS>BOND
     1    1    2 1   
     2    1    6 1   
     3    1   39 1   
     4    2    3 1   
     5    2   40 1   
     6    3    4 1   
     7    3    7 1   
     8    4    5 1   
     9    4   41 1   
    10    5    6 1   
    11    5   42 1   
    12    6   12 1   
    13    8    9 1   
    14    8   10 1   
    15    8   11 1   
    16   12   13 1   
    17   12   43 1   
    18   12   44 1   
    19   13   14 1   
    20   13   16 1   
    21   13   45 1   
    22   14   15 1   
    23   14   21 1   
    24   16   17 1   
    25   16   46 1   
    26   16   47 1   
    27   17   18 1   
    28   17   20 1   
    29   18   19 1   
    30   18   66 1   
    31   19   48 1   
    32   19   49 1   
    33   19   67 1   
    34   21   22 1   
    35   21   50 1   
    36   22   23 1   
    37   22   25 1   
    38   22   51 1   
    39   23   24 1   
    40   23   30 1   
    41   25   26 1   
    42   25   52 1   
    43   25   53 1   
    44   26   27 1   
    45   26   54 1   
    46   26   55 1   
    47   27   28 1   
    48   27   29 1   
    49   29   56 1   
    50   29   57 1   
    51   30   31 1   
    52   30   58 1   
    53   31   32 1   
    54   31   34 1   
    55   31   59 1   
    56   32   33 1   
    57   32   38 1   
    58   34   35 1   
    59   34   60 1   
    60   34   61 1   
    61   35   36 1   
    62   35   37 1   
    63   37   62 1   
    64   37   63 1   
    65   38   64 1   
    66   38   65 1   
@<TRIPOS>SUBSTRUCTURE
     1 FYQ         1 TEMP              0 ****  ****    0 ROOT
