@<TRIPOS>MOLECULE
FYQ
   67    64     1     0     0
SMALL
bcc


@<TRIPOS>ATOM
      1 CAN         4.7060    0.4650    0.4110 c1        1 FYQ      0.001500
      2 CAP         6.0850    0.2400    0.5450 c1        1 FYQ     -0.259500
      3 CBH         6.9560    0.7970   -0.3500 c1        1 FYQ      0.340600
      4 CAQ         6.4730    1.5890   -1.3980 c1        1 FYQ     -0.133000
      5 CAO         5.1200    1.8080   -1.5280 c1        1 FYQ     -0.133000
      6 CBG         4.2330    1.2450   -0.6210 c1        1 FYQ     -0.301100
      7 OAZ         8.3070    0.5360   -0.2530 os        1 FYQ     -0.347000
      8 PBL         8.8760   -0.7340   -0.9900 p5        1 FYQ      1.318900
      9 OAK         7.9310   -1.8470   -0.8410 o         1 FYQ     -0.853500
     10 OAM        10.2510   -1.1230   -0.3710 o         1 FYQ     -0.853500
     11 OAL         9.0540   -0.4320   -2.4200 o         1 FYQ     -0.853500
     12 CAV         2.6850    1.6270   -0.6800 c3        1 FYQ      0.003700
     13 CBI         1.9020    0.4490   -1.1050 c3        1 FYQ     -0.118700
     14 CBE         0.3610    0.7730   -0.9990 c         1 FYQ      0.658100
     15 OAI        -0.1390    1.6370   -1.7160 o         1 FYQ     -0.658100
     16 CAU         2.2500    0.0820   -2.5500 c3        1 FYQ     -0.146400
     17 CBD         1.8600   -1.3960   -2.7980 c         1 FYQ      0.640100
     18 NAW         2.8330   -2.3360   -3.2990 n         1 FYQ     -0.481900
     19 CAA         2.4220   -3.3460   -4.2740 c3        1 FYQ      0.072300
     20 OAH         0.7090   -1.7660   -2.5830 o         1 FYQ     -0.784100
     21 NAX        -0.4440    0.0760   -0.0720 n         1 FYQ     -0.565900
     22 CBK        -1.7690    0.5370    0.2080 c3        1 FYQ      0.047700
     23 CBF        -2.2360   -0.0370    1.5390 c         1 FYQ      0.658100
     24 OAJ        -1.6320   -0.9990    2.0480 o         1 FYQ     -0.656100
     25 CAS        -2.6940    0.0840   -0.8780 c3        1 FYQ     -0.074400
     26 CAR        -3.6050    1.2630   -1.3130 c3        1 FYQ     -0.162400
     27 CBA        -4.7150    0.7330   -2.2770 c         1 FYQ      0.660100
     28 OAE        -4.6810   -0.4360   -2.6750 o         1 FYQ     -0.666100
     29 NAB        -5.8150    1.5830   -2.6410 n         1 FYQ     -0.659000
     30 N          -3.4160    0.5480    2.2290 n         1 FYQ     -0.564900
     31 CA         -3.9070   -0.0490    3.4470 c3        1 FYQ      0.053700
     32 C          -4.5070   -1.3660    3.1470 c         1 FYQ      0.640100
     33 O          -5.4410   -1.4550    2.3140 o         1 FYQ     -0.664100
     34 CB         -4.9680    0.8650    4.0680 c3        1 FYQ     -0.156400
     35 CG         -5.6030    0.1780    5.2210 c         1 FYQ      0.653100
     36 OD1        -4.8970   -0.4740    6.0250 o         1 FYQ     -0.626100
     37 ND2        -7.0300    0.3950    5.5110 n         1 FYQ     -0.660000
     38 NAD        -4.1200   -2.4790    3.8670 n         1 FYQ     -0.659000
     39 HAN         4.1070    0.1550    1.0840 ha        1 FYQ      0.016500
     40 HAP         6.4210   -0.2430    1.3080 ha        1 FYQ      0.058500
     41 HAQ         7.0960    1.9370   -2.0810 ha        1 FYQ      0.039500
     42 HAO         4.7860    2.4130   -2.2340 ha        1 FYQ      0.039500
     43 HAV         2.3760    1.9230    0.2390 hc        1 FYQ      0.025200
     44 HAVA        2.5560    2.3370   -1.3050 hc        1 FYQ      0.025200
     45 HBI         2.1290   -0.3620   -0.4790 hc        1 FYQ      0.084700
     46 HAU         3.2440    0.2070   -2.7040 hc        1 FYQ      0.083200
     47 HAUA        1.7560    0.6510   -3.1570 hc        1 FYQ      0.083200
     48 HAA         3.2340   -3.7710   -4.6810 h1        1 FYQ      0.046367
     49 HAAA        1.8710   -4.0470   -3.8170 h1        1 FYQ      0.046367
     50 HNAX       -0.0900   -0.6180    0.4100 hn        1 FYQ      0.352500
     51 HBK        -1.7700    1.5790    0.2580 h1        1 FYQ      0.074700
     52 HAS        -3.2470   -0.6450   -0.5490 hc        1 FYQ      0.069200
     53 HASA       -2.1540   -0.2330   -1.6660 hc        1 FYQ      0.069200
     54 HAR        -4.0430    1.6820   -0.4860 hc        1 FYQ      0.080700
     55 HARA       -3.0440    1.9640   -1.7890 hc        1 FYQ      0.080700
     56 HNAB       -5.8140    2.4660   -2.3940 hn        1 FYQ      0.325000
     57 HNAA       -6.5140    1.2430   -3.0470 hn        1 FYQ      0.325000
     58 HN         -3.7680    1.2870    1.9360 hn        1 FYQ      0.359500
     59 HA         -3.1580   -0.1640    4.0800 h1        1 FYQ      0.099700
     60 HB         -4.5150    1.7530    4.3960 hc        1 FYQ      0.091700
     61 HBA        -5.6740    1.0800    3.3760 hc        1 FYQ      0.091700
     62 HND2       -7.4140   -0.0400    6.1730 hn        1 FYQ      0.312000
     63 HNDA       -7.4950    1.0330    5.0590 hn        1 FYQ      0.312000
     64 HNAD       -4.4510   -3.2690    3.6630 hn        1 FYQ      0.322000
     65 HNAC       -3.4520   -2.4050    4.5290 hn        1 FYQ      0.322000
     66 H30         3.7400   -2.2250   -3.0960 hn        1 FYQ      0.407500
     67 H31         1.8930   -2.9250   -4.9720 h1        1 FYQ      0.046367
@<TRIPOS>BOND
     1    1    6 3   
     2    1   39 1   
     3    2    3 3   
     4    2   40 1   
     5    3    7 1   
     6    4    5 3   
     7    4   41 1   
     8    5   42 1   
     9    6   12 1   
    10    7    8 1   
    11    8    9 1   
    12    8   10 1   
    13    8   11 1   
    14   12   13 1   
    15   12   43 1   
    16   12   44 1   
    17   13   14 1   
    18   13   16 1   
    19   13   45 1   
    20   14   15 2   
    21   14   21 1   
    22   16   17 1   
    23   16   46 1   
    24   16   47 1   
    25   17   18 1   
    26   17   20 2   
    27   18   19 1   
    28   18   66 1   
    29   19   48 1   
    30   19   49 1   
    31   19   67 1   
    32   21   22 1   
    33   21   50 1   
    34   22   23 1   
    35   22   25 1   
    36   22   51 1   
    37   23   24 2   
    38   23   30 1   
    39   25   26 1   
    40   25   52 1   
    41   25   53 1   
    42   26   27 1   
    43   26   54 1   
    44   26   55 1   
    45   27   28 2   
    46   27   29 1   
    47   29   56 1   
    48   29   57 1   
    49   30   31 1   
    50   30   58 1   
    51   31   32 1   
    52   31   34 1   
    53   31   59 1   
    54   32   33 2   
    55   32   38 1   
    56   34   35 1   
    57   34   60 1   
    58   34   61 1   
    59   35   36 2   
    60   35   37 1   
    61   37   62 1   
    62   37   63 1   
    63   38   64 1   
    64   38   65 1   
@<TRIPOS>SUBSTRUCTURE
     1 FYQ         1 TEMP              0 ****  ****    0 ROOT
