@<TRIPOS>MOLECULE
FYU
   14    14     1     0     0
SMALL
bcc


@<TRIPOS>ATOM
      1 N1          0.0180    0.0020   -0.0400 ns        1 FYU     -0.464100
      2 N3         -0.1230   -0.0040    2.3690 ns        1 FYU     -0.588500
      3 C4          1.2860   -0.0080    2.4980 c         1 FYU      0.728700
      4 C5          2.0510   -0.0060    1.2380 cc        1 FYU     -0.371400
      5 C6          1.3850   -0.0010    0.0390 cd        1 FYU      0.103600
      6 O4          1.7580   -0.0130    3.6420 o         1 FYU     -0.562500
      7 C2         -0.7790    0.0010    1.1380 c         1 FYU      0.803500
      8 O2         -2.0220    0.0040    1.0340 o         1 FYU     -0.623500
      9 CM5         3.5170   -0.0090    1.2620 c         1 FYU      0.589100
     10 O3          4.2070   -0.0110    2.2780 o         1 FYU     -0.485100
     11 H1         -0.6900   -0.0050    3.1910 hn        1 FYU      0.357500
     12 H3          1.9240    0.0000   -0.9300 h4        1 FYU      0.166000
     13 H4          3.9820   -0.0090    0.2470 h4        1 FYU     -0.012800
     14 H5         -0.4590    0.0060   -0.9130 hn        1 FYU      0.359500
@<TRIPOS>BOND
     1    1    5 1   
     2    1    7 1   
     3    1   14 1   
     4    2    3 1   
     5    2    7 1   
     6    2   11 1   
     7    3    4 1   
     8    3    6 2   
     9    4    5 2   
    10    4    9 1   
    11    5   12 1   
    12    7    8 2   
    13    9   10 2   
    14    9   13 1   
@<TRIPOS>SUBSTRUCTURE
     1 FYU         1 TEMP              0 ****  ****    0 ROOT
