@<TRIPOS>MOLECULE
FYX
   27    21     1     0     0
SMALL
bcc


@<TRIPOS>ATOM
      1 CPO         3.0530   -1.5980   -0.4370 c1        1 FYX     -0.115500
      2 CPR         4.4350   -1.5490   -0.5290 c1        1 FYX      0.310800
      3 NPS         5.1440   -0.7250    0.2940 n1        1 FYX     -0.435800
      4 CPT         4.4950    0.0500    1.2060 c1        1 FYX     -0.045000
      5 CPQ         3.1130    0.0030    1.3000 c1        1 FYX     -0.045000
      6 CPP         2.4020   -0.8210    0.4770 c1        1 FYX      0.010000
      7 CPM         1.0180   -0.8210    0.5250 c1        1 FYX      0.447800
      8 NPJ         0.2040   -0.0200   -0.1830 ne        1 FYX     -0.568700
      9 NPN         0.2570   -1.5780    1.3280 nf        1 FYX     -0.391400
     10 NPL        -1.0280   -1.2460    1.1170 nf        1 FYX     -0.352700
     11 CPK        -1.0600   -0.2840    0.1840 ce        1 FYX      0.458200
     12 CPH        -2.2010    0.2920   -0.3540 cg        1 FYX      0.003800
     13 CPG        -2.6430    1.4950    0.1130 c1        1 FYX     -0.052500
     14 CPI        -2.8440   -0.3140   -1.3940 c1        1 FYX     -0.079500
     15 CPF        -3.9470    0.2940   -1.9750 c1        1 FYX      0.310800
     16 NPE        -4.3880    1.4960   -1.5080 n1        1 FYX     -0.435800
     17 CPD        -3.7460    2.1020   -0.4690 cg        1 FYX      0.043000
     18 CPB        -4.2220    3.4470    0.0330 cg        1 FYX      0.240800
     19 NPC        -4.5810    4.4610    0.4110 n1        1 FYX     -0.342800
     20 HPO         2.5450   -2.1880   -1.0260 ha        1 FYX      0.083500
     21 HPR         4.9010   -2.1040   -1.1820 ha        1 FYX      0.111500
     22 HPT         5.0040    0.6400    1.7950 ha        1 FYX      0.112000
     23 HPQ         2.6490    0.5590    1.9540 ha        1 FYX      0.112000
     24 HPN         0.5590   -2.2080    1.9140 DU        1 FYX      0.285000
     25 HPG        -2.1840    1.9290    0.8570 ha        1 FYX      0.117500
     26 HPI        -2.5290   -1.1750   -1.7290 ha        1 FYX      0.106500
     27 HPF        -4.4070   -0.1390   -2.7190 ha        1 FYX      0.111500
@<TRIPOS>BOND
     1    1    6 3   
     2    1   20 1   
     3    2    3 3   
     4    2   21 1   
     5    4    5 3   
     6    4   22 1   
     7    5   23 1   
     8    7    8 2   
     9    7    9 2   
    10    8   11 1   
    11    9   10 1   
    12   10   11 2   
    13   11   12 1   
    14   12   14 3   
    15   13   17 3   
    16   13   25 1   
    17   14   26 1   
    18   15   16 3   
    19   15   27 1   
    20   17   18 1   
    21   18   19 3   
@<TRIPOS>SUBSTRUCTURE
     1 FYX         1 TEMP              0 ****  ****    0 ROOT
