@<TRIPOS>MOLECULE
FYX
   27    29     1     0     0
SMALL
bcc


@<TRIPOS>ATOM
      1 CPO        -1.0550    0.6270    3.6140 ca        1 FYX     -0.219800
      2 CPR        -1.2700    0.6580    5.0050 ca        1 FYX      0.396200
      3 NPS        -0.4150    0.1380    5.9050 nb        1 FYX     -0.648000
      4 CPT         0.7030   -0.4450    5.4300 ca        1 FYX      0.396200
      5 CPQ         1.0150   -0.5320    4.0610 ca        1 FYX     -0.219800
      6 CPP         0.1160    0.0210    3.1380 ca        1 FYX     -0.097500
      7 CPM         0.3770   -0.0330    1.7040 cc        1 FYX      0.465000
      8 NPJ        -0.5310   -0.0180    0.6930 nd        1 FYX     -0.656000
      9 NPN         1.6730   -0.1040    1.1370 na        1 FYX     -0.138400
     10 NPL         1.6070   -0.1330   -0.1860 nc        1 FYX     -0.495800
     11 CPK         0.2590   -0.0830   -0.4770 cd        1 FYX      0.554500
     12 CPH        -0.3010   -0.0970   -1.8260 ca        1 FYX     -0.073500
     13 CPG         0.5240    0.1130   -2.9430 ca        1 FYX     -0.183300
     14 CPI        -1.6680   -0.3190   -2.0320 ca        1 FYX     -0.194300
     15 CPF        -2.1540   -0.3210   -3.3550 ca        1 FYX      0.387200
     16 NPE        -1.3890   -0.1240   -4.4400 nb        1 FYX     -0.623000
     17 CPD        -0.0620    0.0890   -4.2260 ca        1 FYX      0.479300
     18 CPB         0.7860    0.3030   -5.3600 cg        1 FYX      0.133800
     19 NPC         1.4840    0.4780   -6.2730 n1        1 FYX     -0.342800
     20 HPO        -1.7900    1.0660    2.9250 ha        1 FYX      0.155000
     21 HPR        -2.1810    1.1260    5.4200 h4        1 FYX      0.031100
     22 HPT         1.3850   -0.8690    6.1890 h4        1 FYX      0.031100
     23 HPQ         1.9360   -1.0380    3.7440 ha        1 FYX      0.155000
     24 HPN         2.5480   -0.1140    1.6090 hn        1 FYX      0.334700
     25 HPG         1.6040    0.2920   -2.8350 ha        1 FYX      0.170000
     26 HPI        -2.3580   -0.4880   -1.1930 ha        1 FYX      0.169000
     27 HPF        -3.2280   -0.4920   -3.5570 h4        1 FYX      0.034100
@<TRIPOS>BOND
     1    1    2 ar  
     2    1    6 ar  
     3    1   20 1   
     4    2    3 ar  
     5    2   21 1   
     6    3    4 ar  
     7    4    5 ar  
     8    4   22 1   
     9    5    6 ar  
    10    5   23 1   
    11    6    7 1   
    12    7    8 2   
    13    7    9 1   
    14    8   11 1   
    15    9   10 1   
    16    9   24 1   
    17   10   11 2   
    18   11   12 1   
    19   12   13 ar  
    20   12   14 ar  
    21   13   17 ar  
    22   13   25 1   
    23   14   15 ar  
    24   14   26 1   
    25   15   16 ar  
    26   15   27 1   
    27   16   17 ar  
    28   17   18 1   
    29   18   19 3   
@<TRIPOS>SUBSTRUCTURE
     1 FYX         1 TEMP              0 ****  ****    0 ROOT
