@<TRIPOS>MOLECULE
FYX
   27    29     1     0     0
SMALL
bcc


@<TRIPOS>ATOM
      1 CPO         0.0070   -0.0330   -0.0180 ca        1 FYX     -0.219800
      2 CPR         1.4080   -0.1650    0.0010 ca        1 FYX      0.396200
      3 NPS         2.1350   -0.2530    1.1310 nb        1 FYX     -0.648000
      4 CPT         1.4670   -0.2050    2.3000 ca        1 FYX      0.396200
      5 CPQ         0.0710   -0.0730    2.3950 ca        1 FYX     -0.219800
      6 CPP        -0.6710    0.0110    1.2080 ca        1 FYX     -0.097500
      7 CPM        -2.1230    0.1480    1.2330 cc        1 FYX      0.465000
      8 NPJ        -2.9200    0.7170    0.2900 nd        1 FYX     -0.656000
      9 NPN        -2.9460   -0.3180    2.2880 na        1 FYX     -0.138400
     10 NPL        -4.2210   -0.0640    2.0370 nc        1 FYX     -0.495800
     11 CPK        -4.2250    0.5740    0.8140 cd        1 FYX      0.554500
     12 CPH        -5.4230    1.0530    0.1300 ca        1 FYX     -0.073500
     13 CPG        -6.6980    0.6470    0.5560 ca        1 FYX     -0.183300
     14 CPI        -5.3250    1.9240   -0.9610 ca        1 FYX     -0.194300
     15 CPF        -6.5140    2.3540   -1.5830 ca        1 FYX      0.387200
     16 NPE        -7.7450    1.9830   -1.1980 nb        1 FYX     -0.623000
     17 CPD        -7.8260    1.1370   -0.1350 ca        1 FYX      0.479300
     18 CPB        -9.1230    0.7180    0.3060 cg        1 FYX      0.133800
     19 NPC       -10.1700    0.3720    0.6730 n1        1 FYX     -0.342800
     20 HPO        -0.5350    0.0380   -0.9720 ha        1 FYX      0.155000
     21 HPR         1.9800   -0.2030   -0.9440 h4        1 FYX      0.031100
     22 HPT         2.0890   -0.2740    3.2120 h4        1 FYX      0.031100
     23 HPQ        -0.4060   -0.0220    3.3830 ha        1 FYX      0.155000
     24 HPN        -2.6680   -0.7940    3.1150 hn        1 FYX      0.334700
     25 HPG        -6.8290   -0.0370    1.4080 ha        1 FYX      0.170000
     26 HPI        -4.3520    2.2730   -1.3360 ha        1 FYX      0.169000
     27 HPF        -6.4770    3.0420   -2.4490 h4        1 FYX      0.034100
@<TRIPOS>BOND
     1    1    2 ar  
     2    1    6 ar  
     3    1   20 1   
     4    2    3 ar  
     5    2   21 1   
     6    3    4 ar  
     7    4    5 ar  
     8    4   22 1   
     9    5    6 ar  
    10    5   23 1   
    11    6    7 1   
    12    7    8 2   
    13    7    9 1   
    14    8   11 1   
    15    9   10 1   
    16    9   24 1   
    17   10   11 2   
    18   11   12 1   
    19   12   13 ar  
    20   12   14 ar  
    21   13   17 ar  
    22   13   25 1   
    23   14   15 ar  
    24   14   26 1   
    25   15   16 ar  
    26   15   27 1   
    27   16   17 ar  
    28   17   18 1   
    29   18   19 3   
@<TRIPOS>SUBSTRUCTURE
     1 FYX         1 TEMP              0 ****  ****    0 ROOT
