@<TRIPOS>MOLECULE
FYX
   27    29     1     0     0
SMALL
bcc


@<TRIPOS>ATOM
      1 CPO         0.0120    0.1110   -0.0470 ca        1 FYX     -0.219800
      2 CPR         1.4150   -0.0010   -0.0280 ca        1 FYX      0.396200
      3 NPS         2.1350   -0.1870    1.0950 nb        1 FYX     -0.648000
      4 CPT         1.4570   -0.2620    2.2570 ca        1 FYX      0.396200
      5 CPQ         0.0580   -0.1610    2.3510 ca        1 FYX     -0.219800
      6 CPP        -0.6760    0.0260    1.1710 ca        1 FYX     -0.097500
      7 CPM        -2.1300    0.1380    1.1950 cc        1 FYX      0.465000
      8 NPJ        -2.9290    0.7820    0.3040 nd        1 FYX     -0.656000
      9 NPN        -2.9530   -0.4380    2.1930 na        1 FYX     -0.138400
     10 NPL        -4.2310   -0.1810    1.9560 nc        1 FYX     -0.495800
     11 CPK        -4.2350    0.5710    0.7990 cd        1 FYX      0.554500
     12 CPH        -5.4350    1.0950    0.1530 ca        1 FYX     -0.073500
     13 CPG        -6.7080    0.6370    0.5330 ca        1 FYX     -0.183300
     14 CPI        -5.3420    2.0610   -0.8560 ca        1 FYX     -0.194300
     15 CPF        -6.5330    2.5300   -1.4450 ca        1 FYX      0.387200
     16 NPE        -7.7610    2.1120   -1.1020 nb        1 FYX     -0.623000
     17 CPD        -7.8380    1.1730   -0.1190 ca        1 FYX      0.479300
     18 CPB        -9.1320    0.7020    0.2750 cg        1 FYX      0.133800
     19 NPC       -10.1760    0.3120    0.6030 n1        1 FYX     -0.342800
     20 HPO        -0.5230    0.2660   -0.9950 ha        1 FYX      0.155000
     21 HPR         1.9950    0.0610   -0.9670 h4        1 FYX      0.031100
     22 HPT         2.0720   -0.4090    3.1630 h4        1 FYX      0.031100
     23 HPQ        -0.4270   -0.2130    3.3340 ha        1 FYX      0.155000
     24 HPN        -2.6740   -0.9870    2.9740 hn        1 FYX      0.334700
     25 HPG        -6.8350   -0.1210    1.3200 ha        1 FYX      0.170000
     26 HPI        -4.3720    2.4530   -1.1920 ha        1 FYX      0.169000
     27 HPF        -6.5000    3.2920   -2.2460 h4        1 FYX      0.034100
@<TRIPOS>BOND
     1    1    2 ar  
     2    1    6 ar  
     3    1   20 1   
     4    2    3 ar  
     5    2   21 1   
     6    3    4 ar  
     7    4    5 ar  
     8    4   22 1   
     9    5    6 ar  
    10    5   23 1   
    11    6    7 1   
    12    7    8 2   
    13    7    9 1   
    14    8   11 1   
    15    9   10 1   
    16    9   24 1   
    17   10   11 2   
    18   11   12 1   
    19   12   13 ar  
    20   12   14 ar  
    21   13   17 ar  
    22   13   25 1   
    23   14   15 ar  
    24   14   26 1   
    25   15   16 ar  
    26   15   27 1   
    27   16   17 ar  
    28   17   18 1   
    29   18   19 3   
@<TRIPOS>SUBSTRUCTURE
     1 FYX         1 TEMP              0 ****  ****    0 ROOT
