@<TRIPOS>MOLECULE
FYZ
   49    51     1     0     0
SMALL
bcc


@<TRIPOS>ATOM
      1 O2          2.8700    0.7630    0.1480 oh        1 FYZ     -0.601800
      2 C2          3.2400   -0.2320    1.0890 c3        1 FYZ      0.095100
      3 C3          2.0560   -0.3890    2.0520 c3        1 FYZ      0.116100
      4 O3          1.6180    0.8540    2.5570 oh        1 FYZ     -0.596800
      5 C4          0.8940   -1.1170    1.3550 c3        1 FYZ      0.086100
      6 O4         -0.1690   -1.3600    2.2610 oh        1 FYZ     -0.596800
      7 C5          1.3930   -2.4750    0.8380 c3        1 FYZ      0.145100
      8 O5          2.4360   -2.2550   -0.1190 os        1 FYZ     -0.427600
      9 C6          0.2880   -3.2270    0.0970 c3        1 FYZ      0.134400
     10 O6          0.6190   -4.6060    0.1530 oh        1 FYZ     -0.600800
     11 C1          3.5590   -1.5580    0.3680 c3        1 FYZ      0.297900
     12 O1          4.1860   -2.4010    1.3180 os        1 FYZ     -0.437600
     13 C7          4.7880   -3.5700    0.7600 c3        1 FYZ      0.211500
     14 C8          5.9740   -3.2770   -0.0020 c1        1 FYZ     -0.160100
     15 C9          6.9690   -3.0640   -0.6350 cg        1 FYZ     -0.097000
     16 C10         8.1360   -2.8160   -1.3810 ca        1 FYZ      0.016000
     17 C11         9.2590   -2.2350   -0.7700 ca        1 FYZ     -0.104000
     18 C12        10.4100   -1.9890   -1.5110 ca        1 FYZ     -0.125000
     19 C13        10.4680   -2.3190   -2.8720 cp        1 FYZ     -0.023000
     20 C14         9.3470   -2.9020   -3.4800 ca        1 FYZ     -0.125000
     21 C15         8.1910   -3.1480   -2.7450 ca        1 FYZ     -0.104000
     22 C16        11.6800   -2.0610   -3.6470 cp        1 FYZ     -0.044000
     23 C21        12.1320   -2.9950   -4.5910 ca        1 FYZ     -0.116500
     24 C20        13.2890   -2.7470   -5.3270 ca        1 FYZ     -0.130500
     25 C19        14.0050   -1.5660   -5.1330 ca        1 FYZ     -0.124000
     26 C18        13.5600   -0.6320   -4.1970 ca        1 FYZ     -0.130500
     27 C17        12.4060   -0.8760   -3.4560 ca        1 FYZ     -0.116500
     28 H2          3.6310    0.9100   -0.4260 ho        1 FYZ      0.416000
     29 HA          4.1510    0.1000    1.6620 h1        1 FYZ      0.072700
     30 H3          2.3900   -0.9720    2.9580 h1        1 FYZ      0.103700
     31 H1          4.2040   -1.3910   -0.5420 h2        1 FYZ      0.084700
     32 HB          1.4740    1.4420    1.8030 ho        1 FYZ      0.421000
     33 H4          0.5180   -0.4900    0.4990 h1        1 FYZ      0.059700
     34 HC         -0.2560   -0.5640    2.8040 ho        1 FYZ      0.421000
     35 H5          1.7900   -3.0970    1.6870 h1        1 FYZ      0.083700
     36 H61C       -0.6900   -3.0450    0.6180 h1        1 FYZ      0.047200
     37 H62C        0.2290   -2.8830   -0.9690 h1        1 FYZ      0.047200
     38 H6         -0.0550   -5.0690   -0.3570 ho        1 FYZ      0.402000
     39 H71C        4.0360   -4.1140    0.1210 h1        1 FYZ      0.085200
     40 H72C        5.0430   -4.1870    1.6690 h1        1 FYZ      0.085200
     41 H11         9.2260   -1.9770    0.2990 ha        1 FYZ      0.141000
     42 H15         7.3160   -3.6030   -3.2320 ha        1 FYZ      0.141000
     43 H12        11.2880   -1.5390   -1.0210 ha        1 FYZ      0.139000
     44 H14         9.3790   -3.1610   -4.5490 ha        1 FYZ      0.139000
     45 H21        11.5740   -3.9310   -4.7430 ha        1 FYZ      0.135000
     46 H17        12.0560   -0.1340   -2.7230 ha        1 FYZ      0.135000
     47 H20        13.6380   -3.4870   -6.0620 ha        1 FYZ      0.133000
     48 H19        14.9170   -1.3720   -5.7150 ha        1 FYZ      0.133000
     49 H18        14.1210    0.3020   -4.0430 ha        1 FYZ      0.133000
@<TRIPOS>BOND
     1    1    2 1   
     2    1   28 1   
     3    2    3 1   
     4    2   11 1   
     5    2   29 1   
     6    3    4 1   
     7    3    5 1   
     8    3   30 1   
     9    4   32 1   
    10    5    6 1   
    11    5    7 1   
    12    5   33 1   
    13    6   34 1   
    14    7    8 1   
    15    7    9 1   
    16    7   35 1   
    17    8   11 1   
    18    9   10 1   
    19    9   36 1   
    20    9   37 1   
    21   10   38 1   
    22   11   12 1   
    23   11   31 1   
    24   12   13 1   
    25   13   14 1   
    26   13   39 1   
    27   13   40 1   
    28   14   15 3   
    29   15   16 1   
    30   16   17 ar  
    31   16   21 ar  
    32   17   18 ar  
    33   17   41 1   
    34   18   19 ar  
    35   18   43 1   
    36   19   20 ar  
    37   19   22 1   
    38   20   21 ar  
    39   20   44 1   
    40   21   42 1   
    41   22   23 ar  
    42   22   27 ar  
    43   23   24 ar  
    44   23   45 1   
    45   24   25 ar  
    46   24   47 1   
    47   25   26 ar  
    48   25   48 1   
    49   26   27 ar  
    50   26   49 1   
    51   27   46 1   
@<TRIPOS>SUBSTRUCTURE
     1 FYZ         1 TEMP              0 ****  ****    0 ROOT
