@<TRIPOS>MOLECULE
FYZ
   49    51     1     0     0
SMALL
bcc


@<TRIPOS>ATOM
      1 O2          3.6010    1.5890    1.7970 oh        1 FYZ     -0.601800
      2 C2          3.5490    1.5170    0.3810 c3        1 FYZ      0.095100
      3 C3          4.9990    1.5700   -0.1160 c3        1 FYZ      0.116100
      4 O3          5.7140    2.6460    0.4550 oh        1 FYZ     -0.596800
      5 C4          5.7160    0.2410    0.1810 c3        1 FYZ      0.086100
      6 O4          7.0250    0.2380   -0.3620 oh        1 FYZ     -0.596800
      7 C5          4.9310   -0.9060   -0.4720 c3        1 FYZ      0.145100
      8 O5          3.6170   -0.9560    0.0960 os        1 FYZ     -0.427600
      9 C6          5.5750   -2.2600   -0.1740 c3        1 FYZ      0.134400
     10 O6          5.1700   -3.1450   -1.2070 oh        1 FYZ     -0.600800
     11 C1          2.8500    0.2150   -0.0630 c3        1 FYZ      0.297900
     12 O1          2.5800    0.3450   -1.4480 os        1 FYZ     -0.437600
     13 C7          1.7030   -0.6520   -1.9720 c3        1 FYZ      0.211500
     14 C8          0.3430   -0.4870   -1.5290 c1        1 FYZ     -0.160100
     15 C9         -0.7980   -0.3700   -1.1820 cg        1 FYZ     -0.097000
     16 C10        -2.1380   -0.2360   -0.7750 ca        1 FYZ      0.016000
     17 C11        -2.7640   -1.2580   -0.0430 ca        1 FYZ     -0.104000
     18 C12        -4.0900   -1.1230    0.3570 ca        1 FYZ     -0.125000
     19 C13        -4.8160    0.0340    0.0400 cp        1 FYZ     -0.023000
     20 C14        -4.1890    1.0540   -0.6890 ca        1 FYZ     -0.125000
     21 C15        -2.8650    0.9230   -1.0950 ca        1 FYZ     -0.104000
     22 C16        -6.2080    0.1740    0.4640 cp        1 FYZ     -0.044000
     23 C21        -6.6860    1.4050    0.9380 ca        1 FYZ     -0.116500
     24 C20        -8.0130    1.5350    1.3420 ca        1 FYZ     -0.130500
     25 C19        -8.8770    0.4430    1.2760 ca        1 FYZ     -0.124000
     26 C18        -8.4100   -0.7840    0.8040 ca        1 FYZ     -0.130500
     27 C17        -7.0830   -0.9200    0.4020 ca        1 FYZ     -0.116500
     28 H2          2.6910    1.6140    2.1150 ho        1 FYZ      0.416000
     29 HA          2.9770    2.3950   -0.0290 h1        1 FYZ      0.072700
     30 H3          5.0040    1.7730   -1.2250 h1        1 FYZ      0.103700
     31 H1          1.9140    0.0230    0.5350 h2        1 FYZ      0.084700
     32 HB          5.5970    2.5980    1.4140 ho        1 FYZ      0.421000
     33 H4          5.7740    0.0870    1.2950 h1        1 FYZ      0.059700
     34 HC          7.3940    1.1180   -0.1990 ho        1 FYZ      0.421000
     35 H5          4.8510   -0.7450   -1.5830 h1        1 FYZ      0.083700
     36 H61C        6.6920   -2.1420   -0.1840 h1        1 FYZ      0.047200
     37 H62C        5.2340   -2.6430    0.8240 h1        1 FYZ      0.047200
     38 H6          5.5400   -4.0070   -0.9860 ho        1 FYZ      0.402000
     39 H71C        1.7780   -0.4990   -3.0870 h1        1 FYZ      0.085200
     40 H72C        2.0850   -1.6750   -1.6950 h1        1 FYZ      0.085200
     41 H11        -2.2030   -2.1690    0.2120 ha        1 FYZ      0.141000
     42 H15        -2.3840    1.7270   -1.6720 ha        1 FYZ      0.141000
     43 H12        -4.5700   -1.9270    0.9340 ha        1 FYZ      0.139000
     44 H14        -4.7520    1.9630   -0.9510 ha        1 FYZ      0.139000
     45 H21        -6.0060    2.2680    0.9970 ha        1 FYZ      0.135000
     46 H17        -6.7200   -1.8880    0.0240 ha        1 FYZ      0.135000
     47 H20        -8.3770    2.5030    1.7160 ha        1 FYZ      0.133000
     48 H19        -9.9240    0.5480    1.5950 ha        1 FYZ      0.133000
     49 H18        -9.0890   -1.6470    0.7480 ha        1 FYZ      0.133000
@<TRIPOS>BOND
     1    1    2 1   
     2    1   28 1   
     3    2    3 1   
     4    2   11 1   
     5    2   29 1   
     6    3    4 1   
     7    3    5 1   
     8    3   30 1   
     9    4   32 1   
    10    5    6 1   
    11    5    7 1   
    12    5   33 1   
    13    6   34 1   
    14    7    8 1   
    15    7    9 1   
    16    7   35 1   
    17    8   11 1   
    18    9   10 1   
    19    9   36 1   
    20    9   37 1   
    21   10   38 1   
    22   11   12 1   
    23   11   31 1   
    24   12   13 1   
    25   13   14 1   
    26   13   39 1   
    27   13   40 1   
    28   14   15 3   
    29   15   16 1   
    30   16   17 ar  
    31   16   21 ar  
    32   17   18 ar  
    33   17   41 1   
    34   18   19 ar  
    35   18   43 1   
    36   19   20 ar  
    37   19   22 1   
    38   20   21 ar  
    39   20   44 1   
    40   21   42 1   
    41   22   23 ar  
    42   22   27 ar  
    43   23   24 ar  
    44   23   45 1   
    45   24   25 ar  
    46   24   47 1   
    47   25   26 ar  
    48   25   48 1   
    49   26   27 ar  
    50   26   49 1   
    51   27   46 1   
@<TRIPOS>SUBSTRUCTURE
     1 FYZ         1 TEMP              0 ****  ****    0 ROOT
