@<TRIPOS>MOLECULE
FYZ
   49    46     1     0     0
SMALL
bcc


@<TRIPOS>ATOM
      1 O2         -2.9860   -2.1560    1.2380 oh        1 FYZ     -0.332000
      2 C2         -2.6520   -1.7160    2.5280 c3        1 FYZ     -0.027000
      3 C3         -3.5700   -2.3630    3.5020 c3        1 FYZ      0.006000
      4 O3         -3.5010   -3.8460    3.3130 oh        1 FYZ     -0.332000
      5 C4         -3.2600   -2.0630    4.8590 c3        1 FYZ      0.004000
      6 O4         -3.5710   -0.6120    5.1100 oh        1 FYZ     -0.314000
      7 C5         -1.8770   -2.3020    5.2220 c3        1 FYZ      0.007000
      8 O5         -0.8980   -1.6610    4.3070 os        1 FYZ     -0.286000
      9 C6         -1.6250   -3.8130    5.2220 c3        1 FYZ     -0.046000
     10 O6         -0.3240   -4.0640    5.6270 oh        1 FYZ     -0.322000
     11 C1         -1.0720   -2.0260    2.7920 c3        1 FYZ      0.110000
     12 O1         -0.3700   -1.3260    2.0920 os        1 FYZ     -0.272000
     13 C7          0.3630   -2.0440    1.1110 c3        1 FYZ      0.089000
     14 C8          0.7660   -1.1130    0.0030 c1        1 FYZ     -0.188000
     15 C9          1.0790   -0.3860   -0.8670 c1        1 FYZ     -0.097000
     16 C10         1.4810    0.5500   -1.9910 c1        1 FYZ      0.022000
     17 C11         2.8160    0.6360   -2.3810 c2        1 FYZ     -0.106000
     18 C12         3.2040    1.5720   -3.3350 c1        1 FYZ     -0.123000
     19 C13         2.2540    2.4260   -3.9000 c1        1 FYZ     -0.025000
     20 C14         0.9330    2.3400   -3.5140 c1        1 FYZ     -0.123000
     21 C15         0.5420    1.3960   -2.5520 c1        1 FYZ     -0.106000
     22 C16         2.6930    3.5180   -4.8740 c2        1 FYZ     -0.043000
     23 C21         2.9690    4.8120   -4.4000 c2        1 FYZ     -0.117000
     24 C20         3.2840    5.8290   -5.2940 c1        1 FYZ     -0.130000
     25 C19         3.3270    5.5680   -6.6500 c1        1 FYZ     -0.127500
     26 C18         3.0520    4.2790   -7.1240 c1        1 FYZ     -0.127500
     27 C17         2.7350    3.2570   -6.2260 c1        1 FYZ     -0.117000
     28 H2         -3.5630   -1.5650    0.8560 ho        1 FYZ      0.227000
     29 HA         -2.7860   -0.7570    2.5700 h1        1 FYZ      0.107000
     30 H3         -4.4930   -2.0620    3.3140 h1        1 FYZ      0.107000
     31 H1         -0.8790   -2.9600    2.6430 h2        1 FYZ      0.110000
     32 HB         -4.3260   -4.1590    3.0460 ho        1 FYZ      0.228000
     33 H4         -3.8280   -2.6070    5.4320 h1        1 FYZ      0.141000
     34 HC         -4.0760   -0.5410    5.8140 ho        1 FYZ      0.211000
     35 H5         -1.7230   -1.9460    6.1660 h1        1 FYZ      0.146000
     36 H61C       -1.7550   -4.1570    4.3390 h1        1 FYZ      0.082500
     37 H62C       -2.2680   -4.2610    5.8560 h1        1 FYZ      0.082500
     38 H6         -0.2710   -4.8650    5.9390 ho        1 FYZ      0.202000
     39 H71C        1.1770   -2.4390    1.5270 h1        1 FYZ      0.124500
     40 H72C       -0.2160   -2.7850    0.7340 h1        1 FYZ      0.124500
     41 H11         3.5110    0.0100   -1.9670 ha        1 FYZ      0.141000
     42 H15        -0.3500    1.3380   -2.2910 ha        1 FYZ      0.140000
     43 H12         4.1810    1.6350   -3.6200 ha        1 FYZ      0.139000
     44 H14         0.2790    2.9280   -3.9030 ha        1 FYZ      0.139000
     45 H21         2.9380    5.0000   -3.4310 ha        1 FYZ      0.135000
     46 H17         2.5430    2.3580   -6.5560 ha        1 FYZ      0.135000
     47 H20         3.4800    6.7480   -4.9550 ha        1 FYZ      0.133000
     48 H19         3.5510    6.2900   -7.2850 ha        1 FYZ      0.133000
     49 H18         3.0810    4.1020   -8.0470 ha        1 FYZ      0.133000
@<TRIPOS>BOND
     1    1    2 1   
     2    1   28 1   
     3    2    3 1   
     4    2   11 1   
     5    2   29 1   
     6    3    4 1   
     7    3    5 1   
     8    3   30 1   
     9    4   32 1   
    10    5    6 1   
    11    5    7 1   
    12    5   33 1   
    13    6   34 1   
    14    7    8 1   
    15    7    9 1   
    16    7   35 1   
    17    8   11 1   
    18    9   10 1   
    19    9   36 1   
    20    9   37 1   
    21   10   38 1   
    22   11   12 1   
    23   11   31 1   
    24   12   13 1   
    25   13   14 1   
    26   13   39 1   
    27   13   40 1   
    28   14   15 1   
    29   16   17 1   
    30   16   21 1   
    31   17   18 1   
    32   17   41 1   
    33   18   43 1   
    34   19   20 1   
    35   19   22 1   
    36   20   44 1   
    37   21   42 1   
    38   22   23 1   
    39   22   27 1   
    40   23   24 1   
    41   23   45 1   
    42   24   47 1   
    43   25   26 1   
    44   25   48 1   
    45   26   49 1   
    46   27   46 1   
@<TRIPOS>SUBSTRUCTURE
     1 FYZ         1 TEMP              0 ****  ****    0 ROOT
