@<TRIPOS>MOLECULE
FYZ
   49    51     1     0     0
SMALL
bcc


@<TRIPOS>ATOM
      1 O2          0.0300   -0.1490   -0.5260 oh        1 FYZ     -0.598800
      2 C2          1.4150   -0.0840   -0.2340 c3        1 FYZ      0.136100
      3 C3          1.6880    0.1300    1.2610 c3        1 FYZ      0.117100
      4 O3          0.8810    1.2220    1.6670 oh        1 FYZ     -0.611800
      5 C4          1.3300   -1.1380    2.0550 c3        1 FYZ      0.080100
      6 O4          1.6680   -0.8550    3.4040 oh        1 FYZ     -0.601800
      7 C5          2.1360   -2.3170    1.5000 c3        1 FYZ      0.072100
      8 O5          1.8070   -2.5250    0.1220 os        1 FYZ     -0.443600
      9 C6          1.7800   -3.6330    2.1980 c3        1 FYZ      0.135400
     10 O6          2.5190   -4.7120    1.6700 oh        1 FYZ     -0.591800
     11 C1          2.0120   -1.4170   -0.7280 c3        1 FYZ      0.334900
     12 O1          3.4130   -1.2280   -0.8090 os        1 FYZ     -0.442600
     13 C7          4.0780   -2.2740   -1.5360 c3        1 FYZ      0.222500
     14 C8          5.4860   -1.9890   -1.5460 c1        1 FYZ     -0.128100
     15 C9          6.6630   -1.7680   -1.5640 cg        1 FYZ     -0.083000
     16 C10         8.0470   -1.5190   -1.5930 ca        1 FYZ      0.020000
     17 C11         8.9590   -2.5790   -1.7240 ca        1 FYZ     -0.105000
     18 C12        10.3260   -2.3270   -1.7510 ca        1 FYZ     -0.123500
     19 C13        10.8130   -1.0160   -1.6510 cp        1 FYZ     -0.025000
     20 C14         9.9010    0.0410   -1.5210 ca        1 FYZ     -0.123500
     21 C15         8.5320   -0.2040   -1.4910 ca        1 FYZ     -0.105000
     22 C16        12.2510   -0.7550   -1.6810 cp        1 FYZ     -0.042000
     23 C21        12.7580    0.3450   -2.3870 ca        1 FYZ     -0.117000
     24 C20        14.1300    0.5910   -2.4160 ca        1 FYZ     -0.131000
     25 C19        15.0080   -0.2550   -1.7380 ca        1 FYZ     -0.125000
     26 C18        14.5110   -1.3500   -1.0320 ca        1 FYZ     -0.131000
     27 C17        13.1410   -1.6020   -1.0040 ca        1 FYZ     -0.117000
     28 H2         -0.3840    0.6000   -0.0740 ho        1 FYZ      0.431000
     29 HA          1.8810    0.7620   -0.8140 h1        1 FYZ      0.073700
     30 H3          2.7750    0.3750    1.4150 h1        1 FYZ      0.075700
     31 H1          1.5500   -1.7280   -1.7080 h2        1 FYZ      0.098700
     32 HB          0.9790    1.2960    2.6260 ho        1 FYZ      0.431000
     33 H4          0.2270   -1.3420    1.9630 h1        1 FYZ      0.067700
     34 HC          1.3810   -1.6100    3.9310 ho        1 FYZ      0.411000
     35 H5          3.2390   -2.1110    1.5860 h1        1 FYZ      0.082700
     36 H61C        2.0740   -3.5800    3.2800 h1        1 FYZ      0.051200
     37 H62C        0.6790   -3.8320    2.1030 h1        1 FYZ      0.051200
     38 H6          2.3450   -4.7380    0.7200 ho        1 FYZ      0.415000
     39 H71C        3.6740   -2.3030   -2.5870 h1        1 FYZ      0.056200
     40 H72C        3.8740   -3.2570   -1.0250 h1        1 FYZ      0.056200
     41 H11         8.5870   -3.6110   -1.8060 ha        1 FYZ      0.141500
     42 H15         7.8240    0.6320   -1.3840 ha        1 FYZ      0.141500
     43 H12        11.0330   -3.1640   -1.8600 ha        1 FYZ      0.139000
     44 H14        10.2720    1.0730   -1.4330 ha        1 FYZ      0.139000
     45 H21        12.0690    1.0120   -2.9270 ha        1 FYZ      0.135000
     46 H17        12.7520   -2.4640   -0.4410 ha        1 FYZ      0.135000
     47 H20        14.5180    1.4540   -2.9750 ha        1 FYZ      0.133000
     48 H19        16.0900   -0.0580   -1.7610 ha        1 FYZ      0.132000
     49 H18        15.2010   -2.0170   -0.4950 ha        1 FYZ      0.133000
@<TRIPOS>BOND
     1    1    2 1   
     2    1   28 1   
     3    2    3 1   
     4    2   11 1   
     5    2   29 1   
     6    3    4 1   
     7    3    5 1   
     8    3   30 1   
     9    4   32 1   
    10    5    6 1   
    11    5    7 1   
    12    5   33 1   
    13    6   34 1   
    14    7    8 1   
    15    7    9 1   
    16    7   35 1   
    17    8   11 1   
    18    9   10 1   
    19    9   36 1   
    20    9   37 1   
    21   10   38 1   
    22   11   12 1   
    23   11   31 1   
    24   12   13 1   
    25   13   14 1   
    26   13   39 1   
    27   13   40 1   
    28   14   15 3   
    29   15   16 1   
    30   16   17 ar  
    31   16   21 ar  
    32   17   18 ar  
    33   17   41 1   
    34   18   19 ar  
    35   18   43 1   
    36   19   20 ar  
    37   19   22 1   
    38   20   21 ar  
    39   20   44 1   
    40   21   42 1   
    41   22   23 ar  
    42   22   27 ar  
    43   23   24 ar  
    44   23   45 1   
    45   24   25 ar  
    46   24   47 1   
    47   25   26 ar  
    48   25   48 1   
    49   26   27 ar  
    50   26   49 1   
    51   27   46 1   
@<TRIPOS>SUBSTRUCTURE
     1 FYZ         1 TEMP              0 ****  ****    0 ROOT
