@<TRIPOS>MOLECULE
FZ1
   53    57     1     0     0
SMALL
bcc


@<TRIPOS>ATOM
      1 C52        -0.0900    0.1010   -0.2130 c3        1 FZ1      0.113700
      2 O31         1.2790   -0.2810   -0.1650 os        1 FZ1     -0.327900
      3 C50         1.8700   -0.2640    1.0850 ca        1 FZ1      0.101100
      4 C43         3.2320   -0.6060    1.1040 ca        1 FZ1     -0.158500
      5 C4          3.9200   -0.6310    2.3090 ca        1 FZ1     -0.130000
      6 C5          3.2760   -0.3040    3.5240 ca        1 FZ1      0.094600
      7 C1          1.9070    0.0410    3.4780 ca        1 FZ1     -0.130000
      8 C42         1.2100    0.0580    2.2750 ca        1 FZ1     -0.158500
      9 N6          3.9650   -0.2330    4.7660 nh        1 FZ1     -0.631000
     10 C2          5.4150   -0.2770    4.6950 c3        1 FZ1      0.181800
     11 C7          6.0710   -0.0160    6.0680 c3        1 FZ1      0.172800
     12 N9          5.5470   -0.9180    7.0910 nh        1 FZ1     -0.735300
     13 C8          4.0930   -0.8400    7.1820 c3        1 FZ1      0.172800
     14 C3          3.4280   -1.0950    5.8110 c3        1 FZ1      0.181800
     15 C22         6.2580   -0.8430    8.3310 ca        1 FZ1      0.663200
     16 N23         5.7140   -0.2490    9.4060 nb        1 FZ1     -0.721000
     17 C24         6.4560   -0.2560   10.5800 cp        1 FZ1      0.619000
     18 C28         5.8100    0.4130   11.7610 cp        1 FZ1      0.367300
     19 C29         5.5100   -0.3730   12.8910 ca        1 FZ1     -0.211300
     20 C30         4.9020    0.2460   13.9860 ca        1 FZ1     -0.098000
     21 C31         4.6210    1.6100   13.9220 ca        1 FZ1     -0.239300
     22 C32         4.9670    2.3100   12.7510 ca        1 FZ1      0.392200
     23 N33         5.5500    1.7400   11.6810 nb        1 FZ1     -0.632000
     24 N25         7.6730   -0.7840   10.7610 nb        1 FZ1     -0.684000
     25 C26         8.2420   -1.4090    9.6660 ca        1 FZ1      0.419600
     26 C27         7.5680   -1.4850    8.4070 ca        1 FZ1     -0.255600
     27 C37         9.5360   -2.0070    9.7900 ca        1 FZ1     -0.178300
     28 C36        10.1000   -2.6590    8.7220 ca        1 FZ1     -0.106000
     29 C35         9.4140   -2.7600    7.4920 ca        1 FZ1     -0.143000
     30 C34         8.1730   -2.1860    7.3380 ca        1 FZ1     -0.084000
     31 H1         -0.7180   -0.6070    0.3810 h1        1 FZ1      0.043367
     32 H2         -0.3420    0.0320   -1.3020 h1        1 FZ1      0.043367
     33 H3         -0.2230    1.1460    0.1560 h1        1 FZ1      0.043367
     34 H4          3.7400   -0.8560    0.1610 ha        1 FZ1      0.142500
     35 H5          4.9850   -0.9090    2.2940 ha        1 FZ1      0.136500
     36 H6          1.3730    0.3160    4.4020 ha        1 FZ1      0.136500
     37 H7          0.1450    0.3310    2.2750 ha        1 FZ1      0.142500
     38 H8          5.7900   -1.2680    4.3040 h1        1 FZ1      0.045200
     39 H9          5.7580    0.5340    3.9930 h1        1 FZ1      0.045200
     40 H10         7.1780   -0.1870    5.9640 h1        1 FZ1      0.057950
     41 H11         5.9070    1.0640    6.3530 h1        1 FZ1      0.057950
     42 H12         3.7410   -1.6390    7.8910 h1        1 FZ1      0.057950
     43 H13         3.7460    0.1600    7.5720 h1        1 FZ1      0.057950
     44 H14         3.5450   -2.1850    5.5450 h1        1 FZ1      0.045200
     45 H15         2.3290   -0.8790    5.9240 h1        1 FZ1      0.045200
     46 H16         5.7550   -1.4440   12.9070 ha        1 FZ1      0.153000
     47 H17         4.6530   -0.3370   14.8850 ha        1 FZ1      0.140000
     48 H18         4.1450    2.1340   14.7610 ha        1 FZ1      0.144000
     49 H19         4.7680    3.3930   12.6590 h4        1 FZ1      0.025100
     50 H20        10.0650   -1.9350   10.7540 ha        1 FZ1      0.155000
     51 H21        11.0970   -3.1180    8.8170 ha        1 FZ1      0.138000
     52 H22         9.8820   -3.3070    6.6600 ha        1 FZ1      0.137000
     53 H23         7.6380   -2.2900    6.3800 ha        1 FZ1      0.149000
@<TRIPOS>BOND
     1    1    2 1   
     2    1   31 1   
     3    1   32 1   
     4    1   33 1   
     5    2    3 1   
     6    3    4 ar  
     7    3    8 ar  
     8    4    5 ar  
     9    4   34 1   
    10    5    6 ar  
    11    5   35 1   
    12    6    7 ar  
    13    6    9 1   
    14    7    8 ar  
    15    7   36 1   
    16    8   37 1   
    17    9   10 1   
    18    9   14 1   
    19   10   11 1   
    20   10   38 1   
    21   10   39 1   
    22   11   12 1   
    23   11   40 1   
    24   11   41 1   
    25   12   13 1   
    26   12   15 1   
    27   13   14 1   
    28   13   42 1   
    29   13   43 1   
    30   14   44 1   
    31   14   45 1   
    32   15   16 ar  
    33   15   26 ar  
    34   16   17 ar  
    35   17   18 1   
    36   17   24 ar  
    37   18   19 ar  
    38   18   23 ar  
    39   19   20 ar  
    40   19   46 1   
    41   20   21 ar  
    42   20   47 1   
    43   21   22 ar  
    44   21   48 1   
    45   22   23 ar  
    46   22   49 1   
    47   24   25 ar  
    48   25   26 ar  
    49   25   27 ar  
    50   26   30 ar  
    51   27   28 ar  
    52   27   50 1   
    53   28   29 ar  
    54   28   51 1   
    55   29   30 ar  
    56   29   52 1   
    57   30   53 1   
@<TRIPOS>SUBSTRUCTURE
     1 FZ1         1 TEMP              0 ****  ****    0 ROOT
