@<TRIPOS>MOLECULE
FZ1
   53    57     1     0     0
SMALL
bcc


@<TRIPOS>ATOM
      1 C52         0.0850    0.4360   -0.2980 c3        1 FZ1      0.113700
      2 O31         1.4300   -0.0190   -0.2260 os        1 FZ1     -0.327900
      3 C50         1.9910   -0.0580    1.0380 ca        1 FZ1      0.101100
      4 C43         3.3290   -0.4830    1.0810 ca        1 FZ1     -0.158500
      5 C4          3.9860   -0.5680    2.3010 ca        1 FZ1     -0.130000
      6 C5          3.3350   -0.2190    3.5060 ca        1 FZ1      0.094600
      7 C1          1.9900    0.2100    3.4360 ca        1 FZ1     -0.130000
      8 C42         1.3240    0.2870    2.2170 ca        1 FZ1     -0.158500
      9 N6          3.9970   -0.2080    4.7640 nh        1 FZ1     -0.632000
     10 C2          5.4430   -0.3430    4.7250 c3        1 FZ1      0.181300
     11 C7          6.0820   -0.1400    6.1160 c3        1 FZ1      0.173800
     12 N9          5.4790   -1.0170    7.1160 nh        1 FZ1     -0.735300
     13 C8          4.0300   -0.8540    7.1730 c3        1 FZ1      0.173800
     14 C3          3.3840   -1.0500    5.7840 c3        1 FZ1      0.181300
     15 C22         6.1620   -1.0060    8.3730 ca        1 FZ1      0.664200
     16 N23         5.6290   -0.3960    9.4440 nb        1 FZ1     -0.722000
     17 C24         6.3350   -0.4730   10.6370 cp        1 FZ1      0.620000
     18 C28         5.6960    0.2050   11.8160 cp        1 FZ1      0.367300
     19 C29         6.3850    1.2720   12.4280 ca        1 FZ1     -0.210300
     20 C30         5.7880    1.9070   13.5190 ca        1 FZ1     -0.098000
     21 C31         4.5430    1.4630   13.9630 ca        1 FZ1     -0.238300
     22 C32         3.9380    0.3840   13.2890 ca        1 FZ1      0.392200
     23 N33         4.4880   -0.2440   12.2350 nb        1 FZ1     -0.633000
     24 N25         7.5200   -1.0650   10.8340 nb        1 FZ1     -0.685000
     25 C26         8.0800   -1.7010    9.7420 ca        1 FZ1      0.419600
     26 C27         7.4300   -1.7260    8.4680 ca        1 FZ1     -0.255600
     27 C37         9.3370   -2.3710    9.8840 ca        1 FZ1     -0.178300
     28 C36         9.8840   -3.0440    8.8200 ca        1 FZ1     -0.106000
     29 C35         9.2180   -3.0950    7.5760 ca        1 FZ1     -0.143000
     30 C34         8.0140   -2.4510    7.4040 ca        1 FZ1     -0.084000
     31 H1         -0.1460    0.3970   -1.3930 h1        1 FZ1      0.043367
     32 H2         -0.0010    1.4820    0.0850 h1        1 FZ1      0.043367
     33 H3         -0.5930   -0.2440    0.2720 h1        1 FZ1      0.043367
     34 H4          3.8420   -0.7500    0.1460 ha        1 FZ1      0.142500
     35 H5          5.0310   -0.9110    2.3050 ha        1 FZ1      0.136500
     36 H6          1.4520    0.5020    4.3510 ha        1 FZ1      0.136500
     37 H7          0.2780    0.6240    2.1980 ha        1 FZ1      0.142500
     38 H8          5.8530    0.4530    4.0420 h1        1 FZ1      0.045450
     39 H9          5.7640   -1.3510    4.3300 h1        1 FZ1      0.045450
     40 H10         7.1780   -0.3810    6.0340 h1        1 FZ1      0.057700
     41 H11         5.9810    0.9450    6.4090 h1        1 FZ1      0.057700
     42 H12         3.7340    0.1600    7.5690 h1        1 FZ1      0.057700
     43 H13         3.6140   -1.6380    7.8640 h1        1 FZ1      0.057700
     44 H14         3.4420   -2.1420    5.5050 h1        1 FZ1      0.045450
     45 H15         2.2980   -0.7700    5.8750 h1        1 FZ1      0.045450
     46 H16         7.3690    1.5870   12.0550 ha        1 FZ1      0.153000
     47 H17         6.2960    2.7440   14.0200 ha        1 FZ1      0.140000
     48 H18         4.0400    1.9350   14.8160 ha        1 FZ1      0.144000
     49 H19         2.9550   -0.0040   13.6100 h4        1 FZ1      0.024100
     50 H20         9.8480   -2.3420   10.8590 ha        1 FZ1      0.154000
     51 H21        10.8510   -3.5610    8.9300 ha        1 FZ1      0.138000
     52 H22         9.6700   -3.6610    6.7480 ha        1 FZ1      0.137000
     53 H23         7.4920   -2.5180    6.4360 ha        1 FZ1      0.149000
@<TRIPOS>BOND
     1    1    2 1   
     2    1   31 1   
     3    1   32 1   
     4    1   33 1   
     5    2    3 1   
     6    3    4 ar  
     7    3    8 ar  
     8    4    5 ar  
     9    4   34 1   
    10    5    6 ar  
    11    5   35 1   
    12    6    7 ar  
    13    6    9 1   
    14    7    8 ar  
    15    7   36 1   
    16    8   37 1   
    17    9   10 1   
    18    9   14 1   
    19   10   11 1   
    20   10   38 1   
    21   10   39 1   
    22   11   12 1   
    23   11   40 1   
    24   11   41 1   
    25   12   13 1   
    26   12   15 1   
    27   13   14 1   
    28   13   42 1   
    29   13   43 1   
    30   14   44 1   
    31   14   45 1   
    32   15   16 ar  
    33   15   26 ar  
    34   16   17 ar  
    35   17   18 1   
    36   17   24 ar  
    37   18   19 ar  
    38   18   23 ar  
    39   19   20 ar  
    40   19   46 1   
    41   20   21 ar  
    42   20   47 1   
    43   21   22 ar  
    44   21   48 1   
    45   22   23 ar  
    46   22   49 1   
    47   24   25 ar  
    48   25   26 ar  
    49   25   27 ar  
    50   26   30 ar  
    51   27   28 ar  
    52   27   50 1   
    53   28   29 ar  
    54   28   51 1   
    55   29   30 ar  
    56   29   52 1   
    57   30   53 1   
@<TRIPOS>SUBSTRUCTURE
     1 FZ1         1 TEMP              0 ****  ****    0 ROOT
