@<TRIPOS>MOLECULE
FZ1
   53    57     1     0     0
SMALL
bcc


@<TRIPOS>ATOM
      1 C52         0.0950    0.4620   -0.3010 c3        1 FZ1      0.113700
      2 O31         1.4380   -0.0010   -0.2290 os        1 FZ1     -0.327900
      3 C50         1.9980   -0.0430    1.0350 ca        1 FZ1      0.101100
      4 C43         3.3330   -0.4760    1.0800 ca        1 FZ1     -0.158500
      5 C4          3.9880   -0.5640    2.3000 ca        1 FZ1     -0.130000
      6 C5          3.3380   -0.2120    3.5050 ca        1 FZ1      0.094600
      7 C1          1.9970    0.2250    3.4330 ca        1 FZ1     -0.130000
      8 C42         1.3320    0.3050    2.2150 ca        1 FZ1     -0.158500
      9 N6          4.0000   -0.2040    4.7640 nh        1 FZ1     -0.632000
     10 C2          5.4450   -0.3460    4.7250 c3        1 FZ1      0.181300
     11 C7          6.0840   -0.1460    6.1170 c3        1 FZ1      0.173800
     12 N9          5.4760   -1.0200    7.1160 nh        1 FZ1     -0.735300
     13 C8          4.0270   -0.8490    7.1730 c3        1 FZ1      0.173800
     14 C3          3.3820   -1.0420    5.7830 c3        1 FZ1      0.181300
     15 C22         6.1580   -1.0120    8.3730 ca        1 FZ1      0.664200
     16 N23         5.6270   -0.4000    9.4440 nb        1 FZ1     -0.722000
     17 C24         6.3320   -0.4800   10.6380 cp        1 FZ1      0.620000
     18 C28         5.6960    0.2020   11.8160 cp        1 FZ1      0.367300
     19 C29         6.3900    1.2650   12.4290 ca        1 FZ1     -0.210300
     20 C30         5.7960    1.9030   13.5200 ca        1 FZ1     -0.098000
     21 C31         4.5470    1.4660   13.9620 ca        1 FZ1     -0.238300
     22 C32         3.9380    0.3920   13.2870 ca        1 FZ1      0.392200
     23 N33         4.4850   -0.2400   12.2340 nb        1 FZ1     -0.633000
     24 N25         7.5130   -1.0780   10.8360 nb        1 FZ1     -0.685000
     25 C26         8.0710   -1.7170    9.7450 ca        1 FZ1      0.419600
     26 C27         7.4220   -1.7390    8.4710 ca        1 FZ1     -0.255600
     27 C37         9.3240   -2.3940    9.8880 ca        1 FZ1     -0.178300
     28 C36         9.8690   -3.0700    8.8250 ca        1 FZ1     -0.106000
     29 C35         9.2030   -3.1180    7.5800 ca        1 FZ1     -0.143000
     30 C34         8.0030   -2.4680    7.4070 ca        1 FZ1     -0.084000
     31 H1          0.0160    1.5090    0.0810 h1        1 FZ1      0.043367
     32 H2         -0.5870   -0.2150    0.2680 h1        1 FZ1      0.043367
     33 H3         -0.1350    0.4230   -1.3960 h1        1 FZ1      0.043367
     34 H4          3.8450   -0.7460    0.1450 ha        1 FZ1      0.142500
     35 H5          5.0320   -0.9130    2.3050 ha        1 FZ1      0.136500
     36 H6          1.4600    0.5200    4.3480 ha        1 FZ1      0.136500
     37 H7          0.2880    0.6480    2.1940 ha        1 FZ1      0.142500
     38 H8          5.7610   -1.3560    4.3300 h1        1 FZ1      0.045450
     39 H9          5.8600    0.4470    4.0420 h1        1 FZ1      0.045450
     40 H10         5.9880    0.9390    6.4100 h1        1 FZ1      0.057700
     41 H11         7.1790   -0.3930    6.0360 h1        1 FZ1      0.057700
     42 H12         3.7370    0.1660    7.5680 h1        1 FZ1      0.057700
     43 H13         3.6070   -1.6310    7.8630 h1        1 FZ1      0.057700
     44 H14         3.4340   -2.1350    5.5030 h1        1 FZ1      0.045450
     45 H15         2.2970   -0.7570    5.8730 h1        1 FZ1      0.045450
     46 H16         7.3760    1.5740   12.0580 ha        1 FZ1      0.153000
     47 H17         6.3090    2.7360   14.0220 ha        1 FZ1      0.140000
     48 H18         4.0470    1.9420   14.8150 ha        1 FZ1      0.144000
     49 H19         2.9510    0.0090   13.6070 h4        1 FZ1      0.024100
     50 H20         9.8340   -2.3670   10.8640 ha        1 FZ1      0.154000
     51 H21        10.8320   -3.5920    8.9360 ha        1 FZ1      0.138000
     52 H22         9.6530   -3.6860    6.7530 ha        1 FZ1      0.137000
     53 H23         7.4810   -2.5320    6.4390 ha        1 FZ1      0.149000
@<TRIPOS>BOND
     1    1    2 1   
     2    1   31 1   
     3    1   32 1   
     4    1   33 1   
     5    2    3 1   
     6    3    4 ar  
     7    3    8 ar  
     8    4    5 ar  
     9    4   34 1   
    10    5    6 ar  
    11    5   35 1   
    12    6    7 ar  
    13    6    9 1   
    14    7    8 ar  
    15    7   36 1   
    16    8   37 1   
    17    9   10 1   
    18    9   14 1   
    19   10   11 1   
    20   10   38 1   
    21   10   39 1   
    22   11   12 1   
    23   11   40 1   
    24   11   41 1   
    25   12   13 1   
    26   12   15 1   
    27   13   14 1   
    28   13   42 1   
    29   13   43 1   
    30   14   44 1   
    31   14   45 1   
    32   15   16 ar  
    33   15   26 ar  
    34   16   17 ar  
    35   17   18 1   
    36   17   24 ar  
    37   18   19 ar  
    38   18   23 ar  
    39   19   20 ar  
    40   19   46 1   
    41   20   21 ar  
    42   20   47 1   
    43   21   22 ar  
    44   21   48 1   
    45   22   23 ar  
    46   22   49 1   
    47   24   25 ar  
    48   25   26 ar  
    49   25   27 ar  
    50   26   30 ar  
    51   27   28 ar  
    52   27   50 1   
    53   28   29 ar  
    54   28   51 1   
    55   29   30 ar  
    56   29   52 1   
    57   30   53 1   
@<TRIPOS>SUBSTRUCTURE
     1 FZ1         1 TEMP              0 ****  ****    0 ROOT
