@<TRIPOS>MOLECULE
FZ1
   53    45     1     0     0
SMALL
bcc


@<TRIPOS>ATOM
      1 C52        -5.0460   -0.6770   -6.2020 c3        1 FZ1     -0.076000
      2 O31        -4.0850    0.3340   -5.9360 os        1 FZ1     -0.209000
      3 C50        -3.6160    0.3440   -4.5930 c1        1 FZ1      0.079000
      4 C43        -4.3350    1.0200   -3.6120 c1        1 FZ1     -0.121500
      5 C4         -3.8170    1.1370   -2.3260 c1        1 FZ1     -0.121500
      6 C5         -2.5780    0.5780   -2.0200 c1        1 FZ1     -0.034000
      7 C1         -1.8600   -0.0970   -3.0010 c1        1 FZ1     -0.119000
      8 C42        -2.3790   -0.2140   -4.2870 c1        1 FZ1     -0.200000
      9 N6         -2.1030    0.5840   -0.6500 n2        1 FZ1     -0.219000
     10 C2         -1.1390    1.6290   -0.4830 c3        1 FZ1     -0.067000
     11 C7         -0.4880    1.6030    0.8970 c3        1 FZ1     -0.063500
     12 N9          0.0350    0.3140    1.2290 n3        1 FZ1     -0.226000
     13 C8         -0.9300   -0.7320    1.0610 c3        1 FZ1     -0.063500
     14 C3         -1.5810   -0.7060   -0.3190 c3        1 FZ1     -0.067000
     15 C22         1.1940    0.0380    0.4140 c1        1 FZ1      0.142000
     16 N23         0.9490   -0.7100    1.5140 n1        1 FZ1     -0.195000
     17 C24         1.9020   -0.8170    2.5020 c1        1 FZ1      0.093000
     18 C28         2.0910   -1.3730    3.9170 c1        1 FZ1      0.040000
     19 C29         2.6480   -2.6370    4.1000 c1        1 FZ1     -0.121500
     20 C30         2.8370   -3.1250    5.3670 c1        1 FZ1     -0.121500
     21 C31         2.4780   -2.3680    6.4520 c1        1 FZ1     -0.121500
     22 C32         1.9230   -1.1070    6.2660 c1        1 FZ1     -0.121500
     23 N33         1.7340   -0.6200    4.9990 n1        1 FZ1     -0.106000
     24 N25         3.1020   -0.1650    2.3730 n2        1 FZ1     -0.159000
     25 C26         3.3550    0.5930    1.2610 c1        1 FZ1      0.026000
     26 C27         2.4120    0.7000    0.2810 c1        1 FZ1     -0.125000
     27 C37         4.6190    1.2200    1.1010 c1        1 FZ1     -0.113000
     28 C36         4.8960    1.9410   -0.0520 c1        1 FZ1     -0.121500
     29 C35         3.9340    2.0510   -1.0530 c1        1 FZ1     -0.121500
     30 C34         2.6950    1.4370   -0.8970 c1        1 FZ1     -0.084000
     31 H1         -5.6680   -0.3630   -6.8970 h1        1 FZ1      0.084000
     32 H2         -5.5460   -0.8780   -5.3820 h1        1 FZ1      0.084000
     33 H3         -4.5890   -1.4890   -6.5140 h1        1 FZ1      0.084000
     34 H4         -5.2090    1.4140   -3.8270 ha        1 FZ1      0.146750
     35 H5         -4.3250    1.6150   -1.6340 ha        1 FZ1      0.146750
     36 H6         -0.9900   -0.4890   -2.7870 ha        1 FZ1      0.134000
     37 H7         -1.8720   -0.6910   -4.9780 ha        1 FZ1      0.137000
     38 H8         -0.4400    1.5290   -1.1660 h1        1 FZ1      0.082500
     39 H9         -1.5860    2.4970   -0.6080 h1        1 FZ1      0.082500
     40 H10         0.2440    2.2580    0.9160 h1        1 FZ1      0.096750
     41 H11        -1.1590    1.8580    1.5700 h1        1 FZ1      0.096750
     42 H12        -0.4830   -1.6000    1.1860 h1        1 FZ1      0.096750
     43 H13        -1.6310   -0.6330    1.7470 h1        1 FZ1      0.096750
     44 H14        -0.9130   -0.9600   -0.9900 h1        1 FZ1      0.082500
     45 H15        -2.3160   -1.3610   -0.3370 h1        1 FZ1      0.082500
     46 H16         2.9050   -3.1800    3.3200 ha        1 FZ1      0.146750
     47 H17         3.2290   -4.0140    5.4970 ha        1 FZ1      0.146750
     48 H18         2.6140   -2.7160    7.3590 ha        1 FZ1      0.146750
     49 H19         1.6660   -0.5640    7.0440 ha        1 FZ1      0.146750
     50 H20         5.2990    1.1420    1.8090 ha        1 FZ1      0.154000
     51 H21         5.7720    2.3750   -0.1620 ha        1 FZ1      0.146750
     52 H22         4.1310    2.5610   -1.8690 ha        1 FZ1      0.146750
     53 H23         2.0190    1.5140   -1.6010 ha        1 FZ1      0.149000
@<TRIPOS>BOND
     1    1    2 1   
     2    1   31 1   
     3    1   32 1   
     4    1   33 1   
     5    2    3 1   
     6    3    8 1   
     7    4    5 1   
     8    4   34 1   
     9    5   35 1   
    10    6    7 1   
    11    7   36 1   
    12    8   37 1   
    13    9   10 1   
    14    9   14 1   
    15   10   11 1   
    16   10   38 1   
    17   10   39 1   
    18   11   12 1   
    19   11   40 1   
    20   11   41 1   
    21   12   13 1   
    22   12   15 1   
    23   13   14 1   
    24   13   42 1   
    25   13   43 1   
    26   14   44 1   
    27   14   45 1   
    28   15   26 1   
    29   16   17 1   
    30   17   24 1   
    31   18   23 1   
    32   19   20 1   
    33   19   46 1   
    34   20   47 1   
    35   21   22 1   
    36   21   48 1   
    37   22   49 1   
    38   24   25 1   
    39   25   27 1   
    40   26   30 1   
    41   27   50 1   
    42   28   29 1   
    43   28   51 1   
    44   29   52 1   
    45   30   53 1   
@<TRIPOS>SUBSTRUCTURE
     1 FZ1         1 TEMP              0 ****  ****    0 ROOT
