@<TRIPOS>MOLECULE
FZ1
   53    57     1     0     0
SMALL
bcc


@<TRIPOS>ATOM
      1 C52         8.8630    1.4360   -0.1720 c3        1 FZ1      0.113700
      2 O31         8.2000    0.2150    0.1320 os        1 FZ1     -0.327900
      3 C50         6.8180    0.2520    0.1060 ca        1 FZ1      0.101100
      4 C43         6.1840   -0.9570    0.4370 ca        1 FZ1     -0.158500
      5 C4          4.7980   -1.0320    0.4320 ca        1 FZ1     -0.130000
      6 C5          4.0070    0.0950    0.1130 ca        1 FZ1      0.094600
      7 C1          4.6680    1.3000   -0.2120 ca        1 FZ1     -0.130000
      8 C42         6.0560    1.3790   -0.2190 ca        1 FZ1     -0.158500
      9 N6          2.5870    0.0840    0.1820 nh        1 FZ1     -0.632000
     10 C2          1.9890   -1.0730    0.8270 c3        1 FZ1      0.181300
     11 C7          0.4650   -0.9090    1.0130 c3        1 FZ1      0.173800
     12 N9         -0.1970   -0.5850   -0.2480 nh        1 FZ1     -0.735300
     13 C8          0.3870    0.5970   -0.8750 c3        1 FZ1      0.173800
     14 C3          1.9130    0.4430   -1.0590 c3        1 FZ1      0.181300
     15 C22        -1.6250   -0.6120   -0.1680 ca        1 FZ1      0.664200
     16 N23        -2.3400    0.5250   -0.1810 nb        1 FZ1     -0.722000
     17 C24        -3.7230    0.4080   -0.1480 cp        1 FZ1      0.620000
     18 C28        -4.4870    1.7010   -0.1820 cp        1 FZ1      0.367300
     19 C29        -5.3080    2.0230    0.9180 ca        1 FZ1     -0.210300
     20 C30        -6.0120    3.2290    0.8880 ca        1 FZ1     -0.098000
     21 C31        -5.8820    4.0620   -0.2220 ca        1 FZ1     -0.238300
     22 C32        -5.0420    3.6480   -1.2740 ca        1 FZ1      0.392200
     23 N33        -4.3510    2.4950   -1.2720 nb        1 FZ1     -0.633000
     24 N25        -4.4330   -0.7250   -0.0680 nb        1 FZ1     -0.685000
     25 C26        -3.7110   -1.9040   -0.0590 ca        1 FZ1      0.419600
     26 C27        -2.2830   -1.9150   -0.1290 ca        1 FZ1     -0.255600
     27 C37        -4.4050   -3.1550    0.0060 ca        1 FZ1     -0.178300
     28 C36        -3.7050   -4.3350   -0.0280 ca        1 FZ1     -0.106000
     29 C35        -2.2960   -4.3380   -0.1350 ca        1 FZ1     -0.143000
     30 C34        -1.6000   -3.1520   -0.1870 ca        1 FZ1     -0.084000
     31 H1          8.6260    1.7660   -1.2130 h1        1 FZ1      0.043367
     32 H2          8.5850    2.2310    0.5620 h1        1 FZ1      0.043367
     33 H3          9.9470    1.1740   -0.0780 h1        1 FZ1      0.043367
     34 H4          6.7950   -1.8350    0.6910 ha        1 FZ1      0.142500
     35 H5          4.3300   -1.9940    0.6880 ha        1 FZ1      0.136500
     36 H6          4.0870    2.2040   -0.4550 ha        1 FZ1      0.136500
     37 H7          6.5380    2.3330   -0.4770 ha        1 FZ1      0.142500
     38 H8          2.1770   -2.0250    0.2490 h1        1 FZ1      0.045450
     39 H9          2.4470   -1.1830    1.8500 h1        1 FZ1      0.045450
     40 H10         0.0540   -1.8830    1.3990 h1        1 FZ1      0.057700
     41 H11         0.2750   -0.1140    1.7900 h1        1 FZ1      0.057700
     42 H12        -0.0760    0.7200   -1.8930 h1        1 FZ1      0.057700
     43 H13         0.1880    1.5340   -0.2790 h1        1 FZ1      0.057700
     44 H14         2.3110    1.4350   -1.4100 h1        1 FZ1      0.045450
     45 H15         2.1080   -0.3190   -1.8680 h1        1 FZ1      0.045450
     46 H16        -5.3920    1.3360    1.7700 ha        1 FZ1      0.153000
     47 H17        -6.6610    3.5120    1.7300 ha        1 FZ1      0.140000
     48 H18        -6.4180    5.0180   -0.2830 ha        1 FZ1      0.144000
     49 H19        -4.9140    4.2740   -2.1750 h4        1 FZ1      0.024100
     50 H20        -5.5040   -3.1500    0.0750 ha        1 FZ1      0.154000
     51 H21        -4.2390   -5.2970    0.0200 ha        1 FZ1      0.138000
     52 H22        -1.7640   -5.2990   -0.1830 ha        1 FZ1      0.137000
     53 H23        -0.5030   -3.1670   -0.2950 ha        1 FZ1      0.149000
@<TRIPOS>BOND
     1    1    2 1   
     2    1   31 1   
     3    1   32 1   
     4    1   33 1   
     5    2    3 1   
     6    3    4 ar  
     7    3    8 ar  
     8    4    5 ar  
     9    4   34 1   
    10    5    6 ar  
    11    5   35 1   
    12    6    7 ar  
    13    6    9 1   
    14    7    8 ar  
    15    7   36 1   
    16    8   37 1   
    17    9   10 1   
    18    9   14 1   
    19   10   11 1   
    20   10   38 1   
    21   10   39 1   
    22   11   12 1   
    23   11   40 1   
    24   11   41 1   
    25   12   13 1   
    26   12   15 1   
    27   13   14 1   
    28   13   42 1   
    29   13   43 1   
    30   14   44 1   
    31   14   45 1   
    32   15   16 ar  
    33   15   26 ar  
    34   16   17 ar  
    35   17   18 1   
    36   17   24 ar  
    37   18   19 ar  
    38   18   23 ar  
    39   19   20 ar  
    40   19   46 1   
    41   20   21 ar  
    42   20   47 1   
    43   21   22 ar  
    44   21   48 1   
    45   22   23 ar  
    46   22   49 1   
    47   24   25 ar  
    48   25   26 ar  
    49   25   27 ar  
    50   26   30 ar  
    51   27   28 ar  
    52   27   50 1   
    53   28   29 ar  
    54   28   51 1   
    55   29   30 ar  
    56   29   52 1   
    57   30   53 1   
@<TRIPOS>SUBSTRUCTURE
     1 FZ1         1 TEMP              0 ****  ****    0 ROOT
