@<TRIPOS>MOLECULE
FZ8
   41    45     1     0     0
SMALL
bcc


@<TRIPOS>ATOM
      1 N01        -0.1920    0.1260   -0.1390 nb        1 FZ8     -0.714000
      2 C02         1.1350   -0.1280   -0.1300 ca        1 FZ8      0.682900
      3 N03         1.9810   -0.3000    0.9260 nb        1 FZ8     -0.776000
      4 C04         1.4650   -0.1990    2.1890 ca        1 FZ8      0.728200
      5 N05         2.2960   -0.2830    3.3320 nh        1 FZ8     -0.740300
      6 C06         1.9030   -1.2910    4.3110 c3        1 FZ8      0.186800
      7 C07         2.6340   -1.1240    5.6430 c3        1 FZ8     -0.081900
      8 C08         4.1400   -1.1240    5.4180 c3        1 FZ8     -0.084000
      9 C09         4.8740   -0.9400    6.7130 cc        1 FZ8      0.415800
     10 N10         4.7470    0.2370    7.4880 na        1 FZ8     -0.282300
     11 C11         5.5580    0.0670    8.6110 ca        1 FZ8     -0.072200
     12 C12         5.8370    0.8810    9.7160 ca        1 FZ8     -0.136000
     13 C13         6.7090    0.3810   10.6710 ca        1 FZ8     -0.112000
     14 C14         7.2960   -0.8920   10.5450 ca        1 FZ8     -0.154000
     15 C15         7.0340   -1.7150    9.4610 ca        1 FZ8     -0.068000
     16 C16         6.1570   -1.2500    8.4700 ca        1 FZ8      0.064400
     17 N17         5.7050   -1.8430    7.2750 nd        1 FZ8     -0.563100
     18 C18         4.5160   -0.0450    4.4130 c3        1 FZ8     -0.081900
     19 C19         3.7360   -0.2270    3.1100 c3        1 FZ8      0.186800
     20 C20         0.0750    0.0780    2.3430 ca        1 FZ8     -0.460500
     21 C21        -0.8830    0.3130    3.4050 cc        1 FZ8      0.379800
     22 N22        -2.1010    0.5650    2.8840 nd        1 FZ8     -0.512100
     23 N23        -2.0170    0.5200    1.5470 na        1 FZ8     -0.113800
     24 C24        -0.7110    0.2330    1.1220 ca        1 FZ8      0.455800
     25 H1          1.6130   -0.2210   -1.1290 h5        1 FZ8      0.057100
     26 H2          0.7950   -1.2110    4.4920 h1        1 FZ8      0.054450
     27 H3          2.1140   -2.3280    3.9150 h1        1 FZ8      0.054450
     28 H4          2.3130   -0.1700    6.1360 hc        1 FZ8      0.058200
     29 H5          2.3460   -1.9740    6.3120 hc        1 FZ8      0.058200
     30 H6          4.4360   -2.1260    4.9900 hc        1 FZ8      0.091700
     31 H7          4.2100    1.0300    7.2630 hn        1 FZ8      0.305700
     32 H8          5.3840    1.8750    9.8210 ha        1 FZ8      0.135000
     33 H9          6.9520    0.9940   11.5520 ha        1 FZ8      0.132000
     34 H10         7.9810   -1.2390   11.3330 ha        1 FZ8      0.133000
     35 H11         7.4960   -2.7090    9.3700 ha        1 FZ8      0.148000
     36 H13         5.6100   -0.1040    4.1780 hc        1 FZ8      0.058200
     37 H14         4.3090    0.9720    4.8360 hc        1 FZ8      0.058200
     38 H15         3.9560    0.6510    2.4390 h1        1 FZ8      0.054450
     39 H16         4.1040   -1.1610    2.5940 h1        1 FZ8      0.054450
     40 H17        -0.7020    0.3190    4.4810 h4        1 FZ8      0.058800
     41 H12        -2.8140    0.6750    0.9750 hn        1 FZ8      0.339700
@<TRIPOS>BOND
     1    1    2 ar  
     2    1   24 ar  
     3    2    3 ar  
     4    2   25 1   
     5    3    4 ar  
     6    4    5 1   
     7    4   20 ar  
     8    5    6 1   
     9    5   19 1   
    10    6    7 1   
    11    6   26 1   
    12    6   27 1   
    13    7    8 1   
    14    7   28 1   
    15    7   29 1   
    16    8    9 1   
    17    8   18 1   
    18    8   30 1   
    19    9   10 1   
    20    9   17 2   
    21   10   11 1   
    22   10   31 1   
    23   11   12 ar  
    24   11   16 ar  
    25   12   13 ar  
    26   12   32 1   
    27   13   14 ar  
    28   13   33 1   
    29   14   15 ar  
    30   14   34 1   
    31   15   16 ar  
    32   15   35 1   
    33   16   17 1   
    34   18   19 1   
    35   18   36 1   
    36   18   37 1   
    37   19   38 1   
    38   19   39 1   
    39   20   21 1   
    40   20   24 ar  
    41   21   22 2   
    42   21   40 1   
    43   22   23 1   
    44   23   24 1   
    45   23   41 1   
@<TRIPOS>SUBSTRUCTURE
     1 FZ8         1 TEMP              0 ****  ****    0 ROOT
