@<TRIPOS>MOLECULE
FZ8
   41    45     1     0     0
SMALL
bcc


@<TRIPOS>ATOM
      1 N01        -0.1970    0.1260   -0.1350 nb        1 FZ8     -0.714000
      2 C02         1.1300   -0.1260   -0.1280 ca        1 FZ8      0.682900
      3 N03         1.9770   -0.2980    0.9270 nb        1 FZ8     -0.776000
      4 C04         1.4620   -0.1990    2.1900 ca        1 FZ8      0.728200
      5 N05         2.2940   -0.2830    3.3330 nh        1 FZ8     -0.740300
      6 C06         1.9040   -1.2920    4.3110 c3        1 FZ8      0.186800
      7 C07         2.6360   -1.1250    5.6420 c3        1 FZ8     -0.081900
      8 C08         4.1420   -1.1220    5.4170 c3        1 FZ8     -0.084000
      9 C09         4.8760   -0.9390    6.7110 cc        1 FZ8      0.415800
     10 N10         4.7480    0.2380    7.4870 na        1 FZ8     -0.282300
     11 C11         5.5600    0.0680    8.6100 ca        1 FZ8     -0.072200
     12 C12         5.8390    0.8810    9.7150 ca        1 FZ8     -0.136000
     13 C13         6.7130    0.3810   10.6680 ca        1 FZ8     -0.112000
     14 C14         7.3010   -0.8900   10.5410 ca        1 FZ8     -0.154000
     15 C15         7.0400   -1.7130    9.4560 ca        1 FZ8     -0.068000
     16 C16         6.1620   -1.2480    8.4670 ca        1 FZ8      0.064400
     17 N17         5.7100   -1.8400    7.2720 nd        1 FZ8     -0.563100
     18 C18         4.5140   -0.0420    4.4120 c3        1 FZ8     -0.081900
     19 C19         3.7340   -0.2240    3.1090 c3        1 FZ8      0.186800
     20 C20         0.0720    0.0750    2.3460 ca        1 FZ8     -0.460500
     21 C21        -0.8860    0.3070    3.4090 cc        1 FZ8      0.379800
     22 N22        -2.1050    0.5570    2.8890 nd        1 FZ8     -0.512100
     23 N23        -2.0220    0.5140    1.5530 na        1 FZ8     -0.113800
     24 C24        -0.7160    0.2300    1.1270 ca        1 FZ8      0.455800
     25 H1          1.6070   -0.2170   -1.1280 h5        1 FZ8      0.057100
     26 H2          0.7960   -1.2150    4.4930 h1        1 FZ8      0.054450
     27 H3          2.1160   -2.3290    3.9140 h1        1 FZ8      0.054450
     28 H4          2.3500   -1.9770    6.3120 hc        1 FZ8      0.058200
     29 H5          2.3140   -0.1730    6.1370 hc        1 FZ8      0.058200
     30 H6          4.4390   -2.1240    4.9870 hc        1 FZ8      0.091700
     31 H7          4.2090    1.0300    7.2640 hn        1 FZ8      0.305700
     32 H8          5.3830    1.8740    9.8210 ha        1 FZ8      0.135000
     33 H9          6.9550    0.9940   11.5500 ha        1 FZ8      0.132000
     34 H10         7.9880   -1.2360   11.3290 ha        1 FZ8      0.133000
     35 H11         7.5040   -2.7050    9.3640 ha        1 FZ8      0.148000
     36 H13         5.6080   -0.0990    4.1760 hc        1 FZ8      0.058200
     37 H14         4.3060    0.9750    4.8370 hc        1 FZ8      0.058200
     38 H15         3.9520    0.6560    2.4400 h1        1 FZ8      0.054450
     39 H16         4.1040   -1.1560    2.5920 h1        1 FZ8      0.054450
     40 H17        -0.7040    0.3120    4.4850 h4        1 FZ8      0.058800
     41 H12        -2.8190    0.6680    0.9810 hn        1 FZ8      0.339700
@<TRIPOS>BOND
     1    1    2 ar  
     2    1   24 ar  
     3    2    3 ar  
     4    2   25 1   
     5    3    4 ar  
     6    4    5 1   
     7    4   20 ar  
     8    5    6 1   
     9    5   19 1   
    10    6    7 1   
    11    6   26 1   
    12    6   27 1   
    13    7    8 1   
    14    7   28 1   
    15    7   29 1   
    16    8    9 1   
    17    8   18 1   
    18    8   30 1   
    19    9   10 1   
    20    9   17 2   
    21   10   11 1   
    22   10   31 1   
    23   11   12 ar  
    24   11   16 ar  
    25   12   13 ar  
    26   12   32 1   
    27   13   14 ar  
    28   13   33 1   
    29   14   15 ar  
    30   14   34 1   
    31   15   16 ar  
    32   15   35 1   
    33   16   17 1   
    34   18   19 1   
    35   18   36 1   
    36   18   37 1   
    37   19   38 1   
    38   19   39 1   
    39   20   21 1   
    40   20   24 ar  
    41   21   22 2   
    42   21   40 1   
    43   22   23 1   
    44   23   24 1   
    45   23   41 1   
@<TRIPOS>SUBSTRUCTURE
     1 FZ8         1 TEMP              0 ****  ****    0 ROOT
