@<TRIPOS>MOLECULE
FZ9
   40    44     1     0     0
SMALL
bcc


@<TRIPOS>ATOM
      1 N01        -0.3630    0.3960   -0.0650 nb        1 FZ9     -0.741000
      2 C02         0.7970    1.0190    0.2420 ca        1 FZ9      0.696900
      3 N03         1.5060    1.0240    1.4010 nb        1 FZ9     -0.801000
      4 C04         1.0140    0.2980    2.4650 ca        1 FZ9      0.769200
      5 N05         1.7090    0.2850    3.6630 nh        1 FZ9     -0.775300
      6 C06         1.4200   -0.7200    4.6570 c3        1 FZ9      0.221800
      7 C07         2.5940   -1.0950    5.5640 c3        1 FZ9     -0.055200
      8 C08         3.3540    0.1020    6.0250 ce        1 FZ9     -0.033200
      9 C09         3.9770    0.0480    7.3230 cc        1 FZ9     -0.104200
     10 C10         5.2570    0.6210    7.6990 ca        1 FZ9     -0.079800
     11 C11         6.2510    1.3250    7.0170 ca        1 FZ9     -0.084000
     12 C12         7.3850    1.7270    7.7060 ca        1 FZ9     -0.154000
     13 C13         7.5530    1.4370    9.0730 ca        1 FZ9     -0.112000
     14 C14         6.5970    0.7340    9.7870 ca        1 FZ9     -0.143000
     15 C15         5.4440    0.3200    9.1020 ca        1 FZ9     -0.049200
     16 N16         4.3320   -0.4030    9.5420 na        1 FZ9     -0.188400
     17 C17         3.4540   -0.5590    8.4710 cd        1 FZ9     -0.090100
     18 C18         3.4430    1.1650    5.2080 c2        1 FZ9     -0.187200
     19 C19         2.8290    1.1890    3.8490 c3        1 FZ9      0.259000
     20 C20        -0.2250   -0.4000    2.3020 ca        1 FZ9     -0.496500
     21 C21        -1.1470   -1.2020    3.0810 cc        1 FZ9      0.377800
     22 N22        -2.2050   -1.5650    2.3280 nd        1 FZ9     -0.523100
     23 N23        -2.0530   -1.0510    1.0990 na        1 FZ9     -0.116800
     24 C24        -0.8670   -0.3100    0.9940 ca        1 FZ9      0.471800
     25 H1          1.2490    1.6170   -0.5790 h5        1 FZ9      0.052100
     26 H2          1.0770   -1.6650    4.1410 h1        1 FZ9      0.049200
     27 H3          2.1810   -1.6710    6.4340 hc        1 FZ9      0.061700
     28 H4          6.1320    1.5490    5.9470 ha        1 FZ9      0.137000
     29 H5          8.1750    2.2830    7.1800 ha        1 FZ9      0.131000
     30 H6          8.4680    1.7760    9.5820 ha        1 FZ9      0.131000
     31 H7          6.7350    0.5060   10.8520 ha        1 FZ9      0.133000
     32 H8          4.1790   -0.7120   10.4640 hn        1 FZ9      0.300700
     33 H9          2.5090   -1.0900    8.6020 h4        1 FZ9      0.166000
     34 H10         3.9930    2.0770    5.4850 ha        1 FZ9      0.145000
     35 H11         2.4710    2.2390    3.6300 h1        1 FZ9      0.066200
     36 H12        -1.0680   -1.4920    4.1300 h4        1 FZ9      0.052800
     37 H13        -2.7300   -1.2030    0.3900 hn        1 FZ9      0.336700
     38 H14         0.5720   -0.3440    5.3010 h1        1 FZ9      0.049200
     39 H15         3.3000   -1.7740    5.0140 hc        1 FZ9      0.061700
     40 H16         3.6390    0.9420    3.0960 h1        1 FZ9      0.066200
@<TRIPOS>BOND
     1    1    2 ar  
     2    1   24 ar  
     3    2    3 ar  
     4    2   25 1   
     5    3    4 ar  
     6    4    5 1   
     7    4   20 ar  
     8    5    6 1   
     9    5   19 1   
    10    6    7 1   
    11    6   26 1   
    12    6   38 1   
    13    7    8 1   
    14    7   27 1   
    15    7   39 1   
    16    8    9 1   
    17    8   18 2   
    18    9   10 1   
    19    9   17 2   
    20   10   11 ar  
    21   10   15 ar  
    22   11   12 ar  
    23   11   28 1   
    24   12   13 ar  
    25   12   29 1   
    26   13   14 ar  
    27   13   30 1   
    28   14   15 ar  
    29   14   31 1   
    30   15   16 1   
    31   16   17 1   
    32   16   32 1   
    33   17   33 1   
    34   18   19 1   
    35   18   34 1   
    36   19   35 1   
    37   19   40 1   
    38   20   21 1   
    39   20   24 ar  
    40   21   22 2   
    41   21   36 1   
    42   22   23 1   
    43   23   24 1   
    44   23   37 1   
@<TRIPOS>SUBSTRUCTURE
     1 FZ9         1 TEMP              0 ****  ****    0 ROOT
