@<TRIPOS>MOLECULE
FZ9
   40    44     1     0     0
SMALL
bcc


@<TRIPOS>ATOM
      1 N01        -0.3620    0.3930   -0.0650 nb        1 FZ9     -0.741000
      2 C02         0.8040    1.0060    0.2370 ca        1 FZ9      0.696900
      3 N03         1.5140    1.0110    1.3960 nb        1 FZ9     -0.801000
      4 C04         1.0140    0.2980    2.4650 ca        1 FZ9      0.769200
      5 N05         1.7100    0.2850    3.6630 nh        1 FZ9     -0.775300
      6 C06         1.4110   -0.7100    4.6630 c3        1 FZ9      0.221800
      7 C07         2.5800   -1.0900    5.5740 c3        1 FZ9     -0.055200
      8 C08         3.3530    0.1010    6.0260 ce        1 FZ9     -0.033200
      9 C09         3.9750    0.0510    7.3240 cc        1 FZ9     -0.104200
     10 C10         5.2610    0.6130    7.6970 ca        1 FZ9     -0.079800
     11 C11         6.2630    1.3010    7.0100 ca        1 FZ9     -0.084000
     12 C12         7.4010    1.6950    7.6970 ca        1 FZ9     -0.154000
     13 C13         7.5660    1.4140    9.0650 ca        1 FZ9     -0.112000
     14 C14         6.6010    0.7260    9.7850 ca        1 FZ9     -0.143000
     15 C15         5.4440    0.3200    9.1020 ca        1 FZ9     -0.049200
     16 N16         4.3240   -0.3890    9.5470 na        1 FZ9     -0.188400
     17 C17         3.4460   -0.5430    8.4770 cd        1 FZ9     -0.090100
     18 C18         3.4540    1.1580    5.2010 c2        1 FZ9     -0.187200
     19 C19         2.8400    1.1790    3.8420 c3        1 FZ9      0.259000
     20 C20        -0.2320   -0.3870    2.3070 ca        1 FZ9     -0.496500
     21 C21        -1.1620   -1.1750    3.0920 cc        1 FZ9      0.377800
     22 N22        -2.2240   -1.5300    2.3420 nd        1 FZ9     -0.523100
     23 N23        -2.0670   -1.0270    1.1100 na        1 FZ9     -0.116800
     24 C24        -0.8740   -0.2990    0.9980 ca        1 FZ9      0.471800
     25 H1          1.2630    1.5940   -0.5880 h5        1 FZ9      0.052100
     26 H2          0.5660   -0.3190    5.3050 h1        1 FZ9      0.049200
     27 H3          3.2790   -1.7820    5.0290 hc        1 FZ9      0.061700
     28 H4          6.1460    1.5180    5.9380 ha        1 FZ9      0.137000
     29 H5          8.1970    2.2390    7.1660 ha        1 FZ9      0.131000
     30 H6          8.4840    1.7470    9.5720 ha        1 FZ9      0.131000
     31 H7          6.7370    0.5040   10.8510 ha        1 FZ9      0.133000
     32 H8          4.1690   -0.6890   10.4710 hn        1 FZ9      0.300700
     33 H9          2.4940   -1.0620    8.6120 h4        1 FZ9      0.166000
     34 H10         4.0130    2.0660    5.4720 ha        1 FZ9      0.145000
     35 H11         3.6470    0.9170    3.0910 h1        1 FZ9      0.066200
     36 H12        -1.0860   -1.4580    4.1430 h4        1 FZ9      0.052800
     37 H13        -2.7470   -1.1760    0.4020 hn        1 FZ9      0.336700
     38 H14         1.0580   -1.6540    4.1550 h1        1 FZ9      0.049200
     39 H15         2.1610   -1.6550    6.4470 hc        1 FZ9      0.061700
     40 H16         2.4940    2.2310    3.6150 h1        1 FZ9      0.066200
@<TRIPOS>BOND
     1    1    2 ar  
     2    1   24 ar  
     3    2    3 ar  
     4    2   25 1   
     5    3    4 ar  
     6    4    5 1   
     7    4   20 ar  
     8    5    6 1   
     9    5   19 1   
    10    6    7 1   
    11    6   26 1   
    12    6   38 1   
    13    7    8 1   
    14    7   27 1   
    15    7   39 1   
    16    8    9 1   
    17    8   18 2   
    18    9   10 1   
    19    9   17 2   
    20   10   11 ar  
    21   10   15 ar  
    22   11   12 ar  
    23   11   28 1   
    24   12   13 ar  
    25   12   29 1   
    26   13   14 ar  
    27   13   30 1   
    28   14   15 ar  
    29   14   31 1   
    30   15   16 1   
    31   16   17 1   
    32   16   32 1   
    33   17   33 1   
    34   18   19 1   
    35   18   34 1   
    36   19   35 1   
    37   19   40 1   
    38   20   21 1   
    39   20   24 ar  
    40   21   22 2   
    41   21   36 1   
    42   22   23 1   
    43   23   24 1   
    44   23   37 1   
@<TRIPOS>SUBSTRUCTURE
     1 FZ9         1 TEMP              0 ****  ****    0 ROOT
