@<TRIPOS>MOLECULE
FZ9
   40    44     1     0     0
SMALL
bcc


@<TRIPOS>ATOM
      1 N01        -0.3570    0.3660   -0.0690 nb        1 FZ9     -0.741000
      2 C02         0.8190    0.9650    0.2250 ca        1 FZ9      0.696900
      3 N03         1.5280    0.9760    1.3840 nb        1 FZ9     -0.801000
      4 C04         1.0160    0.2870    2.4630 ca        1 FZ9      0.769200
      5 N05         1.7110    0.2810    3.6610 nh        1 FZ9     -0.775300
      6 C06         1.3960   -0.6940    4.6770 c3        1 FZ9      0.221800
      7 C07         2.5590   -1.0800    5.5930 c3        1 FZ9     -0.055200
      8 C08         3.3510    0.1050    6.0280 ce        1 FZ9     -0.033200
      9 C09         3.9720    0.0630    7.3270 cc        1 FZ9     -0.104200
     10 C10         5.2680    0.6100    7.6910 ca        1 FZ9     -0.079800
     11 C11         6.2800    1.2710    6.9940 ca        1 FZ9     -0.084000
     12 C12         7.4250    1.6570    7.6750 ca        1 FZ9     -0.154000
     13 C13         7.5850    1.3930    9.0470 ca        1 FZ9     -0.112000
     14 C14         6.6100    0.7320    9.7770 ca        1 FZ9     -0.143000
     15 C15         5.4460    0.3350    9.1000 ca        1 FZ9     -0.049200
     16 N16         4.3150   -0.3490    9.5550 na        1 FZ9     -0.188400
     17 C17         3.4330   -0.5040    8.4880 cd        1 FZ9     -0.090100
     18 C18         3.4690    1.1480    5.1880 c2        1 FZ9     -0.187200
     19 C19         2.8550    1.1590    3.8290 c3        1 FZ9      0.259000
     20 C20        -0.2410   -0.3810    2.3150 ca        1 FZ9     -0.496500
     21 C21        -1.1830   -1.1410    3.1110 cc        1 FZ9      0.377800
     22 N22        -2.2510   -1.4910    2.3650 nd        1 FZ9     -0.523100
     23 N23        -2.0850   -1.0090    1.1260 na        1 FZ9     -0.116800
     24 C24        -0.8800   -0.3020    1.0040 ca        1 FZ9      0.471800
     25 H1          1.2870    1.5330   -0.6090 h5        1 FZ9      0.052100
     26 H2          0.5580   -0.2810    5.3120 h1        1 FZ9      0.049200
     27 H3          3.2460   -1.7900    5.0580 hc        1 FZ9      0.061700
     28 H4          6.1670    1.4740    5.9190 ha        1 FZ9      0.137000
     29 H5          8.2290    2.1800    7.1370 ha        1 FZ9      0.131000
     30 H6          8.5090    1.7180    9.5490 ha        1 FZ9      0.131000
     31 H7          6.7420    0.5240   10.8470 ha        1 FZ9      0.133000
     32 H8          4.1540   -0.6330   10.4840 hn        1 FZ9      0.300700
     33 H9          2.4740   -1.0060    8.6300 h4        1 FZ9      0.166000
     34 H10         4.0430    2.0500    5.4450 ha        1 FZ9      0.145000
     35 H11         2.5260    2.2130    3.5860 h1        1 FZ9      0.066200
     36 H12        -1.1130   -1.4100    4.1660 h4        1 FZ9      0.052800
     37 H13        -2.7670   -1.1580    0.4190 hn        1 FZ9      0.336700
     38 H14         1.0280   -1.6400    4.1820 h1        1 FZ9      0.049200
     39 H15         2.1310   -1.6250    6.4750 hc        1 FZ9      0.061700
     40 H16         3.6580    0.8740    3.0820 h1        1 FZ9      0.066200
@<TRIPOS>BOND
     1    1    2 ar  
     2    1   24 ar  
     3    2    3 ar  
     4    2   25 1   
     5    3    4 ar  
     6    4    5 1   
     7    4   20 ar  
     8    5    6 1   
     9    5   19 1   
    10    6    7 1   
    11    6   26 1   
    12    6   38 1   
    13    7    8 1   
    14    7   27 1   
    15    7   39 1   
    16    8    9 1   
    17    8   18 2   
    18    9   10 1   
    19    9   17 2   
    20   10   11 ar  
    21   10   15 ar  
    22   11   12 ar  
    23   11   28 1   
    24   12   13 ar  
    25   12   29 1   
    26   13   14 ar  
    27   13   30 1   
    28   14   15 ar  
    29   14   31 1   
    30   15   16 1   
    31   16   17 1   
    32   16   32 1   
    33   17   33 1   
    34   18   19 1   
    35   18   34 1   
    36   19   35 1   
    37   19   40 1   
    38   20   21 1   
    39   20   24 ar  
    40   21   22 2   
    41   21   36 1   
    42   22   23 1   
    43   23   24 1   
    44   23   37 1   
@<TRIPOS>SUBSTRUCTURE
     1 FZ9         1 TEMP              0 ****  ****    0 ROOT
