@<TRIPOS>MOLECULE
FZZ
   63    66     1     0     0
SMALL
bcc


@<TRIPOS>ATOM
      1 O1         -0.1950   -0.4880    0.3950 o         1 FZZ     -0.428000
      2 C1          0.9650   -0.2060    0.0140 cc        1 FZZ      0.447000
      3 N1          1.8540    0.2510    0.9980 ns        1 FZZ     -0.622500
      4 C2          3.1820    0.6340    0.6990 c         1 FZZ      0.842900
      5 O2          3.9190    0.9440    1.6710 o         1 FZZ     -0.706500
      6 N2          3.6180    0.6820   -0.6260 nc        1 FZZ     -0.494400
      7 C3          1.4990   -0.3430   -1.3530 cd        1 FZZ     -0.004500
      8 N3          0.6870   -1.0300   -2.2220 nd        1 FZZ     -0.528700
      9 C4          1.0680   -1.5710   -3.3350 cc        1 FZZ      0.328900
     10 C5          0.1710   -2.4740   -4.1580 c3        1 FZZ     -0.088700
     11 C6          1.1210   -3.3080   -5.0710 c3        1 FZZ     -0.003700
     12 C7          1.1580   -4.7400   -4.5660 c3        1 FZZ     -0.078100
     13 C8          0.6060   -3.2610   -6.4980 c3        1 FZZ     -0.078100
     14 C9          2.4720   -2.6360   -4.9330 ca        1 FZZ     -0.066300
     15 C10         3.6760   -2.8830   -5.5860 ca        1 FZZ     -0.094300
     16 C11         3.8520   -3.9500   -6.5990 c3        1 FZZ     -0.037800
     17 C12         4.7840   -2.0630   -5.2720 ca        1 FZZ     -0.089300
     18 C13         6.0930   -2.3100   -5.9260 c3        1 FZZ     -0.042800
     19 C14         4.6740   -1.0110   -4.3650 ca        1 FZZ     -0.158000
     20 C15         2.3820   -1.5950   -3.9800 ca        1 FZZ     -0.131900
     21 C16         3.4460   -0.7190   -3.7280 ca        1 FZZ      0.028800
     22 C17         2.7960    0.2500   -1.6000 cd        1 FZZ      0.073300
     23 N4          3.2140    0.4570   -2.9650 na        1 FZZ     -0.085300
     24 C18         4.1490    1.5420   -3.2340 c3        1 FZZ     -0.008700
     25 C19         3.6040    2.9540   -2.9310 c3        1 FZZ      0.115100
     26 O3          2.4710    3.2620   -3.7130 oh        1 FZZ     -0.588800
     27 C20         4.7620    3.9650   -3.1390 c3        1 FZZ      0.074100
     28 O4          5.1860    4.4650   -1.8770 oh        1 FZZ     -0.604800
     29 C21         4.3430    5.1800   -3.9890 c3        1 FZZ      0.130100
     30 O5          4.0920    4.7450   -5.3160 oh        1 FZZ     -0.632800
     31 C22         5.3970    6.3010   -3.9750 c3        1 FZZ      0.163400
     32 O6          6.4240    5.9900   -4.8610 os        1 FZZ     -0.590200
     33 P1          7.9750    6.0470   -4.2630 p5        1 FZZ      1.432800
     34 O7          8.0050    7.1570   -3.2880 o         1 FZZ     -0.836000
     35 O8          7.8650    4.6970   -3.3550 oh        1 FZZ     -0.788400
     36 O9          8.8920    5.8430   -5.3980 o         1 FZZ     -0.836000
     37 H1          1.5370    0.3200    1.9360 hn        1 FZZ      0.309500
     38 H2          5.4520    3.6960   -1.3550 ho        1 FZZ      0.413000
     39 H3         -0.5220   -1.8540   -4.7790 hc        1 FZZ      0.043700
     40 H4         -0.4470   -3.1440   -3.5120 hc        1 FZZ      0.043700
     41 H5          1.4930   -4.7600   -3.5010 hc        1 FZZ      0.028867
     42 H6          0.1380   -5.1920   -4.6280 hc        1 FZZ      0.028867
     43 H7          1.8570   -5.3670   -5.1680 hc        1 FZZ      0.028867
     44 H8         -0.4420   -3.6450   -6.5350 hc        1 FZZ      0.028867
     45 H9          1.2350   -3.8860   -7.1760 hc        1 FZZ      0.028867
     46 H10         0.6160   -2.2110   -6.8770 hc        1 FZZ      0.028867
     47 H11         3.9340   -3.4980   -7.6200 hc        1 FZZ      0.029367
     48 H12         3.0000   -4.6700   -6.6020 hc        1 FZZ      0.029367
     49 H13         4.7900   -4.5270   -6.3990 hc        1 FZZ      0.029367
     50 H14         6.5200   -3.2860   -5.5810 hc        1 FZZ      0.032700
     51 H15         6.8280   -1.5030   -5.6850 hc        1 FZZ      0.032700
     52 H16         5.9730   -2.3560   -7.0370 hc        1 FZZ      0.032700
     53 H17         5.5620   -0.3930   -4.1550 ha        1 FZZ      0.139000
     54 H18         4.3810    1.5140   -4.3390 h1        1 FZZ      0.047700
     55 H19         5.1170    1.4170   -2.6670 h1        1 FZZ      0.047700
     56 H20         3.2290    3.0300   -1.8700 h1        1 FZZ      0.099700
     57 H21         2.7350    3.2130   -4.6420 ho        1 FZZ      0.410000
     58 H22         5.6380    3.4680   -3.6470 h1        1 FZZ      0.060700
     59 H23         7.4090    4.8420   -2.5320 ho        1 FZZ      0.434000
     60 H24         3.3570    5.5690   -3.6140 h1        1 FZZ      0.071700
     61 H25         4.9450    4.7260   -5.7750 ho        1 FZZ      0.430000
     62 H26         4.8910    7.2450   -4.3290 h1        1 FZZ      0.039700
     63 H27         5.7940    6.4590   -2.9350 h1        1 FZZ      0.039700
@<TRIPOS>BOND
     1    1    2 1   
     2    2    3 1   
     3    2    7 2   
     4    3    4 1   
     5    3   37 1   
     6    4    5 2   
     7    4    6 1   
     8    6   22 2   
     9    7    8 1   
    10    7   22 1   
    11    8    9 2   
    12    9   10 1   
    13    9   20 1   
    14   10   11 1   
    15   10   39 1   
    16   10   40 1   
    17   11   12 1   
    18   11   13 1   
    19   11   14 1   
    20   12   41 1   
    21   12   42 1   
    22   12   43 1   
    23   13   44 1   
    24   13   45 1   
    25   13   46 1   
    26   14   15 ar  
    27   14   20 ar  
    28   15   16 1   
    29   15   17 ar  
    30   16   47 1   
    31   16   48 1   
    32   16   49 1   
    33   17   18 1   
    34   17   19 ar  
    35   18   50 1   
    36   18   51 1   
    37   18   52 1   
    38   19   21 ar  
    39   19   53 1   
    40   20   21 ar  
    41   21   23 1   
    42   22   23 1   
    43   23   24 1   
    44   24   25 1   
    45   24   54 1   
    46   24   55 1   
    47   25   26 1   
    48   25   27 1   
    49   25   56 1   
    50   26   57 1   
    51   27   28 1   
    52   27   29 1   
    53   27   58 1   
    54   28   38 1   
    55   29   30 1   
    56   29   31 1   
    57   29   60 1   
    58   30   61 1   
    59   31   32 1   
    60   31   62 1   
    61   31   63 1   
    62   32   33 1   
    63   33   34 1   
    64   33   35 1   
    65   33   36 1   
    66   35   59 1   
@<TRIPOS>SUBSTRUCTURE
     1 FZZ         1 TEMP              0 ****  ****    0 ROOT
