@<TRIPOS>MOLECULE
S00
   78    74     1     0     0
SMALL
bcc


@<TRIPOS>ATOM
      1 C7         -5.1180   -0.5110    1.4060 c3        1 S00     -0.797000
      2 S8         -3.4200    0.0030    1.7380 s4        1 S00      2.020800
      3 C4         -5.7550   -1.0300    2.6990 c1        1 S00     -0.070000
      4 C5         -6.5470   -0.1880    3.4680 c1        1 S00     -0.123500
      5 C6         -7.0610   -0.6350    4.6930 c1        1 S00     -0.123500
      6 C1         -6.7780   -1.9140    5.1360 c1        1 S00     -0.123500
      7 C2         -5.9770   -2.7660    4.3600 c1        1 S00     -0.123500
      8 C3         -5.4690   -2.3250    3.1490 c1        1 S00     -0.107000
      9 O12        -3.3670    0.9870    2.8010 o         1 S00     -0.531400
     10 O13        -2.6560   -1.0680    2.3100 o         1 S00     -0.531400
     11 C15        -1.1660    3.7510   -0.0860 c3        1 S00     -0.097000
     12 C16        -0.5550    4.5830   -1.3120 c3        1 S00     -0.153000
     13 C17        -1.6210    5.0430   -2.3190 c3        1 S00     -0.154000
     14 C18        -2.8720    5.0240   -1.7690 c3        1 S00     -0.154000
     15 C19        -3.1790    5.4000   -0.4790 c3        1 S00     -0.154000
     16 C20        -2.1120    4.9460    0.5030 c3        1 S00     -0.153000
     17 N9         -2.6950    0.5900    0.3210 n2        1 S00     -0.889000
     18 C10        -1.5960    1.5240    0.4070 c3        1 S00      0.037000
     19 C14        -1.8750    2.7230   -0.4940 c3        1 S00     -0.172000
     20 C11        -0.3170    0.8460   -0.0350 c2        1 S00      0.293000
     21 O31        -0.0780    0.7240   -1.2100 o         1 S00     -0.394000
     22 N21         0.6920    0.4870    0.9510 n         1 S00     -0.309000
     23 C22         1.8980    0.0200    0.7000 c3        1 S00      0.006000
     24 C26         2.0060   -0.7860   -0.6150 c2        1 S00      0.295000
     25 O30         1.0520   -0.8680   -1.3530 o         1 S00     -0.374000
     26 C23         2.2060   -0.8430    2.0390 c3        1 S00     -0.166000
     27 C24         1.1330   -0.4590    3.0500 c3        1 S00     -0.168000
     28 C25         0.5460    0.5840    2.5550 c3        1 S00     -0.039000
     29 N27         3.2390   -1.5210   -0.9260 n         1 S00     -0.363000
     30 C28         4.0120   -1.1760   -2.1130 c3        1 S00      0.001000
     31 C29         4.9260   -2.3570   -2.4940 c2        1 S00     -0.093000
     32 C33         4.3780   -3.4990   -3.0550 c2        1 S00     -0.116000
     33 C34         5.2070   -4.4950   -3.5480 c1        1 S00     -0.116000
     34 C35         6.5930   -4.3470   -3.4790 c1        1 S00     -0.113000
     35 C37         7.5450   -5.5060   -4.0020 c2        1 S00      0.115000
     36 N38         7.9570   -5.5100   -5.2680 n1        1 S00     -0.304000
     37 N39         7.9660   -6.5490   -3.1080 n3        1 S00     -0.332000
     38 C36         7.1350   -3.2150   -2.9230 c1        1 S00     -0.097000
     39 C32         6.2980   -2.2120   -2.4260 c1        1 S00     -0.128000
     40 H7         -5.6290    0.2490    1.0740 h1        1 S00      0.151000
     41 H7A        -5.1180   -1.2010    0.7540 h1        1 S00      0.151000
     42 H5         -6.7440    0.7080    3.1580 ha        1 S00      0.138750
     43 H6         -7.6140   -0.0490    5.2280 ha        1 S00      0.138750
     44 H1         -7.1320   -2.2210    5.9800 ha        1 S00      0.138750
     45 H2         -5.7760   -3.6760    4.6750 ha        1 S00      0.138750
     46 H3         -4.9150   -2.9120    2.6140 ha        1 S00      0.134000
     47 H15        -0.4680    3.4870    0.5580 hc        1 S00      0.086000
     48 H16        -0.0980    5.3690   -0.9590 hc        1 S00      0.081500
     49 H16A        0.1080    4.0130   -1.7870 hc        1 S00      0.081500
     50 H17        -1.6040    4.4470   -3.0980 hc        1 S00      0.078500
     51 H17A       -1.4150    5.9470   -2.6070 hc        1 S00      0.078500
     52 H18        -3.4360    5.5840   -2.3580 hc        1 S00      0.079500
     53 H18A       -3.2000    4.0840   -1.8670 hc        1 S00      0.079500
     54 H19        -3.2570    6.3900   -0.4400 hc        1 S00      0.078500
     55 H19A       -4.0500    4.9950   -0.2210 hc        1 S00      0.078500
     56 H20        -2.5610    4.6180    1.3350 hc        1 S00      0.081500
     57 H20A       -1.5480    5.7090    0.7280 hc        1 S00      0.081500
     58 HN9        -3.0640    0.3940   -0.4940 hn        1 S00      0.257000
     59 H10        -1.4990    1.8290    1.3370 h1        1 S00      0.122000
     60 H14        -2.8210    2.9460   -0.4530 hc        1 S00      0.103500
     61 H14A       -1.6270    2.4990   -1.4350 hc        1 S00      0.103500
     62 H22         2.5560    0.7360    0.5560 h1        1 S00      0.122000
     63 H23         2.1550   -1.7900    1.8450 hc        1 S00      0.114000
     64 H23A        3.0800   -0.6190    2.3820 hc        1 S00      0.114000
     65 H24         0.4840   -1.1980    3.1580 hc        1 S00      0.100000
     66 H24A        1.5410   -0.2400    3.9090 hc        1 S00      0.100000
     67 H25        -0.3860    0.5860    2.8020 h1        1 S00      0.102500
     68 H25A        0.9780    1.3960    2.8810 h1        1 S00      0.102500
     69 HN27        3.5660   -2.1520   -0.3260 hn        1 S00      0.246000
     70 H28         3.4110   -0.9840   -2.8450 h1        1 S00      0.112000
     71 H28A        4.5530   -0.3960   -1.9290 h1        1 S00      0.112000
     72 H33         3.3930   -3.6030   -3.1040 ha        1 S00      0.144000
     73 H34         4.8140   -5.3150   -3.9510 ha        1 S00      0.139000
     74 HN38        7.6910   -4.8450   -5.8390 DU        1 S00      0.151000
     75 HN39        7.6330   -6.5850   -2.2640 hn        1 S00      0.193000
     76 HN3A        8.6310   -7.1320   -3.3640 hn        1 S00      0.193000
     77 H36         8.1150   -3.1100   -2.8750 ha        1 S00      0.149000
     78 H32         6.6820   -1.4100   -2.0320 ha        1 S00      0.138000
@<TRIPOS>BOND
     1    1    2 1   
     2    1    3 1   
     3    1   40 1   
     4    1   41 1   
     5    2    9 1   
     6    2   10 1   
     7    3    8 1   
     8    4    5 1   
     9    4   42 1   
    10    5   43 1   
    11    6    7 1   
    12    6   44 1   
    13    7   45 1   
    14    8   46 1   
    15   11   12 1   
    16   11   16 1   
    17   11   19 1   
    18   11   47 1   
    19   12   13 1   
    20   12   48 1   
    21   12   49 1   
    22   13   14 1   
    23   13   50 1   
    24   13   51 1   
    25   14   15 1   
    26   14   52 1   
    27   14   53 1   
    28   15   16 1   
    29   15   54 1   
    30   15   55 1   
    31   16   56 1   
    32   16   57 1   
    33   17   18 1   
    34   17   58 1   
    35   18   19 1   
    36   18   20 1   
    37   18   59 1   
    38   19   60 1   
    39   19   61 1   
    40   20   21 1   
    41   20   22 1   
    42   22   23 1   
    43   22   28 1   
    44   23   24 1   
    45   23   26 1   
    46   23   62 1   
    47   24   25 1   
    48   24   29 1   
    49   26   27 1   
    50   26   63 1   
    51   26   64 1   
    52   27   28 1   
    53   27   65 1   
    54   27   66 1   
    55   28   67 1   
    56   28   68 1   
    57   29   30 1   
    58   29   69 1   
    59   30   31 1   
    60   30   70 1   
    61   30   71 1   
    62   31   32 1   
    63   31   39 1   
    64   32   33 1   
    65   32   72 1   
    66   33   73 1   
    67   34   35 1   
    68   34   38 1   
    69   35   36 1   
    70   35   37 1   
    71   37   75 1   
    72   37   76 1   
    73   38   77 1   
    74   39   78 1   
@<TRIPOS>SUBSTRUCTURE
     1 S00         1 TEMP              0 ****  ****    0 ROOT
