@<TRIPOS>MOLECULE
S00
   78    81     1     0     0
SMALL
bcc


@<TRIPOS>ATOM
      1 C7         -3.9120   -1.4820   -0.4830 c3        1 S00     -0.252300
      2 S8         -2.3650   -1.4810    0.3030 s6        1 S00      1.448900
      3 C4         -4.7310   -2.6690   -0.1400 ca        1 S00     -0.073300
      4 C5         -5.0380   -3.6250   -1.1140 ca        1 S00     -0.115500
      5 C6         -5.8320   -4.7250   -0.7910 ca        1 S00     -0.126000
      6 C1         -6.3270   -4.8750    0.5040 ca        1 S00     -0.121000
      7 C2         -6.0230   -3.9240    1.4790 ca        1 S00     -0.126000
      8 C3         -5.2310   -2.8240    1.1610 ca        1 S00     -0.115500
      9 O12        -2.5790   -1.2470    1.6790 o         1 S00     -0.644300
     10 O13        -1.6550   -2.6330   -0.0730 o         1 S00     -0.644300
     11 C15        -3.6080    2.1930   -0.5450 c3        1 S00     -0.064700
     12 C16        -4.1080    3.3990   -1.3340 c3        1 S00     -0.078400
     13 C17        -5.6120    3.3640   -1.5000 c3        1 S00     -0.076900
     14 C18        -6.3120    3.2780   -0.1590 c3        1 S00     -0.077400
     15 C19        -5.8160    2.0920    0.6410 c3        1 S00     -0.076900
     16 C20        -4.3100    2.1210    0.8040 c3        1 S00     -0.078400
     17 N9         -1.6570   -0.1820   -0.3640 n3        1 S00     -0.913100
     18 C10        -1.4550    1.0750    0.2980 c3        1 S00      0.186500
     19 C14        -2.1000    2.2860   -0.3980 c3        1 S00     -0.092400
     20 C11         0.0630    1.4050    0.3670 c         1 S00      0.644100
     21 O31         0.7770    1.2640   -0.6490 o         1 S00     -0.626100
     22 N21         0.6080    1.8250    1.5600 n         1 S00     -0.453800
     23 C22         1.9890    2.2850    1.6580 c3        1 S00      0.031700
     24 C26         2.9980    1.1310    1.8820 c         1 S00      0.650100
     25 O30         3.7820    1.1440    2.8520 o         1 S00     -0.621100
     26 C23         2.0410    3.2940    2.8260 c3        1 S00     -0.088400
     27 C24         0.7130    3.1680    3.5640 c3        1 S00     -0.090400
     28 C25        -0.1780    2.2600    2.7030 c3        1 S00      0.084000
     29 N27         2.9860    0.1030    0.9680 n         1 S00     -0.548900
     30 C28         3.9370   -0.9750    1.0220 c3        1 S00      0.129300
     31 C29         5.1980   -0.7440    0.2360 ca        1 S00     -0.108300
     32 C33         5.4370   -1.4460   -0.9480 ca        1 S00     -0.123500
     33 C34         6.6240   -1.2490   -1.6540 ca        1 S00     -0.104000
     34 C35         7.5770   -0.3460   -1.1750 ca        1 S00     -0.139900
     35 C37         8.8530   -0.1410   -1.9330 ce        1 S00      0.651800
     36 N38         8.7850    0.1030   -3.2070 n2        1 S00     -0.827100
     37 N39        10.0150   -0.1710   -1.1300 nh        1 S00     -0.959800
     38 C36         7.3360    0.3690    0.0040 ca        1 S00     -0.104000
     39 C32         6.1500    0.1680    0.7060 ca        1 S00     -0.123500
     40 H7         -3.8050   -1.4220   -1.5990 h1        1 S00      0.114200
     41 H7A        -4.4970   -0.5650   -0.1870 h1        1 S00      0.114200
     42 H5         -4.6490   -3.5140   -2.1370 ha        1 S00      0.142000
     43 H6         -6.0650   -5.4750   -1.5600 ha        1 S00      0.135000
     44 H1         -6.9520   -5.7440    0.7580 ha        1 S00      0.134000
     45 H2         -6.4070   -4.0430    2.5030 ha        1 S00      0.135000
     46 H3         -4.9780   -2.0810    1.9350 ha        1 S00      0.142000
     47 H15        -3.8640    1.2670   -1.1320 hc        1 S00      0.047700
     48 H16A       -3.6190    3.4130   -2.3430 hc        1 S00      0.042950
     49 H17        -5.9490    4.2860   -2.0410 hc        1 S00      0.042450
     50 H17A       -5.8990    2.4800   -2.1280 hc        1 S00      0.042450
     51 H18        -6.1290    4.2220    0.4190 hc        1 S00      0.042200
     52 H18A       -7.4180    3.1890   -0.3170 hc        1 S00      0.042200
     53 H19        -6.2990    2.0910    1.6520 hc        1 S00      0.042450
     54 H19A       -6.1160    1.1410    0.1240 hc        1 S00      0.042450
     55 H20        -3.9840    1.2000    1.3560 hc        1 S00      0.042950
     56 H20A       -4.0160    3.0090    1.4240 hc        1 S00      0.042950
     57 HN9        -1.2050   -0.2270   -1.2500 hn        1 S00      0.463800
     58 H10        -1.8820    0.9820    1.3450 h1        1 S00      0.095700
     59 H14        -1.8420    3.1960    0.2070 hc        1 S00      0.059700
     60 H14A       -1.6380    2.4110   -1.4140 hc        1 S00      0.059700
     61 H22         2.2880    2.7850    0.6880 h1        1 S00      0.086700
     62 H23         2.9040    3.0740    3.5050 hc        1 S00      0.076200
     63 H23A        2.1740    4.3250    2.4170 hc        1 S00      0.076200
     64 H24         0.8620    2.7120    4.5730 hc        1 S00      0.059200
     65 H24A        0.2330    4.1670    3.7030 hc        1 S00      0.059200
     66 H25        -1.0930    2.8180    2.3600 h1        1 S00      0.053200
     67 H25A       -0.5120    1.3570    3.2870 h1        1 S00      0.053200
     68 HN27        2.4880    0.2250    0.1130 hn        1 S00      0.336500
     69 H28         4.2190   -1.1490    2.1020 h1        1 S00      0.069700
     70 H28A        3.4190   -1.9000    0.6350 h1        1 S00      0.069700
     71 H33         4.6890   -2.1570   -1.3290 ha        1 S00      0.146500
     72 H34         6.8020   -1.7940   -2.5930 ha        1 S00      0.145500
     73 HN38        9.6530    0.2330   -3.6820 hn        1 S00      0.381400
     74 HN39        9.9130   -0.6170   -0.2480 hn        1 S00      0.398800
     75 HN3A       10.8730   -0.3680   -1.5910 hn        1 S00      0.398800
     76 H36         8.0730    1.0980    0.3740 ha        1 S00      0.145500
     77 H32         5.9490    0.7260    1.6360 ha        1 S00      0.146500
     78 H16        -3.8100    4.3400   -0.8010 hc        1 S00      0.042950
@<TRIPOS>BOND
     1    1    2 1   
     2    1    3 1   
     3    1   40 1   
     4    1   41 1   
     5    2    9 2   
     6    2   10 2   
     7    2   17 1   
     8    3    4 ar  
     9    3    8 ar  
    10    4    5 ar  
    11    4   42 1   
    12    5    6 ar  
    13    5   43 1   
    14    6    7 ar  
    15    6   44 1   
    16    7    8 ar  
    17    7   45 1   
    18    8   46 1   
    19   11   12 1   
    20   11   16 1   
    21   11   19 1   
    22   11   47 1   
    23   12   13 1   
    24   12   48 1   
    25   12   78 1   
    26   13   14 1   
    27   13   49 1   
    28   13   50 1   
    29   14   15 1   
    30   14   51 1   
    31   14   52 1   
    32   15   16 1   
    33   15   53 1   
    34   15   54 1   
    35   16   55 1   
    36   16   56 1   
    37   17   18 1   
    38   17   57 1   
    39   18   19 1   
    40   18   20 1   
    41   18   58 1   
    42   19   59 1   
    43   19   60 1   
    44   20   21 2   
    45   20   22 1   
    46   22   23 1   
    47   22   28 1   
    48   23   24 1   
    49   23   26 1   
    50   23   61 1   
    51   24   25 2   
    52   24   29 1   
    53   26   27 1   
    54   26   62 1   
    55   26   63 1   
    56   27   28 1   
    57   27   64 1   
    58   27   65 1   
    59   28   66 1   
    60   28   67 1   
    61   29   30 1   
    62   29   68 1   
    63   30   31 1   
    64   30   69 1   
    65   30   70 1   
    66   31   32 ar  
    67   31   39 ar  
    68   32   33 ar  
    69   32   71 1   
    70   33   34 ar  
    71   33   72 1   
    72   34   35 1   
    73   34   38 ar  
    74   35   36 2   
    75   35   37 1   
    76   36   73 1   
    77   37   74 1   
    78   37   75 1   
    79   38   39 ar  
    80   38   76 1   
    81   39   77 1   
@<TRIPOS>SUBSTRUCTURE
     1 S00         1 TEMP              0 ****  ****    0 ROOT
