@<TRIPOS>MOLECULE
S01
   58    62     1     0     0
SMALL
bcc


@<TRIPOS>ATOM
      1 C1         -0.0370   -0.0460   -0.1060 ca        1 S01     -0.044800
      2 C2          1.3550   -0.1400   -0.1770 ca        1 S01     -0.104000
      3 C4          2.1070   -0.3030    0.9850 ca        1 S01     -0.129000
      4 C6          1.4600   -0.3680    2.2220 ca        1 S01      0.019400
      5 Cl7         2.3750   -0.5610    3.6430 cl        1 S01     -0.095400
      6 C8          0.0670   -0.2770    2.3070 ca        1 S01     -0.123000
      7 C10        -0.6840   -0.1190    1.1410 ca        1 S01     -0.061300
      8 C11        -2.1670   -0.0150    1.1730 c3        1 S01     -0.033100
      9 C14        -2.8500   -1.2610    0.6490 c3        1 S01     -0.025100
     10 C17        -2.5390   -1.7130   -0.7350 ca        1 S01     -0.162600
     11 C18        -1.6430   -1.1080   -1.6490 ca        1 S01      0.462100
     12 N19        -1.3990   -1.6360   -2.8820 nb        1 S01     -0.657000
     13 C20        -2.0450   -2.7500   -3.2410 ca        1 S01      0.392200
     14 C22        -2.9750   -3.4210   -2.4130 ca        1 S01     -0.184600
     15 C23        -3.6630   -4.6380   -2.8880 c3        1 S01     -0.050800
     16 C27        -3.2080   -2.8810   -1.1510 ca        1 S01     -0.108000
     17 C29        -0.8730    0.1100   -1.3040 ce        1 S01     -0.141000
     18 C30        -0.9260    1.2510   -2.0210 c2        1 S01     -0.058400
     19 C31        -1.8080    1.4340   -3.2080 c3        1 S01     -0.074700
     20 C34        -2.4890    2.8060   -3.2350 c3        1 S01      0.081000
     21 N37        -1.6090    3.9230   -2.9550 n         1 S01     -0.458800
     22 C38        -0.8310    3.7450   -1.7510 c3        1 S01      0.081000
     23 C41        -0.0610    2.4220   -1.6960 c3        1 S01     -0.074700
     24 C44        -1.1940    4.7470   -4.0050 c         1 S01      0.652100
     25 O45        -1.7350    4.6470   -5.1220 o         1 S01     -0.584100
     26 C46        -0.1430    5.8090   -3.7180 c3        1 S01     -0.108100
     27 C49         0.0570    6.7450   -4.8570 ca        1 S01     -0.032300
     28 C50        -0.6930    7.9230   -4.9550 ca        1 S01     -0.230800
     29 C52        -0.4440    8.7920   -6.0330 ca        1 S01      0.395200
     30 N54         0.4820    8.5560   -6.9820 nb        1 S01     -0.662000
     31 C55         1.1950    7.4180   -6.8760 ca        1 S01      0.395200
     32 C57         1.0230    6.4860   -5.8370 ca        1 S01     -0.230800
     33 H2          1.8570   -0.0920   -1.1550 ha        1 S01      0.146000
     34 H4          3.2030   -0.3820    0.9250 ha        1 S01      0.149000
     35 H8         -0.4350   -0.3300    3.2850 ha        1 S01      0.148000
     36 H111       -2.5180    0.1600    2.2260 hc        1 S01      0.055700
     37 H112       -2.4850    0.8730    0.5620 hc        1 S01      0.055700
     38 H141       -2.6070   -2.1150    1.3450 hc        1 S01      0.054200
     39 H142       -3.9620   -1.0920    0.7140 hc        1 S01      0.054200
     40 H20        -1.8090   -3.1390   -4.2480 h4        1 S01      0.024100
     41 H231       -2.9400   -5.3270   -3.3910 hc        1 S01      0.048367
     42 H232       -4.4580   -4.3650   -3.6280 hc        1 S01      0.048367
     43 H233       -4.1450   -5.1860   -2.0420 hc        1 S01      0.048367
     44 H27        -3.9170   -3.3700   -0.4650 ha        1 S01      0.137000
     45 H311       -1.1860    1.2980   -4.1350 hc        1 S01      0.066950
     46 H312       -2.6230    0.6640   -3.2350 hc        1 S01      0.066950
     47 H341       -2.9700    2.9510   -4.2440 h1        1 S01      0.060950
     48 H342       -3.3000    2.8240   -2.4510 h1        1 S01      0.060950
     49 H381       -0.1040    4.5910   -1.6110 h1        1 S01      0.060950
     50 H382       -1.5540    3.7730   -0.8840 h1        1 S01      0.060950
     51 H411        0.7860    2.4450   -2.4350 hc        1 S01      0.066950
     52 H412        0.3890    2.3240   -0.6720 hc        1 S01      0.066950
     53 H461       -0.4510    6.3960   -2.8100 hc        1 S01      0.073700
     54 H462        0.8270    5.2890   -3.4870 hc        1 S01      0.073700
     55 H50        -1.4660    8.1650   -4.2150 ha        1 S01      0.142500
     56 H52        -1.0190    9.7280   -6.1450 h4        1 S01      0.022100
     57 H55         1.9440    7.2450   -7.6690 h4        1 S01      0.022100
     58 H57         1.6280    5.5710   -5.8080 ha        1 S01      0.142500
@<TRIPOS>BOND
     1    1    2 ar  
     2    1    7 ar  
     3    1   17 1   
     4    2    3 ar  
     5    2   33 1   
     6    3    4 ar  
     7    3   34 1   
     8    4    5 1   
     9    4    6 ar  
    10    6    7 ar  
    11    6   35 1   
    12    7    8 1   
    13    8    9 1   
    14    8   36 1   
    15    8   37 1   
    16    9   10 1   
    17    9   38 1   
    18    9   39 1   
    19   10   11 ar  
    20   10   16 ar  
    21   11   12 ar  
    22   11   17 1   
    23   12   13 ar  
    24   13   14 ar  
    25   13   40 1   
    26   14   15 1   
    27   14   16 ar  
    28   15   41 1   
    29   15   42 1   
    30   15   43 1   
    31   16   44 1   
    32   17   18 2   
    33   18   19 1   
    34   18   23 1   
    35   19   20 1   
    36   19   45 1   
    37   19   46 1   
    38   20   21 1   
    39   20   47 1   
    40   20   48 1   
    41   21   22 1   
    42   21   24 1   
    43   22   23 1   
    44   22   49 1   
    45   22   50 1   
    46   23   51 1   
    47   23   52 1   
    48   24   25 2   
    49   24   26 1   
    50   26   27 1   
    51   26   53 1   
    52   26   54 1   
    53   27   28 ar  
    54   27   32 ar  
    55   28   29 ar  
    56   28   55 1   
    57   29   30 ar  
    58   29   56 1   
    59   30   31 ar  
    60   31   32 ar  
    61   31   57 1   
    62   32   58 1   
@<TRIPOS>SUBSTRUCTURE
     1 S01         1 TEMP              0 ****  ****    0 ROOT
