@<TRIPOS>MOLECULE
S01
   58    62     1     0     0
SMALL
bcc


@<TRIPOS>ATOM
      1 C1         -0.0360   -0.0470   -0.1080 ca        1 S01     -0.044800
      2 C2          1.3560   -0.1410   -0.1780 ca        1 S01     -0.104000
      3 C4          2.1080   -0.3040    0.9840 ca        1 S01     -0.129000
      4 C6          1.4600   -0.3710    2.2200 ca        1 S01      0.019400
      5 CL7         2.3750   -0.5650    3.6410 cl        1 S01     -0.095400
      6 C8          0.0670   -0.2820    2.3050 ca        1 S01     -0.123000
      7 C10        -0.6830   -0.1240    1.1390 ca        1 S01     -0.061300
      8 C11        -2.1660   -0.0210    1.1700 c3        1 S01     -0.033100
      9 C14        -2.8480   -1.2670    0.6450 c3        1 S01     -0.025100
     10 C17        -2.5360   -1.7160   -0.7400 ca        1 S01     -0.162600
     11 C18        -1.6400   -1.1100   -1.6520 ca        1 S01      0.462100
     12 N19        -1.3960   -1.6360   -2.8870 nb        1 S01     -0.657000
     13 C20        -2.0400   -2.7500   -3.2470 ca        1 S01      0.392200
     14 C22        -2.9700   -3.4220   -2.4200 ca        1 S01     -0.184600
     15 C23        -3.6560   -4.6400   -2.8970 c3        1 S01     -0.050800
     16 C27        -3.2040   -2.8850   -1.1580 ca        1 S01     -0.108000
     17 C29        -0.8720    0.1090   -1.3050 ce        1 S01     -0.141000
     18 C30        -0.9260    1.2510   -2.0220 c2        1 S01     -0.058400
     19 C31        -1.8070    1.4340   -3.2090 c3        1 S01     -0.074700
     20 C34        -2.4890    2.8060   -3.2350 c3        1 S01      0.081000
     21 N37        -1.6090    3.9230   -2.9530 n         1 S01     -0.458800
     22 C38        -0.8330    3.7450   -1.7490 c3        1 S01      0.081000
     23 C41        -0.0610    2.4220   -1.6950 c3        1 S01     -0.074700
     24 C44        -1.1940    4.7480   -4.0030 c         1 S01      0.652100
     25 O45        -1.7340    4.6490   -5.1200 o         1 S01     -0.584100
     26 C46        -0.1420    5.8090   -3.7150 c3        1 S01     -0.108100
     27 C49         0.0620    6.7440   -4.8530 ca        1 S01     -0.032300
     28 C50        -0.6930    7.9190   -4.9580 ca        1 S01     -0.230800
     29 C52        -0.4410    8.7870   -6.0360 ca        1 S01      0.395200
     30 N54         0.4920    8.5540   -6.9790 nb        1 S01     -0.662000
     31 C55         1.2090    7.4190   -6.8660 ca        1 S01      0.395200
     32 C57         1.0340    6.4870   -5.8280 ca        1 S01     -0.230800
     33 H2          1.8580   -0.0910   -1.1560 ha        1 S01      0.146000
     34 H4          3.2040   -0.3820    0.9240 ha        1 S01      0.149000
     35 H8         -0.4350   -0.3370    3.2820 ha        1 S01      0.148000
     36 H111       -2.5180    0.1520    2.2230 hc        1 S01      0.055700
     37 H112       -2.4850    0.8680    0.5600 hc        1 S01      0.055700
     38 H141       -2.6050   -2.1210    1.3390 hc        1 S01      0.054200
     39 H142       -3.9610   -1.0980    0.7100 hc        1 S01      0.054200
     40 H20        -1.8030   -3.1370   -4.2550 h4        1 S01      0.024100
     41 H231       -4.1410   -5.1880   -2.0520 hc        1 S01      0.048367
     42 H232       -4.4490   -4.3680   -3.6400 hc        1 S01      0.048367
     43 H233       -2.9320   -5.3290   -3.3980 hc        1 S01      0.048367
     44 H27        -3.9120   -3.3760   -0.4720 ha        1 S01      0.137000
     45 H311       -2.6220    0.6640   -3.2370 hc        1 S01      0.066950
     46 H312       -1.1850    1.3000   -4.1350 hc        1 S01      0.066950
     47 H341       -3.3000    2.8230   -2.4510 h1        1 S01      0.060950
     48 H342       -2.9700    2.9520   -4.2440 h1        1 S01      0.060950
     49 H381       -0.1060    4.5910   -1.6080 h1        1 S01      0.060950
     50 H382       -1.5560    3.7710   -0.8820 h1        1 S01      0.060950
     51 H411        0.7860    2.4460   -2.4330 hc        1 S01      0.066950
     52 H412        0.3880    2.3230   -0.6710 hc        1 S01      0.066950
     53 H461       -0.4510    6.3970   -2.8070 hc        1 S01      0.073700
     54 H462        0.8270    5.2880   -3.4820 hc        1 S01      0.073700
     55 H50        -1.4720    8.1580   -4.2240 ha        1 S01      0.142500
     56 H52        -1.0190    9.7200   -6.1530 h4        1 S01      0.022100
     57 H55         1.9640    7.2470   -7.6550 h4        1 S01      0.022100
     58 H57         1.6430    5.5750   -5.7930 ha        1 S01      0.142500
@<TRIPOS>BOND
     1    1    2 ar  
     2    1    7 ar  
     3    1   17 1   
     4    2    3 ar  
     5    2   33 1   
     6    3    4 ar  
     7    3   34 1   
     8    4    5 1   
     9    4    6 ar  
    10    6    7 ar  
    11    6   35 1   
    12    7    8 1   
    13    8    9 1   
    14    8   36 1   
    15    8   37 1   
    16    9   10 1   
    17    9   38 1   
    18    9   39 1   
    19   10   11 ar  
    20   10   16 ar  
    21   11   12 ar  
    22   11   17 1   
    23   12   13 ar  
    24   13   14 ar  
    25   13   40 1   
    26   14   15 1   
    27   14   16 ar  
    28   15   41 1   
    29   15   42 1   
    30   15   43 1   
    31   16   44 1   
    32   17   18 2   
    33   18   19 1   
    34   18   23 1   
    35   19   20 1   
    36   19   45 1   
    37   19   46 1   
    38   20   21 1   
    39   20   47 1   
    40   20   48 1   
    41   21   22 1   
    42   21   24 1   
    43   22   23 1   
    44   22   49 1   
    45   22   50 1   
    46   23   51 1   
    47   23   52 1   
    48   24   25 2   
    49   24   26 1   
    50   26   27 1   
    51   26   53 1   
    52   26   54 1   
    53   27   28 ar  
    54   27   32 ar  
    55   28   29 ar  
    56   28   55 1   
    57   29   30 ar  
    58   29   56 1   
    59   30   31 ar  
    60   31   32 ar  
    61   31   57 1   
    62   32   58 1   
@<TRIPOS>SUBSTRUCTURE
     1 S01         1 TEMP              0 ****  ****    0 ROOT
