@<TRIPOS>MOLECULE
S01
   58    62     1     0     0
SMALL
bcc


@<TRIPOS>ATOM
      1 C1         -0.7530   -0.3780   -2.3950 ca        1 S01     -0.044800
      2 C2         -1.5370   -1.5330   -2.3650 ca        1 S01     -0.104000
      3 C4         -2.6820   -1.6250   -3.1560 ca        1 S01     -0.129000
      4 C6         -3.0410   -0.5520   -3.9760 ca        1 S01      0.019400
      5 CL7        -4.4390   -0.6570   -4.9380 cl        1 S01     -0.095400
      6 C8         -2.2630    0.6100   -4.0160 ca        1 S01     -0.123000
      7 C10        -1.1150    0.6960   -3.2280 ca        1 S01     -0.061300
      8 C11        -0.2530    1.9080   -3.2300 c3        1 S01     -0.033100
      9 C14         1.0630    1.6860   -3.9450 c3        1 S01     -0.025100
     10 C17         1.9560    0.5940   -3.4670 ca        1 S01     -0.162600
     11 C18         1.7130   -0.2990   -2.3970 ca        1 S01      0.462100
     12 N19         2.5860   -1.2950   -2.0710 nb        1 S01     -0.657000
     13 C20         3.7140   -1.4150   -2.7780 ca        1 S01      0.392200
     14 C22         4.0610   -0.5650   -3.8540 ca        1 S01     -0.184600
     15 C23         5.3250   -0.7630   -4.5900 c3        1 S01     -0.050800
     16 C27         3.1590    0.4430   -4.1850 ca        1 S01     -0.108000
     17 C29         0.4700   -0.2420   -1.5930 ce        1 S01     -0.141000
     18 C30         0.4580   -0.0860   -0.2520 c2        1 S01     -0.058400
     19 C31         1.6900    0.1020    0.5630 c3        1 S01     -0.074700
     20 C34         1.5250    1.1710    1.6490 c3        1 S01      0.081000
     21 N37         0.2990    1.0700    2.4150 n         1 S01     -0.458800
     22 C38        -0.8810    0.9740    1.5890 c3        1 S01      0.081000
     23 C41        -0.8120   -0.1320    0.5300 c3        1 S01     -0.074700
     24 C44         0.3480    0.5710    3.7200 c         1 S01      0.652100
     25 O45         1.4470    0.4130    4.2830 o         1 S01     -0.584100
     26 C46        -0.9660    0.3160    4.4450 c3        1 S01     -0.108100
     27 C49        -0.7750   -0.0180    5.8820 ca        1 S01     -0.032300
     28 C50        -0.7570    0.9900    6.8540 ca        1 S01     -0.230800
     29 C52        -0.6070    0.6220    8.2030 ca        1 S01      0.395200
     30 N54        -0.4820   -0.6530    8.6190 nb        1 S01     -0.662000
     31 C55        -0.5000   -1.6120    7.6730 ca        1 S01      0.395200
     32 C57        -0.6450   -1.3480    6.2990 ca        1 S01     -0.230800
     33 H2         -1.2460   -2.3760   -1.7200 ha        1 S01      0.146000
     34 H4         -3.2950   -2.5390   -3.1340 ha        1 S01      0.149000
     35 H8         -2.5520    1.4500   -4.6660 ha        1 S01      0.148000
     36 H111       -0.0560    2.2190   -2.1670 hc        1 S01      0.055700
     37 H112       -0.7850    2.7590   -3.7340 hc        1 S01      0.055700
     38 H141        1.6430    2.6500   -3.8970 hc        1 S01      0.054200
     39 H142        0.8440    1.4890   -5.0330 hc        1 S01      0.054200
     40 H20         4.3860   -2.2380   -2.4740 h4        1 S01      0.024100
     41 H231        5.2420   -1.6540   -5.2630 hc        1 S01      0.048367
     42 H232        5.5710    0.1280   -5.2190 hc        1 S01      0.048367
     43 H233        6.1710   -0.9400   -3.8800 hc        1 S01      0.048367
     44 H27         3.3800    1.1280   -5.0180 ha        1 S01      0.137000
     45 H311        1.9550   -0.8830    1.0350 hc        1 S01      0.066700
     46 H312        2.5580    0.4140   -0.0740 hc        1 S01      0.066700
     47 H341        2.4090    1.1180    2.3460 h1        1 S01      0.060950
     48 H342        1.5220    2.1880    1.1590 h1        1 S01      0.060950
     49 H381       -1.8010    0.8160    2.2150 h1        1 S01      0.060950
     50 H382       -0.9960    1.9660    1.0610 h1        1 S01      0.060950
     51 H411       -1.7070   -0.0270   -0.1400 hc        1 S01      0.066700
     52 H412       -0.8790   -1.1380    1.0270 hc        1 S01      0.066700
     53 H461       -1.6150    1.2300    4.3620 hc        1 S01      0.073700
     54 H462       -1.4910   -0.5360    3.9310 hc        1 S01      0.073700
     55 H50        -0.8470    2.0470    6.5750 ha        1 S01      0.142500
     56 H52        -0.5840    1.3900    8.9970 h4        1 S01      0.022100
     57 H55        -0.3900   -2.6490    8.0380 h4        1 S01      0.022100
     58 H57        -0.6440   -2.1710    5.5730 ha        1 S01      0.142500
@<TRIPOS>BOND
     1    1    2 ar  
     2    1    7 ar  
     3    1   17 1   
     4    2    3 ar  
     5    2   33 1   
     6    3    4 ar  
     7    3   34 1   
     8    4    5 1   
     9    4    6 ar  
    10    6    7 ar  
    11    6   35 1   
    12    7    8 1   
    13    8    9 1   
    14    8   36 1   
    15    8   37 1   
    16    9   10 1   
    17    9   38 1   
    18    9   39 1   
    19   10   11 ar  
    20   10   16 ar  
    21   11   12 ar  
    22   11   17 1   
    23   12   13 ar  
    24   13   14 ar  
    25   13   40 1   
    26   14   15 1   
    27   14   16 ar  
    28   15   41 1   
    29   15   42 1   
    30   15   43 1   
    31   16   44 1   
    32   17   18 2   
    33   18   19 1   
    34   18   23 1   
    35   19   20 1   
    36   19   45 1   
    37   19   46 1   
    38   20   21 1   
    39   20   47 1   
    40   20   48 1   
    41   21   22 1   
    42   21   24 1   
    43   22   23 1   
    44   22   49 1   
    45   22   50 1   
    46   23   51 1   
    47   23   52 1   
    48   24   25 2   
    49   24   26 1   
    50   26   27 1   
    51   26   53 1   
    52   26   54 1   
    53   27   28 ar  
    54   27   32 ar  
    55   28   29 ar  
    56   28   55 1   
    57   29   30 ar  
    58   29   56 1   
    59   30   31 ar  
    60   31   32 ar  
    61   31   57 1   
    62   32   58 1   
@<TRIPOS>SUBSTRUCTURE
     1 S01         1 TEMP              0 ****  ****    0 ROOT
