@<TRIPOS>MOLECULE
S01
   58    62     1     0     0
SMALL
bcc


@<TRIPOS>ATOM
      1 C1         -0.0400   -0.0450   -0.1050 ca        1 S01     -0.044800
      2 C2          1.3520   -0.1390   -0.1760 ca        1 S01     -0.104000
      3 C4          2.1050   -0.3020    0.9870 ca        1 S01     -0.129000
      4 C6          1.4570   -0.3680    2.2230 ca        1 S01      0.019400
      5 CL7         2.3710   -0.5610    3.6450 cl        1 S01     -0.095400
      6 C8          0.0630   -0.2780    2.3070 ca        1 S01     -0.123000
      7 C10        -0.6870   -0.1200    1.1420 ca        1 S01     -0.061300
      8 C11        -2.1700   -0.0170    1.1720 c3        1 S01     -0.033100
      9 C14        -2.8520   -1.2620    0.6480 c3        1 S01     -0.025100
     10 C17        -2.5400   -1.7130   -0.7360 ca        1 S01     -0.162600
     11 C18        -1.6440   -1.1080   -1.6490 ca        1 S01      0.462100
     12 N19        -1.3990   -1.6350   -2.8830 nb        1 S01     -0.657000
     13 C20        -2.0440   -2.7490   -3.2430 ca        1 S01      0.392200
     14 C22        -2.9740   -3.4210   -2.4150 ca        1 S01     -0.184600
     15 C23        -3.6610   -4.6380   -2.8910 c3        1 S01     -0.050800
     16 C27        -3.2080   -2.8820   -1.1530 ca        1 S01     -0.108000
     17 C29        -0.8740    0.1100   -1.3030 ce        1 S01     -0.141000
     18 C30        -0.9280    1.2520   -2.0210 c2        1 S01     -0.058400
     19 C31        -1.8080    1.4350   -3.2080 c3        1 S01     -0.074700
     20 C34        -2.4900    2.8070   -3.2350 c3        1 S01      0.081000
     21 N37        -1.6090    3.9240   -2.9550 n         1 S01     -0.458800
     22 C38        -0.8330    3.7460   -1.7500 c3        1 S01      0.081000
     23 C41        -0.0620    2.4230   -1.6950 c3        1 S01     -0.074700
     24 C44        -1.1940    4.7480   -4.0050 c         1 S01      0.652100
     25 O45        -1.7340    4.6490   -5.1220 o         1 S01     -0.584100
     26 C46        -0.1420    5.8090   -3.7170 c3        1 S01     -0.108100
     27 C49         0.0600    6.7440   -4.8560 ca        1 S01     -0.032300
     28 C50        -0.6920    7.9210   -4.9580 ca        1 S01     -0.230800
     29 C52        -0.4410    8.7890   -6.0350 ca        1 S01      0.395200
     30 N54         0.4890    8.5550   -6.9810 nb        1 S01     -0.662000
     31 C55         1.2040    7.4190   -6.8710 ca        1 S01      0.395200
     32 C57         1.0300    6.4870   -5.8330 ca        1 S01     -0.230800
     33 H2          1.8550   -0.0900   -1.1530 ha        1 S01      0.146000
     34 H4          3.2010   -0.3800    0.9270 ha        1 S01      0.149000
     35 H8         -0.4390   -0.3320    3.2850 ha        1 S01      0.148000
     36 H111       -2.4880    0.8720    0.5620 hc        1 S01      0.055700
     37 H112       -2.5220    0.1580    2.2250 hc        1 S01      0.055700
     38 H141       -2.6100   -2.1160    1.3430 hc        1 S01      0.054200
     39 H142       -3.9640   -1.0930    0.7120 hc        1 S01      0.054200
     40 H20        -1.8070   -3.1380   -4.2500 h4        1 S01      0.024100
     41 H231       -4.1480   -5.1840   -2.0470 hc        1 S01      0.048367
     42 H232       -2.9360   -5.3300   -3.3890 hc        1 S01      0.048367
     43 H233       -4.4510   -4.3670   -3.6360 hc        1 S01      0.048367
     44 H27        -3.9170   -3.3720   -0.4680 ha        1 S01      0.137000
     45 H311       -2.6230    0.6650   -3.2360 hc        1 S01      0.066950
     46 H312       -1.1860    1.2990   -4.1340 hc        1 S01      0.066950
     47 H341       -2.9700    2.9520   -4.2450 h1        1 S01      0.060950
     48 H342       -3.3010    2.8250   -2.4520 h1        1 S01      0.060950
     49 H381       -1.5570    3.7740   -0.8830 h1        1 S01      0.060950
     50 H382       -0.1060    4.5920   -1.6100 h1        1 S01      0.060950
     51 H411        0.7850    2.4450   -2.4330 hc        1 S01      0.066950
     52 H412        0.3870    2.3250   -0.6710 hc        1 S01      0.066950
     53 H461        0.8280    5.2890   -3.4850 hc        1 S01      0.073700
     54 H462       -0.4510    6.3970   -2.8090 hc        1 S01      0.073700
     55 H50        -1.4690    8.1620   -4.2200 ha        1 S01      0.142500
     56 H52        -1.0180    9.7240   -6.1500 h4        1 S01      0.022100
     57 H55         1.9560    7.2460   -7.6620 h4        1 S01      0.022100
     58 H57         1.6370    5.5730   -5.8000 ha        1 S01      0.142500
@<TRIPOS>BOND
     1    1    2 ar  
     2    1    7 ar  
     3    1   17 1   
     4    2    3 ar  
     5    2   33 1   
     6    3    4 ar  
     7    3   34 1   
     8    4    5 1   
     9    4    6 ar  
    10    6    7 ar  
    11    6   35 1   
    12    7    8 1   
    13    8    9 1   
    14    8   36 1   
    15    8   37 1   
    16    9   10 1   
    17    9   38 1   
    18    9   39 1   
    19   10   11 ar  
    20   10   16 ar  
    21   11   12 ar  
    22   11   17 1   
    23   12   13 ar  
    24   13   14 ar  
    25   13   40 1   
    26   14   15 1   
    27   14   16 ar  
    28   15   41 1   
    29   15   42 1   
    30   15   43 1   
    31   16   44 1   
    32   17   18 2   
    33   18   19 1   
    34   18   23 1   
    35   19   20 1   
    36   19   45 1   
    37   19   46 1   
    38   20   21 1   
    39   20   47 1   
    40   20   48 1   
    41   21   22 1   
    42   21   24 1   
    43   22   23 1   
    44   22   49 1   
    45   22   50 1   
    46   23   51 1   
    47   23   52 1   
    48   24   25 2   
    49   24   26 1   
    50   26   27 1   
    51   26   53 1   
    52   26   54 1   
    53   27   28 ar  
    54   27   32 ar  
    55   28   29 ar  
    56   28   55 1   
    57   29   30 ar  
    58   29   56 1   
    59   30   31 ar  
    60   31   32 ar  
    61   31   57 1   
    62   32   58 1   
@<TRIPOS>SUBSTRUCTURE
     1 S01         1 TEMP              0 ****  ****    0 ROOT
