@<TRIPOS>MOLECULE
S02
   55    56     1     0     0
SMALL
bcc


@<TRIPOS>ATOM
      1 P          -2.4380    0.8390   -4.7740 p5        1 S02      1.327900
      2 O1P        -1.9140    2.2210   -5.0490 o         1 S02     -0.925167
      3 O2P        -2.3740    0.4470   -3.3080 o         1 S02     -0.925167
      4 O3P        -3.6480    0.3800   -5.5270 o         1 S02     -0.925167
      5 O5'        -1.1830   -0.1600   -5.4390 os        1 S02     -0.578200
      6 C5'         0.0760    0.3810   -5.4900 c3        1 S02      0.196400
      7 CA'         1.1190   -0.6020   -4.9230 c3        1 S02      0.101400
      8 OB'         1.5400   -0.3260   -3.5850 os        1 S02     -0.461600
      9 C1A         0.4500   -0.2380   -2.6720 c3        1 S02      0.069100
     10 C6A         0.2490   -1.5490   -1.9180 c3        1 S02     -0.059400
     11 C2A         0.7180    0.8870   -1.6790 c3        1 S02     -0.059400
     12 C3A        -0.5140    1.0370   -0.7990 c3        1 S02     -0.097700
     13 C4A        -0.8510   -0.2400   -0.1160 c2        1 S02      0.057600
     14 C7A        -1.0720   -0.4010    1.2110 ce        1 S02     -0.288000
     15 C5A        -0.9930   -1.3910   -1.0560 c3        1 S02     -0.097700
     16 C1B        -0.4940    0.1970    6.3510 c3        1 S02      0.146100
     17 C6B        -0.4170   -0.9960    5.4090 c3        1 S02     -0.084400
     18 C2B        -0.1680    1.4890    5.6090 c3        1 S02     -0.084400
     19 C3B        -1.1130    1.6730    4.4380 c3        1 S02     -0.014200
     20 C4B        -1.1350    0.4860    3.5350 c2        1 S02     -0.236400
     21 C7B        -1.0140    0.6370    2.2000 ce        1 S02     -0.020000
     22 C5B        -1.3510   -0.8110    4.2260 c3        1 S02     -0.014200
     23 C3'         1.1640   -0.7410    9.4960 c3        1 S02      0.131400
     24 O3'         0.9010    0.4740   10.1690 oh        1 S02     -0.613800
     25 H5'1        0.1240    1.3640   -4.9420 h1        1 S02      0.004200
     26 H5'2        0.3770    0.5600   -6.5690 h1        1 S02      0.004200
     27 HA1         2.0800   -0.5380   -5.5030 h1        1 S02      0.007200
     28 HA2         0.7200   -1.6490   -4.9670 h1        1 S02      0.007200
     29 H1A        -0.5360    0.0010   -3.2190 h1        1 S02      0.195700
     30 H6A1        1.1430   -1.8000   -1.2940 hc        1 S02      0.021200
     31 H6A2        0.0960   -2.3800   -2.6520 hc        1 S02      0.021200
     32 H2A1        1.6280    0.6730   -1.0630 hc        1 S02      0.021200
     33 H2A2        0.8940    1.8390   -2.2410 hc        1 S02      0.021200
     34 H3A1       -1.3930    1.2750   -1.4920 hc        1 S02      0.090950
     35 H3A2       -0.3670    1.8810   -0.0830 hc        1 S02      0.090950
     36 H7A        -1.3420   -1.4080    1.5720 ha        1 S02      0.103000
     37 H5A1       -1.2150   -2.3430   -0.5110 hc        1 S02      0.090950
     38 H5A2       -1.8610   -1.1360   -1.7520 hc        1 S02      0.090950
     39 H1B        -1.5220    0.2600    6.8080 h1        1 S02      0.030700
     40 H6B1        0.6380   -1.1110    5.0490 hc        1 S02      0.040950
     41 H6B2       -0.6940   -1.9320    5.9600 hc        1 S02      0.040950
     42 H2B1       -0.2510    2.3540    6.3150 hc        1 S02      0.040950
     43 H2B2        0.8910    1.4440    5.2460 hc        1 S02      0.040950
     44 H3B1       -2.1530    1.8500    4.8300 hc        1 S02      0.036950
     45 H3B2       -0.8110    2.5950    3.8740 hc        1 S02      0.036950
     46 H7B        -0.8660    1.6630    1.8090 ha        1 S02      0.117000
     47 H5B1       -2.4150   -0.8570    4.5890 hc        1 S02      0.036950
     48 H5B2       -1.2020   -1.6720    3.5220 hc        1 S02      0.036950
     49 HD'1        0.4250   -1.9440    7.8300 h1        1 S02      0.034700
     50 HD'2       -0.8520   -0.9250    8.6610 h1        1 S02      0.034700
     51 H3'1        2.2280   -0.7520    9.1370 h1        1 S02      0.044200
     52 H3'2        1.0110   -1.5430   10.2650 h1        1 S02      0.044200
     53 HO3'        0.8750    1.1660    9.4950 ho        1 S02      0.418000
     54 OC'         0.4740    0.1020    7.4080 os        1 S02     -0.444600
     55 CD'         0.2160   -0.9570    8.3200 c3        1 S02      0.091400
@<TRIPOS>BOND
     1    1    2 1   
     2    1    3 1   
     3    1    4 1   
     4    1    5 1   
     5    5    6 1   
     6    6    7 1   
     7    6   25 1   
     8    6   26 1   
     9    7    8 1   
    10    7   27 1   
    11    7   28 1   
    12    8    9 1   
    13    9   10 1   
    14    9   11 1   
    15    9   29 1   
    16   10   15 1   
    17   10   30 1   
    18   10   31 1   
    19   11   12 1   
    20   11   32 1   
    21   11   33 1   
    22   12   13 1   
    23   12   34 1   
    24   12   35 1   
    25   13   14 2   
    26   13   15 1   
    27   14   21 1   
    28   14   36 1   
    29   15   37 1   
    30   15   38 1   
    31   16   17 1   
    32   16   18 1   
    33   16   39 1   
    34   16   54 1   
    35   17   22 1   
    36   17   40 1   
    37   17   41 1   
    38   18   19 1   
    39   18   42 1   
    40   18   43 1   
    41   19   20 1   
    42   19   44 1   
    43   19   45 1   
    44   20   21 2   
    45   20   22 1   
    46   21   46 1   
    47   22   47 1   
    48   22   48 1   
    49   23   24 1   
    50   23   51 1   
    51   23   52 1   
    52   23   55 1   
    53   24   53 1   
    54   49   55 1   
    55   50   55 1   
    56   54   55 1   
@<TRIPOS>SUBSTRUCTURE
     1 S02         1 TEMP              0 ****  ****    0 ROOT
