@<TRIPOS>MOLECULE
S03
   60    64     1     0     0
SMALL
bcc


@<TRIPOS>ATOM
      1 N33        -0.3130   -0.7810   -0.1090 n4        1 S03     -0.827300
      2 C1          1.1530   -0.6360   -0.0060 ca        1 S03      0.508200
      3 N6          1.7330   -0.8260    1.2050 nb        1 S03     -0.692000
      4 C5          3.0880   -0.6640    1.2580 ca        1 S03      0.660900
      5 C2          1.8850   -0.3020   -1.1560 ca        1 S03     -0.276400
      6 C9          1.6280   -0.0400   -2.5430 cc        1 S03     -0.110400
      7 C10         0.3400   -0.0820   -3.2030 ca        1 S03     -0.034800
      8 C11        -0.3450   -1.3040   -3.3300 ca        1 S03     -0.221000
      9 C12        -1.5750   -1.3490   -3.9820 ca        1 S03     -0.082000
     10 C13        -2.1490   -0.1900   -4.5030 ca        1 S03     -0.195000
     11 C14        -1.4660    1.0270   -4.3760 ca        1 S03      0.148100
     12 O16        -1.9270    2.2360   -4.8380 os        1 S03     -0.315900
     13 C17        -3.1250    2.2080   -5.6140 c3        1 S03      0.107700
     14 C15        -0.2170    1.0870   -3.7240 ca        1 S03     -0.149000
     15 C8          2.8640    0.2590   -3.1330 cd        1 S03     -0.002100
     16 C3          3.3430   -0.1480   -0.9510 ca        1 S03      0.473800
     17 N4          3.9380   -0.3310    0.2580 nb        1 S03     -0.623000
     18 N7          3.8960    0.2000   -2.1920 na        1 S03     -0.061200
     19 C18         5.2730    0.3920   -2.4790 ca        1 S03     -0.049200
     20 C19         5.8200   -0.1580   -3.6580 ca        1 S03     -0.115500
     21 C20         7.1650    0.0370   -3.9510 ca        1 S03     -0.104500
     22 C23         6.0940    1.1320   -1.6080 ca        1 S03     -0.115500
     23 C22         7.4390    1.3130   -1.9190 ca        1 S03     -0.104500
     24 C21         7.9850    0.7720   -3.0860 ca        1 S03     -0.050300
     25 C24         9.4530    0.9340   -3.3670 c3        1 S03      0.208100
     26 N26         9.7450    1.2710   -4.7530 n3        1 S03     -0.737600
     27 C27        11.1130    0.9280   -5.1240 c3        1 S03      0.171300
     28 C28        11.4360    1.2410   -6.5820 c3        1 S03     -0.095900
     29 C31         9.4000    2.6510   -5.0730 c3        1 S03      0.171300
     30 C30         9.6740    3.0170   -6.5270 c3        1 S03     -0.095900
     31 C29        11.1170    2.6960   -6.9020 c3        1 S03      0.142100
     32 O32        11.3300    2.8590   -8.2970 oh        1 S03     -0.592800
     33 H331       -0.5650   -0.8930   -1.1070 hn        1 S03      0.474467
     34 H332       -0.6320   -1.5960    0.4270 hn        1 S03      0.474467
     35 H5          3.5470   -0.8270    2.2610 h5        1 S03      0.094100
     36 H11         0.1270   -2.2360   -2.9840 ha        1 S03      0.141000
     37 H12        -2.0960   -2.3120   -4.1030 ha        1 S03      0.151000
     38 H13        -3.1180   -0.2430   -5.0210 ha        1 S03      0.159000
     39 H171       -3.9860    1.8670   -4.9890 h1        1 S03      0.058033
     40 H172       -2.9990    1.5530   -6.5100 h1        1 S03      0.058033
     41 H173       -3.2540    3.2780   -5.9190 h1        1 S03      0.058033
     42 H15         0.3040    2.0530   -3.6470 ha        1 S03      0.166000
     43 H8          3.0820    0.5160   -4.1770 h4        1 S03      0.210000
     44 H19         5.1960   -0.7460   -4.3490 ha        1 S03      0.148500
     45 H20         7.5880   -0.3920   -4.8750 ha        1 S03      0.161000
     46 H23         5.6910    1.5690   -0.6810 ha        1 S03      0.148500
     47 H22         8.0730    1.8940   -1.2300 ha        1 S03      0.161000
     48 H241        9.8800    1.7010   -2.6520 h1        1 S03      0.051200
     49 H242        9.9460   -0.0550   -3.1300 h1        1 S03      0.051200
     50 H271       11.2430   -0.1800   -4.9620 h1        1 S03      0.034450
     51 H272       11.8620    1.4610   -4.4660 h1        1 S03      0.034450
     52 H281       10.8480    0.5770   -7.2670 hc        1 S03      0.061700
     53 H282       12.5230    1.0440   -6.7640 hc        1 S03      0.061700
     54 H311        9.9580    3.3780   -4.4100 h1        1 S03      0.034450
     55 H312        8.3000    2.7770   -4.8650 h1        1 S03      0.034450
     56 H301        8.9850    2.4530   -7.2080 hc        1 S03      0.061700
     57 H302        9.4740    4.1100   -6.6650 hc        1 S03      0.061700
     58 H29        11.8150    3.3770   -6.3360 h1        1 S03      0.033700
     59 H32        11.1270    3.7790   -8.5040 ho        1 S03      0.402000
     60 H333       -0.7610    0.0620    0.2670 hn        1 S03      0.474467
@<TRIPOS>BOND
     1    1    2 1   
     2    1   33 1   
     3    1   34 1   
     4    1   60 1   
     5    2    3 ar  
     6    2    5 ar  
     7    3    4 ar  
     8    4   17 ar  
     9    4   35 1   
    10    5    6 1   
    11    5   16 ar  
    12    6    7 1   
    13    6   15 2   
    14    7    8 ar  
    15    7   14 ar  
    16    8    9 ar  
    17    8   36 1   
    18    9   10 ar  
    19    9   37 1   
    20   10   11 ar  
    21   10   38 1   
    22   11   12 1   
    23   11   14 ar  
    24   12   13 1   
    25   13   39 1   
    26   13   40 1   
    27   13   41 1   
    28   14   42 1   
    29   15   18 1   
    30   15   43 1   
    31   16   17 ar  
    32   16   18 1   
    33   18   19 1   
    34   19   20 ar  
    35   19   22 ar  
    36   20   21 ar  
    37   20   44 1   
    38   21   24 ar  
    39   21   45 1   
    40   22   23 ar  
    41   22   46 1   
    42   23   24 ar  
    43   23   47 1   
    44   24   25 1   
    45   25   26 1   
    46   25   48 1   
    47   25   49 1   
    48   26   27 1   
    49   26   29 1   
    50   27   28 1   
    51   27   50 1   
    52   27   51 1   
    53   28   31 1   
    54   28   52 1   
    55   28   53 1   
    56   29   30 1   
    57   29   54 1   
    58   29   55 1   
    59   30   31 1   
    60   30   56 1   
    61   30   57 1   
    62   31   32 1   
    63   31   58 1   
    64   32   59 1   
@<TRIPOS>SUBSTRUCTURE
     1 S03         1 TEMP              0 ****  ****    0 ROOT
