@<TRIPOS>MOLECULE
S03
   59    63     1     0     0
SMALL
bcc


@<TRIPOS>ATOM
      1 N33         5.3840    2.3370    0.2510 nh        1 S03     -0.952500
      2 C1          4.0620    2.7150    0.3660 ca        1 S03      0.732200
      3 N6          3.7420    4.0160    0.6680 nb        1 S03     -0.792000
      4 C5          2.4210    4.3380    0.7070 ca        1 S03      0.679900
      5 C2          3.0160    1.7670    0.1240 ca        1 S03     -0.363400
      6 C9          2.9370    0.3620   -0.1930 cc        1 S03     -0.056400
      7 C10         4.0250   -0.5690   -0.4050 ca        1 S03      0.000200
      8 C11         4.9900   -0.3280   -1.3980 ca        1 S03     -0.163000
      9 C12         6.0170   -1.2410   -1.6110 ca        1 S03     -0.099000
     10 C13         6.1090   -2.4060   -0.8490 ca        1 S03     -0.203000
     11 C14         5.1460   -2.6470    0.1370 ca        1 S03      0.123100
     12 O16         5.1250   -3.7600    0.9560 os        1 S03     -0.326900
     13 C17         6.1560   -4.7160    0.7410 c3        1 S03      0.113700
     14 C15         4.1000   -1.7340    0.3640 ca        1 S03     -0.149000
     15 C8          1.5820    0.0380   -0.2700 cd        1 S03     -0.099100
     16 C3          1.6500    2.2560    0.2260 ca        1 S03      0.483800
     17 N4          1.3350    3.5580    0.5130 nb        1 S03     -0.737000
     18 N7          0.7890    1.1700   -0.0140 na        1 S03     -0.094200
     19 C18        -0.6190    1.1970   -0.0920 ca        1 S03      0.012800
     20 C19        -1.2850    0.3960   -1.0470 ca        1 S03     -0.135000
     21 C20        -2.6730    0.4030   -1.1190 ca        1 S03     -0.106500
     22 C23        -1.3830    1.9990    0.7810 ca        1 S03     -0.135000
     23 C22        -2.7720    1.9960    0.6890 ca        1 S03     -0.106500
     24 C21        -3.4290    1.2020   -0.2550 ca        1 S03     -0.091300
     25 C24        -4.9240    1.2590   -0.3700 c3        1 S03      0.216100
     26 N26        -5.5670   -0.0490   -0.4080 n3        1 S03     -0.730600
     27 C27        -6.9700    0.0550   -0.7900 c3        1 S03      0.170300
     28 C28        -7.6770   -1.2950   -0.8640 c3        1 S03     -0.094900
     29 C31        -5.3720   -0.8020    0.8250 c3        1 S03      0.170300
     30 C30        -6.0300   -2.1780    0.7990 c3        1 S03     -0.094900
     31 C29        -7.5080   -2.0580    0.4450 c3        1 S03      0.140100
     32 O32        -8.1010   -3.3360    0.2510 oh        1 S03     -0.598800
     33 H331        6.0890    2.9520    0.5800 hn        1 S03      0.434300
     34 H332        5.5750    1.3630    0.2610 hn        1 S03      0.434300
     35 H5          2.2080    5.4030    0.9410 h5        1 S03      0.050100
     36 H11         4.9190    0.5800   -2.0150 ha        1 S03      0.149000
     37 H12         6.7660   -1.0480   -2.3940 ha        1 S03      0.135000
     38 H13         6.9260   -3.1160   -1.0310 ha        1 S03      0.139000
     39 H171        7.1600   -4.2640    0.9320 h1        1 S03      0.044700
     40 H172        5.9320   -5.5140    1.4940 h1        1 S03      0.044700
     41 H173        6.1040   -5.1280   -0.2960 h1        1 S03      0.044700
     42 H15         3.3550   -1.9460    1.1450 ha        1 S03      0.154000
     43 H8          1.1140   -0.9270   -0.4800 h4        1 S03      0.180000
     44 H19        -0.7120   -0.2320   -1.7460 ha        1 S03      0.151500
     45 H20        -3.1830   -0.2270   -1.8650 ha        1 S03      0.144500
     46 H23        -0.8950    2.6360    1.5350 ha        1 S03      0.151500
     47 H22        -3.3530    2.6320    1.3750 ha        1 S03      0.144500
     48 H241       -5.3340    1.8960    0.4710 h1        1 S03      0.041200
     49 H242       -5.1690    1.7850   -1.3400 h1        1 S03      0.041200
     50 H271       -7.5430    0.7220   -0.0780 h1        1 S03      0.034200
     51 H272       -7.0100    0.5330   -1.8100 h1        1 S03      0.034200
     52 H281       -8.7650   -1.1270   -1.0650 hc        1 S03      0.058450
     53 H282       -7.2630   -1.9100   -1.7030 hc        1 S03      0.058450
     54 H311       -4.2620   -0.9310    0.9650 h1        1 S03      0.034200
     55 H312       -5.7660   -0.2350    1.7200 h1        1 S03      0.034200
     56 H301       -5.9130   -2.6500    1.8070 hc        1 S03      0.058450
     57 H302       -5.5250   -2.8380    0.0470 hc        1 S03      0.058450
     58 H29        -8.0550   -1.5240    1.2750 h1        1 S03      0.030700
     59 H32        -7.9060   -3.8550    1.0400 ho        1 S03      0.399000
@<TRIPOS>BOND
     1    1    2 1   
     2    1   33 1   
     3    1   34 1   
     4    2    3 ar  
     5    2    5 ar  
     6    3    4 ar  
     7    4   17 ar  
     8    4   35 1   
     9    5    6 1   
    10    5   16 ar  
    11    6    7 1   
    12    6   15 2   
    13    7    8 ar  
    14    7   14 ar  
    15    8    9 ar  
    16    8   36 1   
    17    9   10 ar  
    18    9   37 1   
    19   10   11 ar  
    20   10   38 1   
    21   11   12 1   
    22   11   14 ar  
    23   12   13 1   
    24   13   39 1   
    25   13   40 1   
    26   13   41 1   
    27   14   42 1   
    28   15   18 1   
    29   15   43 1   
    30   16   17 ar  
    31   16   18 1   
    32   18   19 1   
    33   19   20 ar  
    34   19   22 ar  
    35   20   21 ar  
    36   20   44 1   
    37   21   24 ar  
    38   21   45 1   
    39   22   23 ar  
    40   22   46 1   
    41   23   24 ar  
    42   23   47 1   
    43   24   25 1   
    44   25   26 1   
    45   25   48 1   
    46   25   49 1   
    47   26   27 1   
    48   26   29 1   
    49   27   28 1   
    50   27   50 1   
    51   27   51 1   
    52   28   31 1   
    53   28   52 1   
    54   28   53 1   
    55   29   30 1   
    56   29   54 1   
    57   29   55 1   
    58   30   31 1   
    59   30   56 1   
    60   30   57 1   
    61   31   32 1   
    62   31   58 1   
    63   32   59 1   
@<TRIPOS>SUBSTRUCTURE
     1 S03         1 TEMP              0 ****  ****    0 ROOT
