@<TRIPOS>MOLECULE
S03
   59    63     1     0     0
SMALL
bcc


@<TRIPOS>ATOM
      1 N33        -0.2270   -0.6600    0.0480 nv        1 S03     -0.952500
      2 C1          1.1400   -0.4830    0.1280 ca        1 S03      0.732200
      3 N6          1.7780   -0.5900    1.3400 nb        1 S03     -0.792000
      4 C5          3.1320   -0.4660    1.3400 ca        1 S03      0.679900
      5 C2          1.9060   -0.2380   -1.0560 ca        1 S03     -0.363400
      6 C9          1.6240   -0.0520   -2.4590 cc        1 S03     -0.056400
      7 C10         0.3410   -0.0990   -3.1270 ca        1 S03      0.000200
      8 C11        -0.4660   -1.2460   -3.0460 ca        1 S03     -0.163000
      9 C12        -1.6870   -1.2920   -3.7120 ca        1 S03     -0.099000
     10 C13        -2.1290   -0.2060   -4.4680 ca        1 S03     -0.203000
     11 C14        -1.3230    0.9340   -4.5520 ca        1 S03      0.123100
     12 O16        -1.6470    2.0710   -5.2680 os        1 S03     -0.326900
     13 C17        -2.8820    2.0380   -5.9720 c3        1 S03      0.113700
     14 C15        -0.0860    0.9950   -3.8860 ca        1 S03     -0.149000
     15 C8          2.8460    0.1850   -3.0910 cd        1 S03     -0.099100
     16 C3          3.3450   -0.1050   -0.8920 ca        1 S03      0.483800
     17 N4          3.9790   -0.2260    0.3170 nb        1 S03     -0.737000
     18 N7          3.8970    0.1620   -2.1580 na        1 S03     -0.094200
     19 C18         5.2630    0.2880   -2.4860 ca        1 S03      0.012800
     20 C19         5.7440   -0.2350   -3.7070 ca        1 S03     -0.135000
     21 C20         7.0850   -0.0990   -4.0450 ca        1 S03     -0.106500
     22 C23         6.1620    0.9460   -1.6210 ca        1 S03     -0.135000
     23 C22         7.5030    1.0670   -1.9760 ca        1 S03     -0.106500
     24 C21         7.9760    0.5500   -3.1850 ca        1 S03     -0.091300
     25 C24         9.4360    0.6440   -3.5180 c3        1 S03      0.216100
     26 N26         9.7070    1.1410   -4.8630 n3        1 S03     -0.730600
     27 C27        11.1070    0.9570   -5.2280 c3        1 S03      0.170300
     28 C28        11.4310    1.4430   -6.6380 c3        1 S03     -0.094900
     29 C31         9.2490    2.5100   -5.0540 c3        1 S03      0.170300
     30 C30         9.5160    3.0420   -6.4590 c3        1 S03     -0.094900
     31 C29        10.9900    2.8910   -6.8180 c3        1 S03      0.140100
     32 O32        11.2300    3.2250   -8.1790 oh        1 S03     -0.598800
     33 H331       -0.6720   -0.3530   -0.7850 hn        1 S03      0.434300
     34 H332       -0.7590   -0.6630    0.8850 hn        1 S03      0.434300
     35 H5          3.6080   -0.5720    2.3390 h5        1 S03      0.050100
     36 H11        -0.1200   -2.1140   -2.4640 ha        1 S03      0.149000
     37 H12        -2.3110   -2.1960   -3.6470 ha        1 S03      0.135000
     38 H13        -3.0950   -0.2590   -4.9890 ha        1 S03      0.139000
     39 H171       -2.9230    3.0390   -6.4730 h1        1 S03      0.044700
     40 H172       -2.8830    1.2180   -6.7310 h1        1 S03      0.044700
     41 H173       -3.7370    1.9170   -5.2640 h1        1 S03      0.044700
     42 H15         0.5300    1.9030   -3.9660 ha        1 S03      0.154000
     43 H8          3.0500    0.3800   -4.1470 h4        1 S03      0.180000
     44 H19         5.0640   -0.7610   -4.3950 ha        1 S03      0.151500
     45 H20         7.4490   -0.5090   -5.0000 ha        1 S03      0.144500
     46 H23         5.8200    1.3630   -0.6610 ha        1 S03      0.151500
     47 H22         8.1930    1.5790   -1.2880 ha        1 S03      0.144500
     48 H241        9.8680   -0.3980   -3.4490 h1        1 S03      0.041200
     49 H242        9.9530    1.2760   -2.7340 h1        1 S03      0.041200
     50 H271       11.7960    1.4820   -4.5000 h1        1 S03      0.034200
     51 H272       11.3310   -0.1460   -5.1730 h1        1 S03      0.034200
     52 H281       12.5340    1.3600   -6.8080 hc        1 S03      0.058450
     53 H282       10.9150    0.8050   -7.4020 hc        1 S03      0.058450
     54 H311        8.1380    2.5200   -4.8660 h1        1 S03      0.034200
     55 H312        9.7290    3.2140   -4.3100 h1        1 S03      0.034200
     56 H301        9.2200    4.1220   -6.4960 hc        1 S03      0.058450
     57 H302        8.8960    2.4880   -7.2100 hc        1 S03      0.058450
     58 H29        11.6110    3.5660   -6.1610 h1        1 S03      0.030700
     59 H32        10.8580    4.1030   -8.3190 ho        1 S03      0.399000
@<TRIPOS>BOND
     1    1    2 1   
     2    1   33 1   
     3    1   34 1   
     4    2    3 ar  
     5    2    5 ar  
     6    3    4 ar  
     7    4   17 ar  
     8    4   35 1   
     9    5    6 1   
    10    5   16 ar  
    11    6    7 1   
    12    6   15 2   
    13    7    8 ar  
    14    7   14 ar  
    15    8    9 ar  
    16    8   36 1   
    17    9   10 ar  
    18    9   37 1   
    19   10   11 ar  
    20   10   38 1   
    21   11   12 1   
    22   11   14 ar  
    23   12   13 1   
    24   13   39 1   
    25   13   40 1   
    26   13   41 1   
    27   14   42 1   
    28   15   18 1   
    29   15   43 1   
    30   16   17 ar  
    31   16   18 1   
    32   18   19 1   
    33   19   20 ar  
    34   19   22 ar  
    35   20   21 ar  
    36   20   44 1   
    37   21   24 ar  
    38   21   45 1   
    39   22   23 ar  
    40   22   46 1   
    41   23   24 ar  
    42   23   47 1   
    43   24   25 1   
    44   25   26 1   
    45   25   48 1   
    46   25   49 1   
    47   26   27 1   
    48   26   29 1   
    49   27   28 1   
    50   27   50 1   
    51   27   51 1   
    52   28   31 1   
    53   28   52 1   
    54   28   53 1   
    55   29   30 1   
    56   29   54 1   
    57   29   55 1   
    58   30   31 1   
    59   30   56 1   
    60   30   57 1   
    61   31   32 1   
    62   31   58 1   
    63   32   59 1   
@<TRIPOS>SUBSTRUCTURE
     1 S03         1 TEMP              0 ****  ****    0 ROOT
