@<TRIPOS>MOLECULE
S03
   59    63     1     0     0
SMALL
bcc


@<TRIPOS>ATOM
      1 N33        -0.2280   -0.6800    0.0380 nh        1 S03     -0.952500
      2 C1          1.1390   -0.5050    0.1190 ca        1 S03      0.732200
      3 N6          1.7760   -0.6190    1.3310 nb        1 S03     -0.792000
      4 C5          3.1310   -0.4960    1.3320 ca        1 S03      0.679900
      5 C2          1.9050   -0.2530   -1.0630 ca        1 S03     -0.363400
      6 C9          1.6240   -0.0600   -2.4660 cc        1 S03     -0.056400
      7 C10         0.3410   -0.1020   -3.1340 ca        1 S03      0.000200
      8 C11        -0.4670   -1.2500   -3.0590 ca        1 S03     -0.163000
      9 C12        -1.6880   -1.2900   -3.7250 ca        1 S03     -0.099000
     10 C13        -2.1300   -0.2000   -4.4760 ca        1 S03     -0.203000
     11 C14        -1.3220    0.9400   -4.5530 ca        1 S03      0.123100
     12 O16        -1.6460    2.0810   -5.2630 os        1 S03     -0.326900
     13 C17        -2.8810    2.0530   -5.9680 c3        1 S03      0.113700
     14 C15        -0.0850    0.9960   -3.8860 ca        1 S03     -0.149000
     15 C8          2.8460    0.1800   -3.0960 cd        1 S03     -0.099100
     16 C3          3.3440   -0.1220   -0.8980 ca        1 S03      0.483800
     17 N4          3.9790   -0.2500    0.3100 nb        1 S03     -0.737000
     18 N7          3.8970    0.1510   -2.1630 na        1 S03     -0.094200
     19 C18         5.2630    0.2790   -2.4890 ca        1 S03      0.012800
     20 C19         5.7430   -0.2370   -3.7140 ca        1 S03     -0.135000
     21 C20         7.0850   -0.1000   -4.0510 ca        1 S03     -0.106500
     22 C23         6.1620    0.9300   -1.6210 ca        1 S03     -0.135000
     23 C22         7.5030    1.0530   -1.9750 ca        1 S03     -0.106500
     24 C21         7.9760    0.5430   -3.1870 ca        1 S03     -0.091300
     25 C24         9.4360    0.6380   -3.5200 c3        1 S03      0.216100
     26 N26         9.7070    1.1470   -4.8600 n3        1 S03     -0.730600
     27 C27        11.1070    0.9650   -5.2280 c3        1 S03      0.170300
     28 C28        11.4300    1.4630   -6.6330 c3        1 S03     -0.094900
     29 C31         9.2510    2.5190   -5.0390 c3        1 S03      0.170300
     30 C30         9.5180    3.0630   -6.4380 c3        1 S03     -0.094900
     31 C29        10.9920    2.9140   -6.7990 c3        1 S03      0.140100
     32 O32        11.2320    3.2590   -8.1580 oh        1 S03     -0.598800
     33 H331       -0.7600   -0.6880    0.8750 hn        1 S03      0.434300
     34 H332       -0.6730   -0.3690   -0.7930 hn        1 S03      0.434300
     35 H5          3.6070   -0.6080    2.3300 h5        1 S03      0.050100
     36 H11        -0.1220   -2.1200   -2.4820 ha        1 S03      0.149000
     37 H12        -2.3130   -2.1940   -3.6650 ha        1 S03      0.135000
     38 H13        -3.0960   -0.2500   -4.9960 ha        1 S03      0.139000
     39 H171       -2.8820    1.2360   -6.7310 h1        1 S03      0.044700
     40 H172       -3.7360    1.9290   -5.2610 h1        1 S03      0.044700
     41 H173       -2.9200    3.0560   -6.4630 h1        1 S03      0.044700
     42 H15         0.5310    1.9040   -3.9620 ha        1 S03      0.154000
     43 H8          3.0500    0.3810   -4.1500 h4        1 S03      0.180000
     44 H19         5.0640   -0.7590   -4.4050 ha        1 S03      0.151500
     45 H20         7.4490   -0.5040   -5.0090 ha        1 S03      0.144500
     46 H23         5.8200    1.3420   -0.6580 ha        1 S03      0.151500
     47 H22         8.1930    1.5600   -1.2830 ha        1 S03      0.144500
     48 H241        9.8670   -0.4040   -3.4610 h1        1 S03      0.041200
     49 H242        9.9540    1.2620   -2.7310 h1        1 S03      0.041200
     50 H271       11.3290   -0.1390   -5.1830 h1        1 S03      0.034200
     51 H272       11.7960    1.4820   -4.4960 h1        1 S03      0.034200
     52 H281       12.5330    1.3800   -6.8050 hc        1 S03      0.058450
     53 H282       10.9140    0.8330   -7.4030 hc        1 S03      0.058450
     54 H311        8.1400    2.5280   -4.8500 h1        1 S03      0.034200
     55 H312        9.7320    3.2150   -4.2880 h1        1 S03      0.034200
     56 H301        8.8970    2.5170   -7.1940 hc        1 S03      0.058450
     57 H302        9.2230    4.1430   -6.4650 hc        1 S03      0.058450
     58 H29        11.6140    3.5820   -6.1370 h1        1 S03      0.030700
     59 H32        10.8610    4.1400   -8.2900 ho        1 S03      0.399000
@<TRIPOS>BOND
     1    1    2 1   
     2    1   33 1   
     3    1   34 1   
     4    2    3 ar  
     5    2    5 ar  
     6    3    4 ar  
     7    4   17 ar  
     8    4   35 1   
     9    5    6 1   
    10    5   16 ar  
    11    6    7 1   
    12    6   15 2   
    13    7    8 ar  
    14    7   14 ar  
    15    8    9 ar  
    16    8   36 1   
    17    9   10 ar  
    18    9   37 1   
    19   10   11 ar  
    20   10   38 1   
    21   11   12 1   
    22   11   14 ar  
    23   12   13 1   
    24   13   39 1   
    25   13   40 1   
    26   13   41 1   
    27   14   42 1   
    28   15   18 1   
    29   15   43 1   
    30   16   17 ar  
    31   16   18 1   
    32   18   19 1   
    33   19   20 ar  
    34   19   22 ar  
    35   20   21 ar  
    36   20   44 1   
    37   21   24 ar  
    38   21   45 1   
    39   22   23 ar  
    40   22   46 1   
    41   23   24 ar  
    42   23   47 1   
    43   24   25 1   
    44   25   26 1   
    45   25   48 1   
    46   25   49 1   
    47   26   27 1   
    48   26   29 1   
    49   27   28 1   
    50   27   50 1   
    51   27   51 1   
    52   28   31 1   
    53   28   52 1   
    54   28   53 1   
    55   29   30 1   
    56   29   54 1   
    57   29   55 1   
    58   30   31 1   
    59   30   56 1   
    60   30   57 1   
    61   31   32 1   
    62   31   58 1   
    63   32   59 1   
@<TRIPOS>SUBSTRUCTURE
     1 S03         1 TEMP              0 ****  ****    0 ROOT
