@<TRIPOS>MOLECULE
S04
   78    81     1     0     0
SMALL
bcc


@<TRIPOS>ATOM
      1 C7         -4.6530   -0.3110   -0.7010 c3        1 S04     -0.250300
      2 S8         -3.2190   -1.1880   -0.2600 s6        1 S04      1.450900
      3 C6         -5.8280   -1.1890   -0.9140 ca        1 S04     -0.075300
      4 C1         -6.4100   -1.8630    0.1680 ca        1 S04     -0.114000
      5 C2         -7.5330   -2.6630   -0.0280 ca        1 S04     -0.127000
      6 C32        -8.0870   -2.7950   -1.3010 ca        1 S04     -0.121000
      7 C4         -7.5110   -2.1270   -2.3810 ca        1 S04     -0.127000
      8 C5         -6.3880   -1.3240   -2.1900 ca        1 S04     -0.114000
      9 O15        -3.4510   -1.8390    0.9700 o         1 S04     -0.642800
     10 O16        -2.8100   -1.9620   -1.3580 o         1 S04     -0.642800
     11 C12        -2.0400    3.0180    0.5330 c3        1 S04     -0.073700
     12 C35        -3.2200    3.2390   -0.4060 c3        1 S04     -0.069900
     13 C36        -2.9140    4.3190   -1.4230 c3        1 S04     -0.077400
     14 C37        -2.5380    5.6200   -0.7440 c3        1 S04     -0.076400
     15 C38        -1.3870    5.4200    0.2200 c3        1 S04     -0.077400
     16 C39        -1.6910    4.3300    1.2280 c3        1 S04     -0.069900
     17 N9         -2.1620    0.0210   -0.0410 n3        1 S04     -0.915100
     18 C10        -1.7710    0.5490    1.2350 c3        1 S04      0.184500
     19 C11        -2.3470    1.9410    1.5620 c3        1 S04     -0.090400
     20 C13        -0.2250    0.6400    1.3340 c         1 S04      0.654100
     21 O17         0.4500    1.0270    0.3550 o         1 S04     -0.629100
     22 N14         0.3950    0.2550    2.5020 n         1 S04     -0.454800
     23 C18         1.8220    0.4650    2.7250 c3        1 S04      0.031700
     24 C19         2.7010   -0.6880    2.1780 c         1 S04      0.652100
     25 O20         3.5110   -1.2790    2.9210 o         1 S04     -0.623100
     26 C23         2.0140    0.6230    4.2490 c3        1 S04     -0.088400
     27 C24         0.7060    0.1820    4.8960 c3        1 S04     -0.090400
     28 C25        -0.3030   -0.0050    3.7500 c3        1 S04      0.085000
     29 N21         2.5460   -1.0190    0.8530 n         1 S04     -0.548900
     30 C22         3.3810   -1.9950    0.2020 c3        1 S04      0.122300
     31 C26         4.5190   -1.4020   -0.5890 ca        1 S04     -0.083300
     32 C27         5.8540   -1.5030   -0.1760 ca        1 S04     -0.057300
     33 C28         6.2460   -2.1630    1.1170 c3        1 S04      0.184100
     34 N34         6.3530   -3.5990    1.0020 n3        1 S04     -0.912800
     35 C29         6.8640   -0.9600   -0.9810 ca        1 S04     -0.126000
     36 C30         6.5620   -0.3080   -2.1720 ca        1 S04     -0.122000
     37 C31         5.2260   -0.2000   -2.5700 ca        1 S04      0.016400
     38 CL3         4.8390    0.5980   -4.0220 cl        1 S04     -0.097400
     39 C33         4.2080   -0.7430   -1.7850 ca        1 S04     -0.121000
     40 H7         -4.4740    0.2910   -1.6330 h1        1 S04      0.111200
     41 H7A        -4.9200    0.4400    0.0920 h1        1 S04      0.111200
     42 H1         -5.9610   -1.7760    1.1710 ha        1 S04      0.142500
     43 H2         -7.9800   -3.1950    0.8260 ha        1 S04      0.135000
     44 H32        -8.9730   -3.4280   -1.4540 ha        1 S04      0.134000
     45 H4         -7.9420   -2.2320   -3.3880 ha        1 S04      0.135000
     46 H5         -5.9370   -0.8020   -3.0470 ha        1 S04      0.142500
     47 H12        -1.1470    2.7030   -0.0800 hc        1 S04      0.077700
     48 H35A       -4.1230    3.5330    0.1910 hc        1 S04      0.036200
     49 H36        -2.0710    3.9850   -2.0830 hc        1 S04      0.042950
     50 H36A       -3.8100    4.4810   -2.0760 hc        1 S04      0.042950
     51 H37        -2.2520    6.3790   -1.5170 hc        1 S04      0.040700
     52 H37A       -3.4260    6.0220   -0.1880 hc        1 S04      0.040700
     53 H38        -0.4620    5.1480   -0.3540 hc        1 S04      0.042950
     54 H38A       -1.1780    6.3790    0.7610 hc        1 S04      0.042950
     55 H39        -2.5470    4.6470    1.8800 hc        1 S04      0.036200
     56 H39A       -0.7980    4.1780    1.8890 hc        1 S04      0.036200
     57 HN9        -1.6730    0.4430   -0.8000 hn        1 S04      0.466800
     58 H10        -2.1560   -0.1700    2.0270 h1        1 S04      0.092700
     59 H11        -3.4580    1.8400    1.6860 hc        1 S04      0.052200
     60 H11A       -1.9300    2.2410    2.5610 hc        1 S04      0.052200
     61 H18         2.1520    1.4010    2.1830 h1        1 S04      0.085700
     62 H23         2.8730    0.0040    4.6100 hc        1 S04      0.075700
     63 H23A        2.2320    1.6940    4.4840 hc        1 S04      0.075700
     64 H24         0.8410   -0.7810    5.4470 hc        1 S04      0.059200
     65 H24A        0.3360    0.9460    5.6210 hc        1 S04      0.059200
     66 H25        -1.1700    0.7020    3.8730 h1        1 S04      0.052700
     67 H25A       -0.7030   -1.0570    3.7380 h1        1 S04      0.052700
     68 HN21        2.0260   -0.4070    0.2620 hn        1 S04      0.332500
     69 H22         3.7690   -2.7200    0.9740 h1        1 S04      0.082200
     70 H22A        2.7250   -2.5740   -0.5150 h1        1 S04      0.082200
     71 H28         7.2140   -1.6870    1.4670 h1        1 S04      0.049700
     72 H28A        5.4690   -1.9340    1.9070 h1        1 S04      0.049700
     73 HN34        7.0100   -3.8580    0.2930 hn        1 S04      0.350800
     74 HN3A        6.6340   -3.9940    1.8770 hn        1 S04      0.350800
     75 H29         7.9150   -1.0440   -0.6640 ha        1 S04      0.134000
     76 H30         7.3650    0.1160   -2.7930 ha        1 S04      0.146000
     77 H33         3.1570   -0.6600   -2.1040 ha        1 S04      0.148000
     78 H35        -3.4670    2.2830   -0.9380 hc        1 S04      0.036200
@<TRIPOS>BOND
     1    1    2 1   
     2    1    3 1   
     3    1   40 1   
     4    1   41 1   
     5    2    9 2   
     6    2   10 2   
     7    2   17 1   
     8    3    4 ar  
     9    3    8 ar  
    10    4    5 ar  
    11    4   42 1   
    12    5    6 ar  
    13    5   43 1   
    14    6    7 ar  
    15    6   44 1   
    16    7    8 ar  
    17    7   45 1   
    18    8   46 1   
    19   11   12 1   
    20   11   16 1   
    21   11   19 1   
    22   11   47 1   
    23   12   13 1   
    24   12   48 1   
    25   12   78 1   
    26   13   14 1   
    27   13   49 1   
    28   13   50 1   
    29   14   15 1   
    30   14   51 1   
    31   14   52 1   
    32   15   16 1   
    33   15   53 1   
    34   15   54 1   
    35   16   55 1   
    36   16   56 1   
    37   17   18 1   
    38   17   57 1   
    39   18   19 1   
    40   18   20 1   
    41   18   58 1   
    42   19   59 1   
    43   19   60 1   
    44   20   21 2   
    45   20   22 1   
    46   22   23 1   
    47   22   28 1   
    48   23   24 1   
    49   23   26 1   
    50   23   61 1   
    51   24   25 2   
    52   24   29 1   
    53   26   27 1   
    54   26   62 1   
    55   26   63 1   
    56   27   28 1   
    57   27   64 1   
    58   27   65 1   
    59   28   66 1   
    60   28   67 1   
    61   29   30 1   
    62   29   68 1   
    63   30   31 1   
    64   30   69 1   
    65   30   70 1   
    66   31   32 ar  
    67   31   39 ar  
    68   32   33 1   
    69   32   35 ar  
    70   33   34 1   
    71   33   71 1   
    72   33   72 1   
    73   34   73 1   
    74   34   74 1   
    75   35   36 ar  
    76   35   75 1   
    77   36   37 ar  
    78   36   76 1   
    79   37   38 1   
    80   37   39 ar  
    81   39   77 1   
@<TRIPOS>SUBSTRUCTURE
     1 S04         1 TEMP              0 ****  ****    0 ROOT
