@<TRIPOS>MOLECULE
S05
   45    48     1     0     0
SMALL
bcc


@<TRIPOS>ATOM
      1 C1         -0.2420    0.0910    0.0920 ca        1 S05     -0.112300
      2 C2          1.0990    0.7260   -0.0210 c3        1 S05     -0.032100
      3 C3          1.8550    0.7180    1.2870 c3        1 S05     -0.104400
      4 C4          1.7170   -0.6430    1.9650 c3        1 S05      0.085000
      5 N5          0.3440   -1.0440    2.2090 n         1 S05     -0.364000
      6 C6         -0.5970   -0.7280    1.1910 ca        1 S05      0.065600
      7 C13        -1.8900   -1.3000    1.2230 ca        1 S05     -0.130000
      8 C14        -2.7880   -1.0730    0.1880 ca        1 S05     -0.113000
      9 C15        -2.4290   -0.2770   -0.9000 ca        1 S05     -0.146000
     10 C16        -1.1640    0.2980   -0.9400 ca        1 S05     -0.113000
     11 C21        -0.1260   -1.1030    3.5580 c         1 S05      0.741100
     12 O22        -1.2290   -0.6110    3.8790 o         1 S05     -0.602100
     13 N23         0.7070   -1.7010    4.5550 n         1 S05     -0.423800
     14 C24         1.4240   -2.9230    4.2390 c3        1 S05      0.067500
     15 C25         0.6550   -4.2110    4.5370 c3        1 S05     -0.105400
     16 C26         0.1530   -4.2220    5.9760 c3        1 S05      0.011600
     17 C27        -0.6520   -2.9580    6.2580 c3        1 S05     -0.105400
     18 C28         0.1570   -1.7100    5.9030 c3        1 S05      0.067500
     19 C38        -0.6380   -5.4470    6.2400 cc        1 S05     -0.213900
     20 N39        -1.3140   -5.7060    7.4400 na        1 S05     -0.315900
     21 C40        -1.9140   -6.9620    7.3060 cc        1 S05      0.386400
     22 N41        -1.6500   -7.5090    6.0980 nd        1 S05     -0.665000
     23 C42        -0.8610   -6.5800    5.4260 cd        1 S05      0.296200
     24 H2          0.9860    1.7840   -0.3820 hc        1 S05      0.052700
     25 H2A         1.6920    0.1730   -0.8010 hc        1 S05      0.052700
     26 H3          1.4680    1.5260    1.9620 hc        1 S05      0.055200
     27 H3A         2.9420    0.9190    1.1050 hc        1 S05      0.055200
     28 H4          2.3030   -0.6260    2.9250 h1        1 S05      0.058200
     29 H4A         2.1710   -1.4290    1.2930 h1        1 S05      0.058200
     30 H13        -2.2000   -1.9130    2.0830 ha        1 S05      0.147000
     31 H14        -3.7900   -1.5260    0.2320 ha        1 S05      0.134000
     32 H15        -3.1430   -0.1020   -1.7180 ha        1 S05      0.132000
     33 H16        -0.8760    0.9330   -1.7920 ha        1 S05      0.130000
     34 H24         2.3610   -2.9080    4.8700 h1        1 S05      0.065200
     35 H24A        1.7400   -2.9370    3.1600 h1        1 S05      0.065200
     36 H25         1.3380   -5.0830    4.3680 hc        1 S05      0.058700
     37 H25A       -0.2120   -4.3150    3.8340 hc        1 S05      0.058700
     38 H26         1.0520   -4.2260    6.6610 hc        1 S05      0.055700
     39 H27        -1.6050   -2.9730    5.6680 hc        1 S05      0.058700
     40 H27A       -0.9200   -2.9030    7.3440 hc        1 S05      0.058700
     41 H28         1.0420   -1.6350    6.5980 h1        1 S05      0.065200
     42 H28A       -0.4900   -0.8000    6.0490 h1        1 S05      0.065200
     43 H40        -2.5140   -7.4180    8.0990 h5        1 S05      0.061100
     44 H42        -0.5000   -6.7620    4.4150 h4        1 S05      0.041100
     45 HN39       -1.3720   -5.0980    8.2110 hn        1 S05      0.299700
@<TRIPOS>BOND
     1    1    2 1   
     2    1    6 ar  
     3    1   10 ar  
     4    2    3 1   
     5    2   24 1   
     6    2   25 1   
     7    3    4 1   
     8    3   26 1   
     9    3   27 1   
    10    4    5 1   
    11    4   28 1   
    12    4   29 1   
    13    5    6 1   
    14    5   11 1   
    15    6    7 ar  
    16    7    8 ar  
    17    7   30 1   
    18    8    9 ar  
    19    8   31 1   
    20    9   10 ar  
    21    9   32 1   
    22   10   33 1   
    23   11   12 2   
    24   11   13 1   
    25   13   14 1   
    26   13   18 1   
    27   14   15 1   
    28   14   34 1   
    29   14   35 1   
    30   15   16 1   
    31   15   36 1   
    32   15   37 1   
    33   16   17 1   
    34   16   19 1   
    35   16   38 1   
    36   17   18 1   
    37   17   39 1   
    38   17   40 1   
    39   18   41 1   
    40   18   42 1   
    41   19   20 1   
    42   19   23 2   
    43   20   21 1   
    44   20   45 1   
    45   21   22 2   
    46   21   43 1   
    47   22   23 1   
    48   23   44 1   
@<TRIPOS>SUBSTRUCTURE
     1 S05         1 TEMP              0 ****  ****    0 ROOT
