@<TRIPOS>MOLECULE
S05
   45    43     1     0     0
SMALL
bcc


@<TRIPOS>ATOM
      1 C1          2.1590    0.2010   -2.9710 c1        1 S05     -0.109000
      2 C2          3.7150    0.0510   -2.9200 c3        1 S05     -0.117000
      3 C3          4.3030    0.1300   -1.6600 c3        1 S05     -0.167000
      4 C4          3.5630   -0.4590   -0.5520 c3        1 S05     -0.008000
      5 N5          2.2470   -0.0510   -0.3940 n         1 S05     -0.287000
      6 C6          1.4370    0.2470   -1.6850 c2        1 S05      0.080000
      7 C13         0.2400    0.9790   -1.5800 c2        1 S05     -0.151000
      8 C14        -0.2710    1.6740   -2.7120 c1        1 S05     -0.115000
      9 C15         0.4350    1.6280   -3.9680 c1        1 S05     -0.129000
     10 C16         1.6510    0.8860   -4.0810 c1        1 S05     -0.129000
     11 C21         1.8060    0.5110    0.8900 c2        1 S05      0.377000
     12 O22         2.6040    0.6190    1.8100 o         1 S05     -0.382000
     13 N23         0.3700    0.6790    1.1500 n         1 S05     -0.272000
     14 C24        -0.1730    0.9760    2.4870 c3        1 S05     -0.055000
     15 C25        -1.2830    0.0080    2.8910 c3        1 S05     -0.184000
     16 C26        -2.3440   -0.1080    1.8390 c3        1 S05     -0.032000
     17 C27        -1.7690   -0.4120    0.4970 c3        1 S05     -0.184000
     18 C28        -0.6440    0.5640    0.1100 c3        1 S05     -0.055000
     19 C38        -3.3350   -1.2510    2.2390 c2        1 S05     -0.119000
     20 N39        -4.6580   -1.1150    2.4400 n2        1 S05     -0.203000
     21 C40        -5.1580   -2.3350    2.8030 c1        1 S05     -0.105000
     22 N41        -4.1300   -3.2200    2.8240 n2        1 S05     -0.139000
     23 C42        -3.0040   -2.5620    2.4780 c1        1 S05     -0.165000
     24 H2          4.1010    0.7430   -3.4760 hc        1 S05      0.093000
     25 H2A         3.9510   -0.8290   -3.3130 hc        1 S05      0.093000
     26 H3          5.1990   -0.3200   -1.7080 hc        1 S05      0.093500
     27 H3A         4.4480    1.0760   -1.4550 hc        1 S05      0.093500
     28 H4          3.5530   -1.4260   -0.6930 h1        1 S05      0.096000
     29 H4A         4.0350   -0.2380    0.2620 h1        1 S05      0.096000
     30 H13        -0.2370    1.0130   -0.7350 ha        1 S05      0.152000
     31 H14        -1.1090    2.1870   -2.6370 ha        1 S05      0.133000
     32 H15         0.0780    2.1110   -4.7510 ha        1 S05      0.133000
     33 H16         2.1360    0.8550   -4.9500 ha        1 S05      0.133000
     34 H24        -0.5350    1.8940    2.4860 h1        1 S05      0.104750
     35 H24A        0.5500    0.9210    3.1440 h1        1 S05      0.104750
     36 H25        -0.8880   -0.8850    3.0480 hc        1 S05      0.100750
     37 H25A       -1.7040    0.3320    3.7440 hc        1 S05      0.100750
     38 H26        -2.8400    0.7430    1.7910 hc        1 S05      0.086000
     39 H27        -2.4980   -0.3570   -0.1880 hc        1 S05      0.100750
     40 H27A       -1.4050   -1.3370    0.5050 hc        1 S05      0.100750
     41 H28        -0.2130    0.2460   -0.7230 h1        1 S05      0.104750
     42 H28A       -1.0330    1.4460   -0.0510 h1        1 S05      0.104750
     43 H40        -6.0890   -2.5340    3.0100 DU        1 S05      0.208667
     44 H42        -2.1170   -2.9480    2.4080 DU        1 S05      0.208667
     45 HN39       -5.1450   -0.3350    2.3470 DU        1 S05      0.208667
@<TRIPOS>BOND
     1    1    2 1   
     2    1    6 1   
     3    2    3 1   
     4    2   24 1   
     5    2   25 1   
     6    3    4 1   
     7    3   26 1   
     8    3   27 1   
     9    4    5 1   
    10    4   28 1   
    11    4   29 1   
    12    5    6 1   
    13    5   11 1   
    14    6    7 1   
    15    7    8 1   
    16    7   30 1   
    17    8   31 1   
    18    9   10 1   
    19    9   32 1   
    20   10   33 1   
    21   11   12 1   
    22   11   13 1   
    23   13   14 1   
    24   13   18 1   
    25   14   15 1   
    26   14   34 1   
    27   14   35 1   
    28   15   16 1   
    29   15   36 1   
    30   15   37 1   
    31   16   17 1   
    32   16   19 1   
    33   16   38 1   
    34   17   18 1   
    35   17   39 1   
    36   17   40 1   
    37   18   41 1   
    38   18   42 1   
    39   19   20 1   
    40   19   23 1   
    41   20   21 1   
    42   21   22 1   
    43   22   23 1   
@<TRIPOS>SUBSTRUCTURE
     1 S05         1 TEMP              0 ****  ****    0 ROOT
