@<TRIPOS>MOLECULE
S05
   45    48     1     0     0
SMALL
bcc


@<TRIPOS>ATOM
      1 C1          4.0950   -0.2280   -0.4620 ca        1 S05     -0.112300
      2 C2          4.5680   -1.6060   -0.1590 c3        1 S05     -0.032100
      3 C3          3.5750   -2.3900    0.6670 c3        1 S05     -0.104400
      4 C4          2.1610   -2.1750    0.1330 c3        1 S05      0.085000
      5 N5          1.7510   -0.7830    0.0940 n         1 S05     -0.364000
      6 C6          2.7420    0.1570   -0.2980 ca        1 S05      0.065600
      7 C13         2.3710    1.4850   -0.6110 ca        1 S05     -0.130000
      8 C14         3.3130    2.3890   -1.0830 ca        1 S05     -0.113000
      9 C15         4.6420    2.0020   -1.2560 ca        1 S05     -0.146000
     10 C16         5.0230    0.7020   -0.9440 ca        1 S05     -0.113000
     11 C21         0.7290   -0.3430    0.9920 c         1 S05      0.741100
     12 O22         0.8570    0.7160    1.6440 o         1 S05     -0.602100
     13 N23        -0.4340   -1.1550    1.1690 n         1 S05     -0.423800
     14 C24        -1.0460   -1.7800    0.0100 c3        1 S05      0.067500
     15 C25        -2.1100   -0.9300   -0.6870 c3        1 S05     -0.105400
     16 C26        -3.1650   -0.4610    0.3080 c3        1 S05      0.011600
     17 C27        -2.4980    0.2480    1.4810 c3        1 S05     -0.105400
     18 C28        -1.4190   -0.6360    2.1060 c3        1 S05      0.067500
     19 C38        -4.1610    0.4070   -0.3640 cc        1 S05     -0.213900
     20 N39        -5.2010    1.0730    0.2980 na        1 S05     -0.315900
     21 C40        -5.9290    1.7610   -0.6780 cc        1 S05      0.386400
     22 N41        -5.4140    1.5610   -1.9110 nd        1 S05     -0.665000
     23 C42        -4.3160    0.7250   -1.7320 cd        1 S05      0.296200
     24 H2          4.7530   -2.1410   -1.1310 hc        1 S05      0.052700
     25 H2A         5.5510   -1.5570    0.3820 hc        1 S05      0.052700
     26 H3          3.8130   -3.4840    0.6200 hc        1 S05      0.055200
     27 H3A         3.6340   -2.0750    1.7420 hc        1 S05      0.055200
     28 H4          2.1140   -2.5580   -0.9280 h1        1 S05      0.058200
     29 H4A         1.4470   -2.7830    0.7550 h1        1 S05      0.058200
     30 H13         1.3310    1.8150   -0.4610 ha        1 S05      0.147000
     31 H14         3.0050    3.4190   -1.3200 ha        1 S05      0.134000
     32 H15         5.3840    2.7210   -1.6310 ha        1 S05      0.132000
     33 H16         6.0710    0.3910   -1.0710 ha        1 S05      0.130000
     34 H24        -0.2680   -2.0700   -0.7480 h1        1 S05      0.065200
     35 H24A       -1.5290   -2.7290    0.3840 h1        1 S05      0.065200
     36 H25        -1.6350   -0.0430   -1.1800 hc        1 S05      0.058700
     37 H25A       -2.5930   -1.5480   -1.4870 hc        1 S05      0.058700
     38 H26        -3.7010   -1.3730    0.7070 hc        1 S05      0.055700
     39 H27        -2.0440    1.2130    1.1360 hc        1 S05      0.058700
     40 H27A       -3.2550    0.4880    2.2710 hc        1 S05      0.058700
     41 H28        -1.9080   -1.5400    2.5720 h1        1 S05      0.065200
     42 H28A       -0.8950   -0.0570    2.9180 h1        1 S05      0.065200
     43 H40        -6.8040    2.3740   -0.4400 h5        1 S05      0.061100
     44 H42        -3.7030    0.3990   -2.5710 h4        1 S05      0.041100
     45 HN39       -5.3590    1.0730    1.2690 hn        1 S05      0.299700
@<TRIPOS>BOND
     1    1    2 1   
     2    1    6 ar  
     3    1   10 ar  
     4    2    3 1   
     5    2   24 1   
     6    2   25 1   
     7    3    4 1   
     8    3   26 1   
     9    3   27 1   
    10    4    5 1   
    11    4   28 1   
    12    4   29 1   
    13    5    6 1   
    14    5   11 1   
    15    6    7 ar  
    16    7    8 ar  
    17    7   30 1   
    18    8    9 ar  
    19    8   31 1   
    20    9   10 ar  
    21    9   32 1   
    22   10   33 1   
    23   11   12 2   
    24   11   13 1   
    25   13   14 1   
    26   13   18 1   
    27   14   15 1   
    28   14   34 1   
    29   14   35 1   
    30   15   16 1   
    31   15   36 1   
    32   15   37 1   
    33   16   17 1   
    34   16   19 1   
    35   16   38 1   
    36   17   18 1   
    37   17   39 1   
    38   17   40 1   
    39   18   41 1   
    40   18   42 1   
    41   19   20 1   
    42   19   23 2   
    43   20   21 1   
    44   20   45 1   
    45   21   22 2   
    46   21   43 1   
    47   22   23 1   
    48   23   44 1   
@<TRIPOS>SUBSTRUCTURE
     1 S05         1 TEMP              0 ****  ****    0 ROOT
