@<TRIPOS>MOLECULE
S05
   45    48     1     0     0
SMALL
bcc


@<TRIPOS>ATOM
      1 C1         -0.2390    0.0910    0.0930 ca        1 S05     -0.112300
      2 C2          1.1200    0.6780   -0.0540 c3        1 S05     -0.032100
      3 C3          1.9090    0.6440    1.2350 c3        1 S05     -0.104400
      4 C4          1.7390   -0.7120    1.9180 c3        1 S05      0.085000
      5 N5          0.3580   -1.0630    2.1960 n         1 S05     -0.364000
      6 C6         -0.5950   -0.7140    1.2020 ca        1 S05      0.065600
      7 C13        -1.9070   -1.2390    1.2660 ca        1 S05     -0.130000
      8 C14        -2.8220   -0.9800    0.2540 ca        1 S05     -0.113000
      9 C15        -2.4620   -0.1980   -0.8430 ca        1 S05     -0.146000
     10 C16        -1.1790    0.3320   -0.9150 ca        1 S05     -0.113000
     11 C21        -0.0790   -1.1050    3.5570 c         1 S05      0.741100
     12 O22        -1.1560   -0.5730    3.9040 o         1 S05     -0.602100
     13 N23         0.7570   -1.7320    4.5330 n         1 S05     -0.423800
     14 C24         1.4220   -2.9790    4.2010 c3        1 S05      0.067500
     15 C25         0.6140   -4.2390    4.5180 c3        1 S05     -0.105400
     16 C26         0.1470   -4.2330    5.9690 c3        1 S05      0.011600
     17 C27        -0.6040   -2.9410    6.2700 c3        1 S05     -0.105400
     18 C28         0.2400   -1.7230    5.8940 c3        1 S05      0.067500
     19 C38        -0.6810   -5.4290    6.2510 cc        1 S05     -0.213900
     20 N39        -1.3370   -5.6640    7.4670 na        1 S05     -0.315900
     21 C40        -1.9840   -6.8970    7.3480 cc        1 S05      0.386400
     22 N41        -1.7700   -7.4520    6.1350 nd        1 S05     -0.665000
     23 C42        -0.9640   -6.5530    5.4440 cd        1 S05      0.296200
     24 H2          1.0360    1.7400   -0.4130 hc        1 S05      0.052700
     25 H2A         1.6730    0.1050   -0.8480 hc        1 S05      0.052700
     26 H3          1.5680    1.4640    1.9180 hc        1 S05      0.055200
     27 H3A         2.9970    0.8050    1.0260 hc        1 S05      0.055200
     28 H4          2.3490   -0.7150    2.8630 h1        1 S05      0.058200
     29 H4A         2.1470   -1.5130    1.2350 h1        1 S05      0.058200
     30 H13        -2.2160   -1.8410    2.1350 ha        1 S05      0.147000
     31 H14        -3.8380   -1.3970    0.3240 ha        1 S05      0.134000
     32 H15        -3.1890    0.0030   -1.6430 ha        1 S05      0.132000
     33 H16        -0.8900    0.9560   -1.7750 ha        1 S05      0.130000
     34 H24         1.7110   -3.0040    3.1140 h1        1 S05      0.065200
     35 H24A        2.3740   -2.9980    4.8080 h1        1 S05      0.065200
     36 H25        -0.2730   -4.3110    3.8360 hc        1 S05      0.058700
     37 H25A        1.2610   -5.1350    4.3320 hc        1 S05      0.058700
     38 H26         1.0620   -4.2700    6.6310 hc        1 S05      0.055700
     39 H27        -0.8440   -2.8770    7.3620 hc        1 S05      0.058700
     40 H27A       -1.5710   -2.9210    5.7030 hc        1 S05      0.058700
     41 H28         1.1440   -1.6790    6.5670 h1        1 S05      0.065200
     42 H28A       -0.3700   -0.7900    6.0560 h1        1 S05      0.065200
     43 H40        -2.5810   -7.3320    8.1560 h5        1 S05      0.061100
     44 H42        -0.6340   -6.7470    4.4240 h4        1 S05      0.041100
     45 HN39       -1.3540   -5.0540    8.2390 hn        1 S05      0.299700
@<TRIPOS>BOND
     1    1    2 1   
     2    1    6 ar  
     3    1   10 ar  
     4    2    3 1   
     5    2   24 1   
     6    2   25 1   
     7    3    4 1   
     8    3   26 1   
     9    3   27 1   
    10    4    5 1   
    11    4   28 1   
    12    4   29 1   
    13    5    6 1   
    14    5   11 1   
    15    6    7 ar  
    16    7    8 ar  
    17    7   30 1   
    18    8    9 ar  
    19    8   31 1   
    20    9   10 ar  
    21    9   32 1   
    22   10   33 1   
    23   11   12 2   
    24   11   13 1   
    25   13   14 1   
    26   13   18 1   
    27   14   15 1   
    28   14   34 1   
    29   14   35 1   
    30   15   16 1   
    31   15   36 1   
    32   15   37 1   
    33   16   17 1   
    34   16   19 1   
    35   16   38 1   
    36   17   18 1   
    37   17   39 1   
    38   17   40 1   
    39   18   41 1   
    40   18   42 1   
    41   19   20 1   
    42   19   23 2   
    43   20   21 1   
    44   20   45 1   
    45   21   22 2   
    46   21   43 1   
    47   22   23 1   
    48   23   44 1   
@<TRIPOS>SUBSTRUCTURE
     1 S05         1 TEMP              0 ****  ****    0 ROOT
