@<TRIPOS>MOLECULE
S05
   45    48     1     0     0
SMALL
bcc


@<TRIPOS>ATOM
      1 C1         -0.2360    0.0840    0.0880 ca        1 S05     -0.112300
      2 C2          1.1130    0.6990   -0.0390 c3        1 S05     -0.032100
      3 C3          1.8820    0.6820    1.2620 c3        1 S05     -0.104400
      4 C4          1.7290   -0.6750    1.9450 c3        1 S05      0.085000
      5 N5          0.3520   -1.0540    2.2020 n         1 S05     -0.364000
      6 C6         -0.5930   -0.7270    1.1930 ca        1 S05      0.065600
      7 C13        -1.8940   -1.2790    1.2380 ca        1 S05     -0.130000
      8 C14        -2.7980   -1.0410    0.2110 ca        1 S05     -0.113000
      9 C15        -2.4380   -0.2530   -0.8820 ca        1 S05     -0.146000
     10 C16        -1.1650    0.3020   -0.9350 ca        1 S05     -0.113000
     11 C21        -0.1050   -1.1030    3.5570 c         1 S05      0.741100
     12 O22        -1.1980   -0.5920    3.8860 o         1 S05     -0.602100
     13 N23         0.7280   -1.7110    4.5470 n         1 S05     -0.423800
     14 C24         1.4240   -2.9450    4.2270 c3        1 S05      0.067500
     15 C25         0.6370   -4.2210    4.5340 c3        1 S05     -0.105400
     16 C26         0.1470   -4.2210    5.9770 c3        1 S05      0.011600
     17 C27        -0.6350   -2.9450    6.2640 c3        1 S05     -0.105400
     18 C28         0.1900   -1.7100    5.8990 c3        1 S05      0.067500
     19 C38        -0.6610   -5.4340    6.2490 cc        1 S05     -0.213900
     20 N39        -1.3310   -5.6800    7.4540 na        1 S05     -0.315900
     21 C40        -1.9520   -6.9270    7.3270 cc        1 S05      0.386400
     22 N41        -1.7050   -7.4800    6.1190 nd        1 S05     -0.665000
     23 C42        -0.9070   -6.5650    5.4390 cd        1 S05      0.296200
     24 H2          1.0120    1.7570   -0.4020 hc        1 S05      0.052700
     25 H2A         1.6900    0.1350   -0.8230 hc        1 S05      0.052700
     26 H3          1.5130    1.4970    1.9380 hc        1 S05      0.055200
     27 H3A         2.9700    0.8660    1.0690 hc        1 S05      0.055200
     28 H4          2.3240   -0.6640    2.9000 h1        1 S05      0.058200
     29 H4A         2.1650   -1.4690    1.2710 h1        1 S05      0.058200
     30 H13        -2.2050   -1.8850    2.1040 ha        1 S05      0.147000
     31 H14        -3.8070   -1.4780    0.2660 ha        1 S05      0.134000
     32 H15        -3.1560   -0.0700   -1.6930 ha        1 S05      0.132000
     33 H16        -0.8760    0.9310   -1.7910 ha        1 S05      0.130000
     34 H24         1.7300   -2.9650    3.1460 h1        1 S05      0.065200
     35 H24A        2.3660   -2.9430    4.8500 h1        1 S05      0.065200
     36 H25         1.3060   -5.1030    4.3610 hc        1 S05      0.058700
     37 H25A       -0.2370   -4.3120    3.8380 hc        1 S05      0.058700
     38 H26         1.0520   -4.2390    6.6540 hc        1 S05      0.055700
     39 H27        -1.5930   -2.9460    5.6820 hc        1 S05      0.058700
     40 H27A       -0.8930   -2.8840    7.3520 hc        1 S05      0.058700
     41 H28        -0.4420   -0.7900    6.0500 h1        1 S05      0.065200
     42 H28A        1.0820   -1.6470    6.5870 h1        1 S05      0.065200
     43 H40        -2.5530   -7.3730    8.1260 h5        1 S05      0.061100
     44 H42        -0.5560   -6.7540    4.4260 h4        1 S05      0.041100
     45 HN39       -1.3740   -5.0700    8.2250 hn        1 S05      0.299700
@<TRIPOS>BOND
     1    1    2 1   
     2    1    6 ar  
     3    1   10 ar  
     4    2    3 1   
     5    2   24 1   
     6    2   25 1   
     7    3    4 1   
     8    3   26 1   
     9    3   27 1   
    10    4    5 1   
    11    4   28 1   
    12    4   29 1   
    13    5    6 1   
    14    5   11 1   
    15    6    7 ar  
    16    7    8 ar  
    17    7   30 1   
    18    8    9 ar  
    19    8   31 1   
    20    9   10 ar  
    21    9   32 1   
    22   10   33 1   
    23   11   12 2   
    24   11   13 1   
    25   13   14 1   
    26   13   18 1   
    27   14   15 1   
    28   14   34 1   
    29   14   35 1   
    30   15   16 1   
    31   15   36 1   
    32   15   37 1   
    33   16   17 1   
    34   16   19 1   
    35   16   38 1   
    36   17   18 1   
    37   17   39 1   
    38   17   40 1   
    39   18   41 1   
    40   18   42 1   
    41   19   20 1   
    42   19   23 2   
    43   20   21 1   
    44   20   45 1   
    45   21   22 2   
    46   21   43 1   
    47   22   23 1   
    48   23   44 1   
@<TRIPOS>SUBSTRUCTURE
     1 S05         1 TEMP              0 ****  ****    0 ROOT
