@<TRIPOS>MOLECULE
S06
   46    43     1     0     0
SMALL
bcc


@<TRIPOS>ATOM
      1 C10         2.8110    0.5590    1.0930 c1        1 S06     -0.048000
      2 C11         4.2310    0.5130    1.0470 cg        1 S06     -0.036500
      3 C12         4.9820    0.7000    2.2260 c1        1 S06     -0.064000
      4 C13         6.3780    0.6390    2.1830 c1        1 S06     -0.064000
      5 C14         7.0260    0.3930    0.9760 c1        1 S06     -0.064000
      6 C15         6.2840    0.2080   -0.1900 c1        1 S06     -0.064000
      7 C16         4.8740    0.2700   -0.1480 cg        1 S06     -0.036500
      8 C17         4.1150    0.0640   -1.3370 c1        1 S06     -0.048000
      9 C18         2.7140    0.1090   -1.2920 c1        1 S06     -0.070500
     10 C9          2.0620    0.3550   -0.0820 c1        1 S06     -0.097000
     11 C8          0.5260    0.7570    0.0010 c2        1 S06      0.215200
     12 C7         -0.3790   -0.5490    0.0770 c3        1 S06     -0.169700
     13 N1          0.1830    1.3640   -1.0370 nh        1 S06     -0.170200
     14 O7         -1.2950    0.9540   -1.2740 os        1 S06     -0.323000
     15 C1         -1.5480   -0.2030   -0.3430 c3        1 S06      0.313600
     16 O5         -2.3600    0.2370    0.7780 os        1 S06     -0.404600
     17 C5         -3.7360    0.5250    0.4000 c3        1 S06      0.075100
     18 C6         -4.5230    0.7870    1.6240 c3        1 S06      0.124400
     19 O6         -5.2330    1.9900    1.4760 oh        1 S06     -0.605800
     20 C4         -4.3930   -0.6410   -0.3770 c3        1 S06      0.090100
     21 O4         -5.6660   -0.2160   -0.8600 oh        1 S06     -0.611800
     22 C3         -3.5720   -1.0850   -1.5180 c3        1 S06      0.110100
     23 O3         -4.1700   -2.3070   -2.0890 oh        1 S06     -0.611800
     24 C2         -2.1880   -1.3710   -1.1270 c3        1 S06      0.130100
     25 O2         -1.4170   -1.6160   -2.3030 oh        1 S06     -0.603800
     26 H10         2.3580    0.7300    1.9330 ha        1 S06      0.078500
     27 H12         4.5300    0.8710    3.0670 ha        1 S06      0.075750
     28 H13         6.8950    0.7680    2.9950 ha        1 S06      0.075750
     29 H14         8.0020    0.3500    0.9460 ha        1 S06      0.075750
     30 H15         6.7440    0.0340   -1.0440 ha        1 S06      0.075750
     31 H17         4.5670   -0.1070   -2.1750 ha        1 S06      0.078500
     32 H18         2.1980   -0.0310   -2.1010 ha        1 S06      0.098500
     33 H8          0.3680    1.3210    0.7870 h4        1 S06     -0.003200
     34 H71        -0.0100   -1.2460   -0.4960 hc        1 S06      0.084200
     35 H72        -0.4340   -0.8680    1.0070 hc        1 S06      0.084200
     36 HN1         0.6970    1.0770   -1.7430 hn        1 S06      0.191700
     37 H5         -3.7500    1.3260   -0.1620 h1        1 S06      0.079700
     38 H61        -5.1580    0.0460    1.7720 h1        1 S06      0.065700
     39 H62        -3.9270    0.8560    2.3810 h1        1 S06      0.065700
     40 HO6        -5.7810    2.0890    2.1520 ho        1 S06      0.410000
     41 H4         -4.5210   -1.3960    0.2340 h1        1 S06      0.056700
     42 HO4        -6.3080   -0.7210   -0.4940 ho        1 S06      0.432000
     43 H3         -3.5710   -0.3840   -2.2000 h1        1 S06      0.078700
     44 HO3        -4.9340   -2.4910   -1.6640 ho        1 S06      0.430000
     45 H2         -2.1770   -2.1800   -0.5620 h1        1 S06      0.065700
     46 HO2        -1.4940   -2.4810   -2.5380 ho        1 S06      0.431000
@<TRIPOS>BOND
     1    1    2 3   
     2    1   26 1   
     3    2    7 1   
     4    3    4 3   
     5    3   27 1   
     6    4   28 1   
     7    5    6 3   
     8    5   29 1   
     9    6   30 1   
    10    7    8 3   
    11    8   31 1   
    12    9   10 3   
    13    9   32 1   
    14   11   12 1   
    15   11   13 2   
    16   11   33 1   
    17   12   15 1   
    18   12   34 1   
    19   12   35 1   
    20   13   14 1   
    21   13   36 1   
    22   14   15 1   
    23   15   16 1   
    24   15   24 1   
    25   16   17 1   
    26   17   18 1   
    27   17   20 1   
    28   17   37 1   
    29   18   19 1   
    30   18   38 1   
    31   18   39 1   
    32   19   40 1   
    33   20   21 1   
    34   20   22 1   
    35   20   41 1   
    36   21   42 1   
    37   22   23 1   
    38   22   24 1   
    39   22   43 1   
    40   23   44 1   
    41   24   25 1   
    42   24   45 1   
    43   25   46 1   
@<TRIPOS>SUBSTRUCTURE
     1 S06         1 TEMP              0 ****  ****    0 ROOT
