@<TRIPOS>MOLECULE
S06
   46    49     1     0     0
SMALL
bcc


@<TRIPOS>ATOM
      1 C10         0.1170    0.1420    0.1760 ca        1 S06     -0.111000
      2 C11         1.4970    0.0510   -0.1540 ca        1 S06     -0.041000
      3 C12         2.5110    0.3050    0.8100 ca        1 S06     -0.116000
      4 C13         3.8370    0.2140    0.4660 ca        1 S06     -0.131000
      5 C14         4.2120   -0.1340   -0.8540 ca        1 S06     -0.127000
      6 C15         3.2530   -0.3830   -1.8040 ca        1 S06     -0.119000
      7 C16         1.8720   -0.2970   -1.4770 ca        1 S06     -0.031000
      8 C17         0.8560   -0.5480   -2.4390 ca        1 S06     -0.127000
      9 C18        -0.4700   -0.4620   -2.0960 ca        1 S06     -0.098000
     10 C9         -0.8480   -0.1150   -0.7720 ca        1 S06     -0.071300
     11 C8         -2.3030   -0.0340   -0.4100 c3        1 S06      0.164800
     12 C7         -3.0090   -1.3990   -0.6090 c3        1 S06     -0.094400
     13 N1         -3.0360    0.9500   -1.2690 n3        1 S06     -0.498700
     14 O7         -3.8620    0.2690   -2.0900 os        1 S06     -0.237100
     15 C1         -4.1290   -1.0720   -1.6100 c3        1 S06      0.304600
     16 O5         -5.3470   -0.9800   -0.8910 os        1 S06     -0.428600
     17 C5         -6.4730   -0.5500   -1.6670 c3        1 S06      0.146100
     18 C6         -7.6670   -0.5520   -0.7110 c3        1 S06      0.135400
     19 O6         -7.6570    0.6940   -0.0350 oh        1 S06     -0.595800
     20 C4         -6.7060   -1.5240   -2.8350 c3        1 S06      0.119100
     21 O4         -7.7940   -1.0310   -3.5940 oh        1 S06     -0.591800
     22 C3         -5.4270   -1.5810   -3.6880 c3        1 S06      0.065100
     23 O3         -5.6530   -2.5280   -4.7200 oh        1 S06     -0.607800
     24 C2         -4.2620   -2.0380   -2.7960 c3        1 S06      0.114100
     25 O2         -3.0420   -2.0460   -3.5140 oh        1 S06     -0.580800
     26 H10        -0.1570    0.4230    1.2040 ha        1 S06      0.130000
     27 H12         2.2110    0.5760    1.8330 ha        1 S06      0.131000
     28 H13         4.6240    0.4100    1.2100 ha        1 S06      0.131000
     29 H14         5.2810   -0.1990   -1.1060 ha        1 S06      0.131000
     30 H15         3.5340   -0.6530   -2.8340 ha        1 S06      0.132000
     31 H17         1.1540   -0.8110   -3.4650 ha        1 S06      0.133000
     32 H18        -1.2660   -0.6550   -2.8370 ha        1 S06      0.164000
     33 H8         -2.3880    0.2770    0.6710 h1        1 S06      0.061700
     34 H71        -2.3180   -2.1570   -1.0490 hc        1 S06      0.084200
     35 H72        -3.4300   -1.7800    0.3510 hc        1 S06      0.084200
     36 HN1        -3.6180    1.5090   -0.6410 hn        1 S06      0.343800
     37 H5         -6.2840    0.4880   -2.0570 h1        1 S06      0.095700
     38 H61        -8.6110   -0.6580   -1.3120 h1        1 S06      0.044700
     39 H62        -7.5790   -1.3950    0.0240 h1        1 S06      0.044700
     40 HO6        -8.3920    0.6720    0.5890 ho        1 S06      0.402000
     41 H4         -6.9490   -2.5530   -2.4500 h1        1 S06      0.055700
     42 HO4        -7.8440   -1.5830   -4.3860 ho        1 S06      0.421000
     43 H3         -5.2020   -0.5650   -4.1150 h1        1 S06      0.087700
     44 HO3        -5.0810   -2.2810   -5.4560 ho        1 S06      0.412000
     45 H2         -4.4750   -3.0670   -2.3880 h1        1 S06      0.062700
     46 HO2        -3.1300   -2.7400   -4.1800 ho        1 S06      0.408000
@<TRIPOS>BOND
     1    1    2 ar  
     2    1   10 ar  
     3    1   26 1   
     4    2    3 ar  
     5    2    7 ar  
     6    3    4 ar  
     7    3   27 1   
     8    4    5 ar  
     9    4   28 1   
    10    5    6 ar  
    11    5   29 1   
    12    6    7 ar  
    13    6   30 1   
    14    7    8 ar  
    15    8    9 ar  
    16    8   31 1   
    17    9   10 ar  
    18    9   32 1   
    19   10   11 1   
    20   11   12 1   
    21   11   13 1   
    22   11   33 1   
    23   12   15 1   
    24   12   34 1   
    25   12   35 1   
    26   13   14 1   
    27   13   36 1   
    28   14   15 1   
    29   15   16 1   
    30   15   24 1   
    31   16   17 1   
    32   17   18 1   
    33   17   20 1   
    34   17   37 1   
    35   18   19 1   
    36   18   38 1   
    37   18   39 1   
    38   19   40 1   
    39   20   21 1   
    40   20   22 1   
    41   20   41 1   
    42   21   42 1   
    43   22   23 1   
    44   22   24 1   
    45   22   43 1   
    46   23   44 1   
    47   24   25 1   
    48   24   45 1   
    49   25   46 1   
@<TRIPOS>SUBSTRUCTURE
     1 S06         1 TEMP              0 ****  ****    0 ROOT
