@<TRIPOS>MOLECULE
S06
   46    49     1     0     0
SMALL
bcc


@<TRIPOS>ATOM
      1 C10         3.1230    1.1850    0.0230 ca        1 S06     -0.094000
      2 C11         4.4110    0.5860    0.0810 ca        1 S06     -0.041000
      3 C12         5.5920    1.3690    0.2010 ca        1 S06     -0.115000
      4 C13         6.8250    0.7660    0.2520 ca        1 S06     -0.127000
      5 C14         6.9350   -0.6440    0.1850 ca        1 S06     -0.123000
      6 C15         5.8110   -1.4240    0.0690 ca        1 S06     -0.119000
      7 C16         4.5220   -0.8270    0.0140 ca        1 S06     -0.032000
      8 C17         3.3390   -1.6070   -0.1070 ca        1 S06     -0.115000
      9 C18         2.1070   -1.0060   -0.1570 ca        1 S06     -0.128000
     10 C9          1.9920    0.4090   -0.0890 ca        1 S06     -0.105300
     11 C8          0.6370    1.0460   -0.1420 c3        1 S06      0.160800
     12 C7         -0.2720    0.5600    1.0120 c3        1 S06     -0.094400
     13 N1         -0.1080    0.7990   -1.4120 n3        1 S06     -0.499700
     14 O7         -1.3880    0.4850   -1.1120 os        1 S06     -0.253100
     15 C1         -1.5930    0.2280    0.3010 c3        1 S06      0.312600
     16 O5         -2.5660    1.1760    0.6890 os        1 S06     -0.413600
     17 C5         -3.8220    1.0550    0.0120 c3        1 S06      0.073100
     18 C6         -4.7150    2.1440    0.6160 c3        1 S06      0.137400
     19 O6         -4.3830    3.4160    0.1090 oh        1 S06     -0.593800
     20 C4         -4.4270   -0.3380    0.2310 c3        1 S06      0.081100
     21 O4         -5.6480   -0.5010   -0.4640 oh        1 S06     -0.591800
     22 C3         -3.4240   -1.4130   -0.2150 c3        1 S06      0.074100
     23 O3         -3.8780   -2.7150    0.1140 oh        1 S06     -0.608800
     24 C2         -2.0900   -1.2130    0.5160 c3        1 S06      0.133100
     25 O2         -1.0920   -2.0850    0.0160 oh        1 S06     -0.602800
     26 H10         3.0530    2.2840    0.0680 ha        1 S06      0.137000
     27 H12         5.4960    2.4640    0.2510 ha        1 S06      0.134000
     28 H13         7.7400    1.3690    0.3440 ha        1 S06      0.134000
     29 H14         7.9340   -1.1040    0.2280 ha        1 S06      0.133000
     30 H15         5.8860   -2.5200    0.0160 ha        1 S06      0.134000
     31 H17         3.4330   -2.7020   -0.1600 ha        1 S06      0.136000
     32 H18         1.1870   -1.6120   -0.2410 ha        1 S06      0.155000
     33 H8          0.7450    2.1680   -0.0800 h1        1 S06      0.086700
     34 H71         0.1400   -0.3510    1.5070 hc        1 S06      0.084200
     35 H72        -0.4220    1.3630    1.7720 hc        1 S06      0.084200
     36 HN1         0.3040   -0.0220   -1.8610 hn        1 S06      0.346800
     37 H5         -3.6640    1.2440   -1.0860 h1        1 S06      0.082700
     38 H61        -5.7790    1.9640    0.3040 h1        1 S06      0.062200
     39 H62        -4.6300    2.1320    1.7350 h1        1 S06      0.062200
     40 HO6        -3.4490    3.5650    0.3040 ho        1 S06      0.414000
     41 H4         -4.6990   -0.4890    1.3140 h1        1 S06      0.098700
     42 HO4        -5.4980   -0.2460   -1.3840 ho        1 S06      0.409000
     43 H3         -3.2580   -1.3490   -1.3280 h1        1 S06      0.067700
     44 HO3        -4.8140   -2.7530   -0.1250 ho        1 S06      0.427000
     45 H2         -2.2290   -1.3940    1.6190 h1        1 S06      0.066700
     46 HO2        -1.4900   -2.9660   -0.0160 ho        1 S06      0.431000
@<TRIPOS>BOND
     1    1    2 ar  
     2    1   10 ar  
     3    1   26 1   
     4    2    3 ar  
     5    2    7 ar  
     6    3    4 ar  
     7    3   27 1   
     8    4    5 ar  
     9    4   28 1   
    10    5    6 ar  
    11    5   29 1   
    12    6    7 ar  
    13    6   30 1   
    14    7    8 ar  
    15    8    9 ar  
    16    8   31 1   
    17    9   10 ar  
    18    9   32 1   
    19   10   11 1   
    20   11   12 1   
    21   11   13 1   
    22   11   33 1   
    23   12   15 1   
    24   12   34 1   
    25   12   35 1   
    26   13   14 1   
    27   13   36 1   
    28   14   15 1   
    29   15   16 1   
    30   15   24 1   
    31   16   17 1   
    32   17   18 1   
    33   17   20 1   
    34   17   37 1   
    35   18   19 1   
    36   18   38 1   
    37   18   39 1   
    38   19   40 1   
    39   20   21 1   
    40   20   22 1   
    41   20   41 1   
    42   21   42 1   
    43   22   23 1   
    44   22   24 1   
    45   22   43 1   
    46   23   44 1   
    47   24   25 1   
    48   24   45 1   
    49   25   46 1   
@<TRIPOS>SUBSTRUCTURE
     1 S06         1 TEMP              0 ****  ****    0 ROOT
