@<TRIPOS>MOLECULE
S06
   46    49     1     0     0
SMALL
bcc


@<TRIPOS>ATOM
      1 C10         0.1270    0.1510    0.1880 ca        1 S06     -0.112000
      2 C11         1.5090    0.0590   -0.1300 ca        1 S06     -0.041000
      3 C12         2.5150    0.3300    0.8380 ca        1 S06     -0.116000
      4 C13         3.8440    0.2370    0.5070 ca        1 S06     -0.131000
      5 C14         4.2300   -0.1300   -0.8050 ca        1 S06     -0.127000
      6 C15         3.2790   -0.3970   -1.7590 ca        1 S06     -0.119000
      7 C16         1.8950   -0.3090   -1.4440 ca        1 S06     -0.031000
      8 C17         0.8870   -0.5780   -2.4100 ca        1 S06     -0.126000
      9 C18        -0.4410   -0.4890   -2.0790 ca        1 S06     -0.098000
     10 C9         -0.8300   -0.1230   -0.7630 ca        1 S06     -0.071300
     11 C8         -2.2880   -0.0400   -0.4150 c3        1 S06      0.164800
     12 C7         -2.9950   -1.4040   -0.6130 c3        1 S06     -0.093400
     13 N1         -3.0130    0.9420   -1.2840 n7        1 S06     -0.498700
     14 O7         -3.8360    0.2590   -2.1070 os        1 S06     -0.237100
     15 C1         -4.1080   -1.0800   -1.6230 c3        1 S06      0.300600
     16 O5         -5.3300   -0.9790   -0.9110 os        1 S06     -0.429600
     17 C5         -6.4490   -0.5510   -1.6950 c3        1 S06      0.148100
     18 C6         -7.6480   -0.5370   -0.7450 c3        1 S06      0.135400
     19 O6         -7.6510    0.7270   -0.1030 oh        1 S06     -0.594800
     20 C4         -6.6730   -1.5390   -2.8520 c3        1 S06      0.087100
     21 O4         -7.7570   -1.0570   -3.6290 oh        1 S06     -0.588800
     22 C3         -5.3930   -1.6020   -3.7020 c3        1 S06      0.064100
     23 O3         -5.5270   -2.5720   -4.7290 oh        1 S06     -0.608800
     24 C2         -4.2290   -2.0530   -2.8060 c3        1 S06      0.148100
     25 O2         -3.0020   -2.0660   -3.5070 oh        1 S06     -0.585800
     26 H10        -0.1560    0.4480    1.2100 ha        1 S06      0.129000
     27 H12         2.2060    0.6170    1.8550 ha        1 S06      0.130000
     28 H13         4.6240    0.4470    1.2530 ha        1 S06      0.130000
     29 H14         5.3010   -0.1970   -1.0470 ha        1 S06      0.131000
     30 H15         3.5690   -0.6820   -2.7810 ha        1 S06      0.132000
     31 H17         1.1940   -0.8570   -3.4290 ha        1 S06      0.133000
     32 H18        -1.2310   -0.6970   -2.8230 ha        1 S06      0.166000
     33 H8         -2.3820    0.2760    0.6640 h1        1 S06      0.060700
     34 H71        -3.4220   -1.7820    0.3450 hc        1 S06      0.085700
     35 H72        -2.3020   -2.1650   -1.0470 hc        1 S06      0.085700
     36 HN1        -3.5970    1.5050   -0.6630 hn        1 S06      0.341800
     37 H5         -6.2540    0.4820   -2.0970 h1        1 S06      0.096700
     38 H61        -7.5580   -1.3620    0.0110 h1        1 S06      0.043700
     39 H62        -8.5890   -0.6640   -1.3460 h1        1 S06      0.043700
     40 HO6        -8.3540    0.6970    0.5560 ho        1 S06      0.402000
     41 H4         -6.9110   -2.5630   -2.4500 h1        1 S06      0.056700
     42 HO4        -7.9670   -1.7560   -4.2610 ho        1 S06      0.406000
     43 H3         -5.1660   -0.5880   -4.1360 h1        1 S06      0.087700
     44 HO3        -5.9650   -2.1350   -5.4690 ho        1 S06      0.413000
     45 H2         -4.4390   -3.0830   -2.4000 h1        1 S06      0.062700
     46 HO2        -3.1740   -2.5190   -4.3450 ho        1 S06      0.424000
@<TRIPOS>BOND
     1    1    2 ar  
     2    1   10 ar  
     3    1   26 1   
     4    2    3 ar  
     5    2    7 ar  
     6    3    4 ar  
     7    3   27 1   
     8    4    5 ar  
     9    4   28 1   
    10    5    6 ar  
    11    5   29 1   
    12    6    7 ar  
    13    6   30 1   
    14    7    8 ar  
    15    8    9 ar  
    16    8   31 1   
    17    9   10 ar  
    18    9   32 1   
    19   10   11 1   
    20   11   12 1   
    21   11   13 1   
    22   11   33 1   
    23   12   15 1   
    24   12   34 1   
    25   12   35 1   
    26   13   14 1   
    27   13   36 1   
    28   14   15 1   
    29   15   16 1   
    30   15   24 1   
    31   16   17 1   
    32   17   18 1   
    33   17   20 1   
    34   17   37 1   
    35   18   19 1   
    36   18   38 1   
    37   18   39 1   
    38   19   40 1   
    39   20   21 1   
    40   20   22 1   
    41   20   41 1   
    42   21   42 1   
    43   22   23 1   
    44   22   24 1   
    45   22   43 1   
    46   23   44 1   
    47   24   25 1   
    48   24   45 1   
    49   25   46 1   
@<TRIPOS>SUBSTRUCTURE
     1 S06         1 TEMP              0 ****  ****    0 ROOT
