@<TRIPOS>MOLECULE
S0A
   32    33     1     0     0
SMALL
bcc


@<TRIPOS>ATOM
      1 C15        -0.0930   -0.3190    0.0740 ca        1 S0A     -0.103000
      2 C14         1.0530    0.4740    0.0710 ca        1 S0A     -0.100000
      3 C13        -0.3960   -1.0970    1.1920 ca        1 S0A     -0.100000
      4 C11         1.9020    0.5010    1.1770 ca        1 S0A     -0.130500
      5 C12         0.4370   -1.0920    2.3060 ca        1 S0A     -0.130500
      6 C9          1.5950   -0.2830    2.3030 ca        1 S0A     -0.004400
      7 C1          3.7420   -0.0310    3.4530 c         1 S0A      0.640100
      8 C4          6.6080   -2.3660    6.9770 cx        1 S0A     -0.101400
      9 C5          6.1630   -0.9840    7.3280 cx        1 S0A     -0.101400
     10 C2          6.3250   -1.3710    5.8770 cx        1 S0A     -0.213700
     11 C10         4.1120   -2.5270    5.4340 c3        1 S0A     -0.136100
     12 C7          5.1340   -1.5080    4.9610 c3        1 S0A      0.176500
     13 N6          2.3960   -0.2590    3.4830 n         1 S0A     -0.408100
     14 N3          4.5100   -0.1350    4.7800 n4        1 S0A     -0.677800
     15 O8          4.4620    0.3230    2.5120 o         1 S0A     -0.489100
     16 H1         -0.7580   -0.3330   -0.8040 ha        1 S0A      0.160000
     17 H2          1.2970    1.0900   -0.8090 ha        1 S0A      0.159000
     18 H3         -1.3020   -1.7260    1.1970 ha        1 S0A      0.159000
     19 H4          2.8050    1.1320    1.1480 ha        1 S0A      0.150500
     20 H5          0.1760   -1.7130    3.1760 ha        1 S0A      0.150500
     21 H6          7.6640   -2.6560    7.1440 hc        1 S0A      0.093950
     22 H7          5.9230   -3.2170    7.1460 hc        1 S0A      0.093950
     23 H8          6.8890   -0.2760    7.7700 hc        1 S0A      0.093950
     24 H9          5.1470   -0.8420    7.7400 hc        1 S0A      0.093950
     25 H10         7.2090   -0.9710    5.3340 hc        1 S0A      0.111700
     26 H11         3.7490   -2.3010    6.4670 hc        1 S0A      0.076367
     27 H12         4.6050   -3.5330    5.4470 hc        1 S0A      0.076367
     28 H13         3.2390   -2.5910    4.7410 hc        1 S0A      0.076367
     29 H14         5.5070   -1.8100    3.9310 hx        1 S0A      0.123700
     30 H15         1.9650   -0.6330    4.3040 hn        1 S0A      0.342500
     31 H16         5.2720    0.5560    4.7260 hn        1 S0A      0.459300
     32 H32         3.9280    0.0840    5.5900 hn        1 S0A      0.459300
@<TRIPOS>BOND
     1    1    2 ar  
     2    1    3 ar  
     3    1   16 1   
     4    2    4 ar  
     5    2   17 1   
     6    3    5 ar  
     7    3   18 1   
     8    4    6 ar  
     9    4   19 1   
    10    5    6 ar  
    11    5   20 1   
    12    6   13 1   
    13    7   13 1   
    14    7   14 1   
    15    7   15 2   
    16    8    9 1   
    17    8   10 1   
    18    8   21 1   
    19    8   22 1   
    20    9   10 1   
    21    9   23 1   
    22    9   24 1   
    23   10   12 1   
    24   10   25 1   
    25   11   12 1   
    26   11   26 1   
    27   11   27 1   
    28   11   28 1   
    29   12   14 1   
    30   12   29 1   
    31   13   30 1   
    32   14   31 1   
    33   14   32 1   
@<TRIPOS>SUBSTRUCTURE
     1 S0A         1 TEMP              0 ****  ****    0 ROOT
