@<TRIPOS>MOLECULE
S0A
   32    33     1     0     0
SMALL
bcc


@<TRIPOS>ATOM
      1 C15        -0.0450   -0.2750    0.0370 ca        1 S0A     -0.103000
      2 C14         1.1060    0.5100    0.0510 ca        1 S0A     -0.100000
      3 C13        -0.3660   -1.0580    1.1480 ca        1 S0A     -0.100000
      4 C11         1.9430    0.5260    1.1660 ca        1 S0A     -0.130500
      5 C12         0.4560   -1.0630    2.2710 ca        1 S0A     -0.130500
      6 C9          1.6180   -0.2610    2.2850 ca        1 S0A     -0.004400
      7 C1          3.7550   -0.0310    3.4590 c         1 S0A      0.639100
      8 C4          6.5650   -2.4040    7.0030 cx        1 S0A     -0.101400
      9 C5          6.1350   -1.0160    7.3510 cx        1 S0A     -0.101400
     10 C2          6.3010   -1.4060    5.9010 cx        1 S0A     -0.213700
     11 C10         4.0760   -2.5340    5.4450 c3        1 S0A     -0.136100
     12 C7          5.1140   -1.5280    4.9780 c3        1 S0A      0.176500
     13 N6          2.4060   -0.2480    3.4740 ns        1 S0A     -0.408100
     14 N3          4.5070   -0.1480    4.7940 ny        1 S0A     -0.678800
     15 O8          4.4870    0.3210    2.5280 o         1 S0A     -0.489100
     16 H1         -0.7010   -0.2800   -0.8480 ha        1 S0A      0.160000
     17 H2          1.3640    1.1290   -0.8240 ha        1 S0A      0.159000
     18 H3         -1.2750   -1.6800    1.1400 ha        1 S0A      0.159000
     19 H4          2.8510    1.1510    1.1510 ha        1 S0A      0.150500
     20 H5          0.1810   -1.6870    3.1350 ha        1 S0A      0.150500
     21 H6          5.8670   -3.2450    7.1700 hc        1 S0A      0.093950
     22 H7          7.6160   -2.7070    7.1770 hc        1 S0A      0.093950
     23 H8          6.8680   -0.3160    7.7960 hc        1 S0A      0.093950
     24 H9          5.1190   -0.8590    7.7570 hc        1 S0A      0.093950
     25 H10         7.1930   -1.0170    5.3630 hc        1 S0A      0.111700
     26 H11         4.5570   -3.5470    5.4610 hc        1 S0A      0.076367
     27 H12         3.7100   -2.3030    6.4760 hc        1 S0A      0.076367
     28 H13         3.2070   -2.5880    4.7470 hc        1 S0A      0.076367
     29 H14         5.4890   -1.8350    3.9500 hx        1 S0A      0.122700
     30 H15         1.9640   -0.6230    4.2880 hn        1 S0A      0.342500
     31 H16         5.2780    0.5350    4.7490 hn        1 S0A      0.459300
     32 H32         3.9200    0.0760    5.5980 hn        1 S0A      0.459300
@<TRIPOS>BOND
     1    1    2 ar  
     2    1    3 ar  
     3    1   16 1   
     4    2    4 ar  
     5    2   17 1   
     6    3    5 ar  
     7    3   18 1   
     8    4    6 ar  
     9    4   19 1   
    10    5    6 ar  
    11    5   20 1   
    12    6   13 1   
    13    7   13 1   
    14    7   14 1   
    15    7   15 2   
    16    8    9 1   
    17    8   10 1   
    18    8   21 1   
    19    8   22 1   
    20    9   10 1   
    21    9   23 1   
    22    9   24 1   
    23   10   12 1   
    24   10   25 1   
    25   11   12 1   
    26   11   26 1   
    27   11   27 1   
    28   11   28 1   
    29   12   14 1   
    30   12   29 1   
    31   13   30 1   
    32   14   31 1   
    33   14   32 1   
@<TRIPOS>SUBSTRUCTURE
     1 S0A         1 TEMP              0 ****  ****    0 ROOT
