@<TRIPOS>MOLECULE
S0A
   33    34     1     0     0
SMALL
bcc


@<TRIPOS>ATOM
      1 C15        -0.5070   -0.2130    2.2460 ca        1 S0A     -0.028000
      2 C14         0.1240   -0.9540    1.2450 ca        1 S0A     -0.089000
      3 C13         0.2520    0.5720    3.1240 ca        1 S0A     -0.089000
      4 C11         1.5110   -0.9180    1.1020 ca        1 S0A     -0.104000
      5 C12         1.6370    0.6260    3.0060 ca        1 S0A     -0.104000
      6 C9          2.2650   -0.1280    1.9920 ca        1 S0A     -0.144400
      7 C1          4.4870   -1.1120    2.4580 c         1 S0A      0.485100
      8 C4          5.1440   -1.3910    7.4890 cx        1 S0A     -0.074900
      9 C5          4.0850   -2.2760    6.9310 cx        1 S0A     -0.074900
     10 C2          4.4200   -0.9820    6.2160 cx        1 S0A     -0.263700
     11 C10         6.4170   -1.7580    4.8480 c3        1 S0A     -0.159100
     12 C7          5.1320   -0.9600    4.8990 c3        1 S0A      0.224500
     13 N6          3.7120   -0.0050    1.7960 n4        1 S0A     -0.497200
     14 N3          4.1190   -1.5030    3.8350 n4        1 S0A     -0.668800
     15 O8          5.3900   -1.6590    1.8450 o         1 S0A     -0.304100
     16 H1         -1.6100   -0.2350    2.3410 ha        1 S0A      0.202000
     17 H2         -0.4770   -1.5650    0.5440 ha        1 S0A      0.199500
     18 H3         -0.2530    1.1710    3.9050 ha        1 S0A      0.199500
     19 H4          1.9830   -1.4920    0.2860 ha        1 S0A      0.166500
     20 H5          2.2090    1.2890    3.6780 ha        1 S0A      0.166500
     21 H6          4.9360   -0.7940    8.4000 hc        1 S0A      0.109450
     22 H7          6.2030   -1.7070    7.4410 hc        1 S0A      0.109450
     23 H8          4.3800   -3.2400    6.4740 hc        1 S0A      0.109450
     24 H9          3.1090   -2.3490    7.4500 hc        1 S0A      0.109450
     25 H10         3.7010   -0.1400    6.3180 hc        1 S0A      0.109700
     26 H11         6.2820   -2.7980    5.2400 hc        1 S0A      0.103033
     27 H12         7.1700   -1.2380    5.5000 hc        1 S0A      0.103033
     28 H13         6.8460   -1.8080    3.8150 hc        1 S0A      0.103033
     29 H14         5.3290    0.1100    4.5890 hx        1 S0A      0.095700
     30 H15         4.0380    0.9070    2.1590 hn        1 S0A      0.507300
     31 H16         3.1700   -1.1830    4.0850 hn        1 S0A      0.495300
     32 H62         3.9280   -0.0480    0.7780 hn        1 S0A      0.507300
     33 H32         4.1430   -2.5370    3.8890 hn        1 S0A      0.495300
@<TRIPOS>BOND
     1    1    2 ar  
     2    1    3 ar  
     3    1   16 1   
     4    2    4 ar  
     5    2   17 1   
     6    3    5 ar  
     7    3   18 1   
     8    4    6 ar  
     9    4   19 1   
    10    5    6 ar  
    11    5   20 1   
    12    6   13 1   
    13    7   13 1   
    14    7   14 1   
    15    7   15 2   
    16    8    9 1   
    17    8   10 1   
    18    8   21 1   
    19    8   22 1   
    20    9   10 1   
    21    9   23 1   
    22    9   24 1   
    23   10   12 1   
    24   10   25 1   
    25   11   12 1   
    26   11   26 1   
    27   11   27 1   
    28   11   28 1   
    29   12   14 1   
    30   12   29 1   
    31   13   30 1   
    32   13   32 1   
    33   14   31 1   
    34   14   33 1   
@<TRIPOS>SUBSTRUCTURE
     1 S0A         1 TEMP              0 ****  ****    0 ROOT
