@<TRIPOS>MOLECULE
S0B
   32    33     1     0     0
SMALL
bcc


@<TRIPOS>ATOM
      1 C15         0.7870   -0.2370   -0.1910 ca        1 S0B     -0.098000
      2 C13         2.0610    0.1960    0.1790 ca        1 S0B     -0.117500
      3 C14        -0.1500   -0.5670    0.7900 ca        1 S0B     -0.117500
      4 C11         2.4010    0.2970    1.5270 ca        1 S0B     -0.115500
      5 C12         0.1860   -0.4670    2.1390 ca        1 S0B     -0.115500
      6 C10         1.4650   -0.0360    2.5130 ca        1 S0B     -0.130300
      7 C1          3.1670   -2.5160    6.3930 c2        1 S0B      0.446100
      8 C7          3.1060   -4.6900    7.0890 c3        1 S0B      0.080800
      9 C5          4.6280   -4.4300    7.1900 c3        1 S0B      0.006400
     10 C8          5.4340   -5.3740    6.3490 c3        1 S0B     -0.105100
     11 C9          1.8160    0.0930    3.9530 c3        1 S0B     -0.049100
     12 C6          2.2890   -1.2680    4.4630 c3        1 S0B      0.105800
     13 N4          2.3780   -3.5310    6.6260 n2        1 S0B     -0.511900
     14 N3          2.6610   -1.2230    5.9180 ny        1 S0B     -0.699000
     15 S2          4.8730   -2.7090    6.6600 ss        1 S0B     -0.186300
     16 H1          0.5180   -0.3130   -1.2560 ha        1 S0B      0.153000
     17 H2          2.7980    0.4640   -0.5940 ha        1 S0B      0.151000
     18 H3         -1.1570   -0.9020    0.4990 ha        1 S0B      0.151000
     19 H4          3.4030    0.6510    1.8120 ha        1 S0B      0.132500
     20 H5         -0.5590   -0.7170    2.9080 ha        1 S0B      0.132500
     21 H7          2.6860   -4.9780    8.0960 h1        1 S0B      0.124200
     22 H8          2.8920   -5.5370    6.3730 h1        1 S0B      0.124200
     23 H9          4.9580   -4.4870    8.2590 h1        1 S0B      0.115700
     24 H10         5.1260   -5.3320    5.2760 hc        1 S0B      0.069700
     25 H11         6.5230   -5.1280    6.4160 hc        1 S0B      0.069700
     26 H12         5.2920   -6.4220    6.7170 hc        1 S0B      0.069700
     27 H13         0.9170    0.4360    4.5330 hc        1 S0B      0.069700
     28 H14         2.6240    0.8630    4.0830 hc        1 S0B      0.069700
     29 H15         1.4710   -2.0350    4.3380 hx        1 S0B      0.119700
     30 H16         3.1960   -1.6070    3.8840 hx        1 S0B      0.119700
     31 H19         1.8320   -0.9470    6.4650 hn        1 S0B      0.466800
     32 H32         3.3970   -0.5200    6.0660 hn        1 S0B      0.466800
@<TRIPOS>BOND
     1    1    2 ar  
     2    1    3 ar  
     3    1   16 1   
     4    2    4 ar  
     5    2   17 1   
     6    3    5 ar  
     7    3   18 1   
     8    4    6 ar  
     9    4   19 1   
    10    5    6 ar  
    11    5   20 1   
    12    6   11 1   
    13    7   13 2   
    14    7   14 1   
    15    7   15 1   
    16    8    9 1   
    17    8   13 1   
    18    8   21 1   
    19    8   22 1   
    20    9   10 1   
    21    9   15 1   
    22    9   23 1   
    23   10   24 1   
    24   10   25 1   
    25   10   26 1   
    26   11   12 1   
    27   11   27 1   
    28   11   28 1   
    29   12   14 1   
    30   12   29 1   
    31   12   30 1   
    32   14   31 1   
    33   14   32 1   
@<TRIPOS>SUBSTRUCTURE
     1 S0B         1 TEMP              0 ****  ****    0 ROOT
