@<TRIPOS>MOLECULE
S0B
   32    33     1     0     0
SMALL
bcc


@<TRIPOS>ATOM
      1 C15         0.6040   -0.3300   -0.1470 ca        1 S0B     -0.098000
      2 C13         1.8990    0.1000    0.1450 ca        1 S0B     -0.117500
      3 C14        -0.2840   -0.6250    0.8890 ca        1 S0B     -0.117500
      4 C11         2.3090    0.2330    1.4710 ca        1 S0B     -0.115000
      5 C12         0.1220   -0.4930    2.2160 ca        1 S0B     -0.115000
      6 C10         1.4220   -0.0650    2.5120 ca        1 S0B     -0.130300
      7 C1          3.2610   -2.4690    6.3780 c2        1 S0B      0.446100
      8 C7          3.1840   -4.6190    7.1430 c3        1 S0B      0.080800
      9 C5          4.7150   -4.3930    7.1610 c3        1 S0B      0.006400
     10 C8          5.4570   -5.3810    6.3110 c3        1 S0B     -0.105100
     11 C9          1.8480    0.0990    3.9290 c3        1 S0B     -0.049100
     12 C6          2.3170   -1.2580    4.4560 c3        1 S0B      0.105800
     13 N4          2.4620   -3.4570    6.6820 n2        1 S0B     -0.511900
     14 N3          2.7610   -1.1790    5.8880 n4        1 S0B     -0.699000
     15 S2          4.9730   -2.6950    6.5660 ss        1 S0B     -0.186300
     16 H1          0.2800   -0.4310   -1.1950 ha        1 S0B      0.153000
     17 H2          2.5970    0.3400   -0.6710 ha        1 S0B      0.151000
     18 H3         -1.3080   -0.9580    0.6600 ha        1 S0B      0.151000
     19 H4          3.3280    0.5840    1.6950 ha        1 S0B      0.132500
     20 H5         -0.5850   -0.7150    3.0290 ha        1 S0B      0.132500
     21 H7          2.9160   -5.4810    6.4650 h1        1 S0B      0.124200
     22 H8          2.8100   -4.8670    8.1790 h1        1 S0B      0.124200
     23 H9          5.0980   -4.4260    8.2130 h1        1 S0B      0.115700
     24 H10         5.3090   -6.4140    6.7170 hc        1 S0B      0.069700
     25 H11         5.0950   -5.3640    5.2530 hc        1 S0B      0.069700
     26 H12         6.5530   -5.1600    6.3150 hc        1 S0B      0.069700
     27 H13         2.6780    0.8530    3.9950 hc        1 S0B      0.069700
     28 H14         0.9870    0.4790    4.5420 hc        1 S0B      0.069700
     29 H15         1.4770   -2.0090    4.3940 hx        1 S0B      0.119700
     30 H16         3.1860   -1.6340    3.8440 hx        1 S0B      0.119700
     31 H19         3.5200   -0.4890    5.9790 hn        1 S0B      0.466800
     32 H32         1.9670   -0.8670    6.4670 hn        1 S0B      0.466800
@<TRIPOS>BOND
     1    1    2 ar  
     2    1    3 ar  
     3    1   16 1   
     4    2    4 ar  
     5    2   17 1   
     6    3    5 ar  
     7    3   18 1   
     8    4    6 ar  
     9    4   19 1   
    10    5    6 ar  
    11    5   20 1   
    12    6   11 1   
    13    7   13 2   
    14    7   14 1   
    15    7   15 1   
    16    8    9 1   
    17    8   13 1   
    18    8   21 1   
    19    8   22 1   
    20    9   10 1   
    21    9   15 1   
    22    9   23 1   
    23   10   24 1   
    24   10   25 1   
    25   10   26 1   
    26   11   12 1   
    27   11   27 1   
    28   11   28 1   
    29   12   14 1   
    30   12   29 1   
    31   12   30 1   
    32   14   31 1   
    33   14   32 1   
@<TRIPOS>SUBSTRUCTURE
     1 S0B         1 TEMP              0 ****  ****    0 ROOT
