@<TRIPOS>MOLECULE
S0B
   32    33     1     0     0
SMALL
bcc


@<TRIPOS>ATOM
      1 C15         0.7860   -0.2280   -0.1870 ca        1 S0B     -0.098000
      2 C13         2.0650    0.1920    0.1800 ca        1 S0B     -0.117500
      3 C14        -0.1520   -0.5480    0.7960 ca        1 S0B     -0.117500
      4 C11         2.4080    0.2910    1.5280 ca        1 S0B     -0.115000
      5 C12         0.1870   -0.4490    2.1440 ca        1 S0B     -0.115000
      6 C10         1.4700   -0.0310    2.5150 ca        1 S0B     -0.130300
      7 C1          3.1690   -2.5190    6.3920 c2        1 S0B      0.446100
      8 C7          3.0990   -4.6920    7.0870 c3        1 S0B      0.080800
      9 C5          4.6220   -4.4390    7.1860 c3        1 S0B      0.006400
     10 C8          5.4230   -5.3870    6.3440 c3        1 S0B     -0.105100
     11 C9          1.8250    0.0970    3.9550 c3        1 S0B     -0.049100
     12 C6          2.2930   -1.2660    4.4640 c3        1 S0B      0.105800
     13 N4          2.3760   -3.5310    6.6260 n2        1 S0B     -0.511900
     14 N3          2.6680   -1.2230    5.9180 n4        1 S0B     -0.699000
     15 S2          4.8750   -2.7200    6.6560 ss        1 S0B     -0.186300
     16 H1          0.5150   -0.3030   -1.2520 ha        1 S0B      0.153000
     17 H2          2.8040    0.4520   -0.5940 ha        1 S0B      0.151000
     18 H3         -1.1640   -0.8730    0.5070 ha        1 S0B      0.151000
     19 H4          3.4140    0.6350    1.8110 ha        1 S0B      0.132500
     20 H5         -0.5600   -0.6900    2.9150 ha        1 S0B      0.132500
     21 H7          2.8800   -5.5380    6.3720 h1        1 S0B      0.124200
     22 H8          2.6800   -4.9790    8.0960 h1        1 S0B      0.124200
     23 H9          4.9550   -4.4980    8.2550 h1        1 S0B      0.115700
     24 H10         5.2760   -6.4350    6.7110 hc        1 S0B      0.069700
     25 H11         6.5130   -5.1460    6.4080 hc        1 S0B      0.069700
     26 H12         5.1120   -5.3440    5.2710 hc        1 S0B      0.069700
     27 H13         0.9290    0.4450    4.5370 hc        1 S0B      0.069700
     28 H14         2.6380    0.8620    4.0830 hc        1 S0B      0.069700
     29 H15         1.4700   -2.0290    4.3420 hx        1 S0B      0.119700
     30 H16         3.1960   -1.6100    3.8820 hx        1 S0B      0.119700
     31 H19         1.8420   -0.9430    6.4680 hn        1 S0B      0.466800
     32 H32         3.4080   -0.5240    6.0640 hn        1 S0B      0.466800
@<TRIPOS>BOND
     1    1    2 ar  
     2    1    3 ar  
     3    1   16 1   
     4    2    4 ar  
     5    2   17 1   
     6    3    5 ar  
     7    3   18 1   
     8    4    6 ar  
     9    4   19 1   
    10    5    6 ar  
    11    5   20 1   
    12    6   11 1   
    13    7   13 2   
    14    7   14 1   
    15    7   15 1   
    16    8    9 1   
    17    8   13 1   
    18    8   21 1   
    19    8   22 1   
    20    9   10 1   
    21    9   15 1   
    22    9   23 1   
    23   10   24 1   
    24   10   25 1   
    25   10   26 1   
    26   11   12 1   
    27   11   27 1   
    28   11   28 1   
    29   12   14 1   
    30   12   29 1   
    31   12   30 1   
    32   14   31 1   
    33   14   32 1   
@<TRIPOS>SUBSTRUCTURE
     1 S0B         1 TEMP              0 ****  ****    0 ROOT
