@<TRIPOS>MOLECULE
S0C
   29    30     1     0     0
SMALL
bcc


@<TRIPOS>ATOM
      1 C7         -0.7160    0.7430    1.5110 cc        1 S0C      0.362200
      2 C6          0.0230    0.3440    0.3840 cd        1 S0C     -0.241400
      3 C4          1.2400    0.2650    2.4400 cd        1 S0C      0.303300
      4 C1          1.8830   -1.1040    4.3860 c         1 S0C      0.573100
      5 C14         1.9720    1.8750    7.9530 c3        1 S0C     -0.078900
      6 C13         1.3010    0.8560    8.8640 c3        1 S0C     -0.078900
      7 C11         2.0380    1.2670    6.5560 c3        1 S0C     -0.084900
      8 C12         0.9780   -0.3720    8.0240 c3        1 S0C     -0.084900
      9 C10         1.7710   -0.2290    6.7200 c3        1 S0C     -0.081700
     10 C9          0.9980   -0.8450    5.5650 c3        1 S0C     -0.149400
     11 N8         -0.0300    0.7000    2.6890 nc        1 S0C     -0.591000
     12 N3          2.2080    0.1160    3.5100 n4        1 S0C     -0.629500
     13 O2          2.4130   -2.1380    4.0230 o         1 S0C     -0.407100
     14 S5          1.5550   -0.0800    0.7950 ss        1 S0C      0.182700
     15 H1         -1.7660    1.0750    1.5110 h4        1 S0C      0.087100
     16 H2         -0.3830    0.3240   -0.6320 h4        1 S0C      0.225000
     17 H3          1.3970    2.8350    7.9340 hc        1 S0C      0.062450
     18 H4          3.0020    2.1110    8.3230 hc        1 S0C      0.062450
     19 H5          0.3670    1.2770    9.3150 hc        1 S0C      0.062450
     20 H6          1.9820    0.5820    9.7100 hc        1 S0C      0.062450
     21 H7          1.2600    1.7410    5.9040 hc        1 S0C      0.047450
     22 H8          3.0420    1.4500    6.0970 hc        1 S0C      0.047450
     23 H9         -0.1200   -0.4190    7.8110 hc        1 S0C      0.047450
     24 H10         1.2620   -1.3150    8.5540 hc        1 S0C      0.047450
     25 H11         2.7510   -0.7700    6.8380 hc        1 S0C      0.070700
     26 H12         0.1260   -0.1940    5.2790 hc        1 S0C      0.123200
     27 H13         0.5890   -1.8480    5.8820 hc        1 S0C      0.123200
     28 H14         3.1400    0.0050    3.0910 hn        1 S0C      0.468800
     29 H32         2.1990    0.9600    4.1050 hn        1 S0C      0.468800
@<TRIPOS>BOND
     1    1    2 2   
     2    1   11 1   
     3    1   15 1   
     4    2   14 1   
     5    2   16 1   
     6    3   11 2   
     7    3   12 1   
     8    3   14 1   
     9    4   10 1   
    10    4   12 1   
    11    4   13 2   
    12    5    6 1   
    13    5    7 1   
    14    5   17 1   
    15    5   18 1   
    16    6    8 1   
    17    6   19 1   
    18    6   20 1   
    19    7    9 1   
    20    7   21 1   
    21    7   22 1   
    22    8    9 1   
    23    8   23 1   
    24    8   24 1   
    25    9   10 1   
    26    9   25 1   
    27   10   26 1   
    28   10   27 1   
    29   12   28 1   
    30   12   29 1   
@<TRIPOS>SUBSTRUCTURE
     1 S0C         1 TEMP              0 ****  ****    0 ROOT
