@<TRIPOS>MOLECULE
S0C
   28    29     1     0     0
SMALL
bcc


@<TRIPOS>ATOM
      1 C7          0.8290    0.9480    0.3810 cc        1 S0C      0.354200
      2 C6          1.1610   -0.3670    0.0890 cd        1 S0C     -0.318400
      3 C4          0.8180    0.0960    2.4380 cd        1 S0C      0.483300
      4 C1          0.9160   -1.0870    4.5860 c         1 S0C      0.658100
      5 C14         1.7520    2.1180    7.9280 c3        1 S0C     -0.078900
      6 C13         2.1280    1.0170    8.9120 c3        1 S0C     -0.078900
      7 C11         1.3420    1.4500    6.6210 c3        1 S0C     -0.081400
      8 C12         1.8540   -0.3150    8.2290 c3        1 S0C     -0.081400
      9 C10         1.7240   -0.0270    6.7310 c3        1 S0C     -0.068700
     10 C9          0.7280   -0.9680    6.0850 c3        1 S0C     -0.143400
     11 N8          0.6300    1.2310    1.7140 nc        1 S0C     -0.693000
     12 N3          0.6800    0.0510    3.8240 ns        1 S0C     -0.528400
     13 O2          1.2460   -2.1610    4.0490 o         1 S0C     -0.588100
     14 S5          1.2350   -1.2870    1.4730 ss        1 S0C      0.019700
     15 H1          0.7140    1.7640   -0.3420 h4        1 S0C      0.041100
     16 H2          1.3510   -0.7540   -0.9090 h4        1 S0C      0.180000
     17 H3          2.6200    2.8040    7.7610 hc        1 S0C      0.045200
     18 H4          0.9120    2.7380    8.3290 hc        1 S0C      0.045200
     19 H5          1.5360    1.1060    9.8560 hc        1 S0C      0.045200
     20 H6          3.2090    1.0970    9.1880 hc        1 S0C      0.045200
     21 H7          1.8590    1.9310    5.7540 hc        1 S0C      0.044950
     22 H8          0.2380    1.5620    6.4650 hc        1 S0C      0.044950
     23 H9          0.9060   -0.7630    8.6230 hc        1 S0C      0.044950
     24 H10         2.6770   -1.0470    8.4200 hc        1 S0C      0.044950
     25 H11         2.7290   -0.1770    6.2480 hc        1 S0C      0.063700
     26 H12         0.8650   -2.0020    6.5080 hc        1 S0C      0.079700
     27 H13        -0.3240   -0.6460    6.3070 hc        1 S0C      0.079700
     28 H14         0.4440    0.9010    4.2900 hn        1 S0C      0.341500
@<TRIPOS>BOND
     1    1    2 2   
     2    1   11 1   
     3    1   15 1   
     4    2   14 1   
     5    2   16 1   
     6    3   11 2   
     7    3   12 1   
     8    3   14 1   
     9    4   10 1   
    10    4   12 1   
    11    4   13 2   
    12    5    6 1   
    13    5    7 1   
    14    5   17 1   
    15    5   18 1   
    16    6    8 1   
    17    6   19 1   
    18    6   20 1   
    19    7    9 1   
    20    7   21 1   
    21    7   22 1   
    22    8    9 1   
    23    8   23 1   
    24    8   24 1   
    25    9   10 1   
    26    9   25 1   
    27   10   26 1   
    28   10   27 1   
    29   12   28 1   
@<TRIPOS>SUBSTRUCTURE
     1 S0C         1 TEMP              0 ****  ****    0 ROOT
