@<TRIPOS>MOLECULE
S0C
   28    29     1     0     0
SMALL
bcc


@<TRIPOS>ATOM
      1 C7          0.7880    1.0390    0.3970 cc        1 S0C      0.354200
      2 C6          1.0280   -0.2920    0.0850 cd        1 S0C     -0.318400
      3 C4          0.7550    0.1650    2.4440 cd        1 S0C      0.483300
      4 C1          0.8100   -1.0480    4.5770 c         1 S0C      0.658100
      5 C14         1.9160    2.0530    7.9380 c3        1 S0C     -0.078900
      6 C13         2.2300    0.9180    8.9040 c3        1 S0C     -0.078900
      7 C11         1.4400    1.4300    6.6320 c3        1 S0C     -0.081400
      8 C12         1.8570   -0.3840    8.2130 c3        1 S0C     -0.081400
      9 C10         1.7230   -0.0710    6.7200 c3        1 S0C     -0.068700
     10 C9          0.6550   -0.9350    6.0810 c3        1 S0C     -0.143400
     11 N8          0.6300    1.3180    1.7370 nc        1 S0C     -0.693000
     12 N3          0.6370    0.1120    3.8320 n         1 S0C     -0.528400
     13 O2          1.0600   -2.1350    4.0230 o         1 S0C     -0.588100
     14 S5          1.0630   -1.2310    1.4580 ss        1 S0C      0.019700
     15 H1          0.7150    1.8690   -0.3150 h4        1 S0C      0.041100
     16 H2          1.1760   -0.6790   -0.9200 h4        1 S0C      0.180000
     17 H3          1.1280    2.7260    8.3590 hc        1 S0C      0.045200
     18 H4          2.8260    2.6790    7.7630 hc        1 S0C      0.045200
     19 H5          3.3180    0.9220    9.1660 hc        1 S0C      0.045200
     20 H6          1.6590    1.0360    9.8590 hc        1 S0C      0.045200
     21 H7          1.9740    1.8840    5.7610 hc        1 S0C      0.044950
     22 H8          0.3440    1.6180    6.4970 hc        1 S0C      0.044950
     23 H9          0.8870   -0.7720    8.6170 hc        1 S0C      0.044950
     24 H10         2.6310   -1.1720    8.3830 hc        1 S0C      0.044950
     25 H11         2.7070   -0.2840    6.2190 hc        1 S0C      0.063700
     26 H12         0.7290   -1.9810    6.4900 hc        1 S0C      0.079700
     27 H13        -0.3690   -0.5460    6.3250 hc        1 S0C      0.079700
     28 H14         0.4650    0.9700    4.3110 hn        1 S0C      0.341500
@<TRIPOS>BOND
     1    1    2 2   
     2    1   11 1   
     3    1   15 1   
     4    2   14 1   
     5    2   16 1   
     6    3   11 2   
     7    3   12 1   
     8    3   14 1   
     9    4   10 1   
    10    4   12 1   
    11    4   13 2   
    12    5    6 1   
    13    5    7 1   
    14    5   17 1   
    15    5   18 1   
    16    6    8 1   
    17    6   19 1   
    18    6   20 1   
    19    7    9 1   
    20    7   21 1   
    21    7   22 1   
    22    8    9 1   
    23    8   23 1   
    24    8   24 1   
    25    9   10 1   
    26    9   25 1   
    27   10   26 1   
    28   10   27 1   
    29   12   28 1   
@<TRIPOS>SUBSTRUCTURE
     1 S0C         1 TEMP              0 ****  ****    0 ROOT
