@<TRIPOS>MOLECULE
S0D
   25    24     1     0     0
SMALL
bcc


@<TRIPOS>ATOM
      1 C15         0.8580    2.7290    1.7440 c1        1 S0D      0.194000
      2 C14         0.6510   -3.0300    0.8240 c1        1 S0D      0.239000
      3 C12         0.8110    1.4270    1.5430 c2        1 S0D     -0.403000
      4 C13         0.6980   -1.7250    1.0260 c2        1 S0D     -0.411000
      5 C8          1.0350   -1.3650    9.6980 c1        1 S0D      0.161000
      6 C6          0.9720    0.3310    6.6650 c1        1 S0D     -0.137000
      7 C2          0.9060   -0.9610    5.9450 c3        1 S0D     -0.116000
      8 C9          0.8160    0.3600    2.5010 c2        1 S0D     -0.039000
      9 C10         0.7660   -1.0470    2.2930 c2        1 S0D     -0.025000
     10 C1          0.8570   -0.7340    4.4700 c2        1 S0D     -0.012000
     11 N5          1.0310   -0.4920    8.8930 n2        1 S0D     -0.335000
     12 N3          0.8730    0.5380    3.8880 na        1 S0D     -0.173000
     13 N4          0.7920   -1.7100    3.5240 n2        1 S0D     -0.147000
     14 N7          1.0260    0.4950    7.9670 n3        1 S0D      0.011000
     15 H1          0.7610    1.0860    0.4810 ha        1 S0D      0.205000
     16 H2          0.3210    0.3690   -1.6490 ha        1 S0D      0.002000
     17 H3          0.9970    0.3490   -1.6740 ha        1 S0D      0.002000
     18 H4          0.6840   -1.0640    0.1320 ha        1 S0D      0.184000
     19 H5          1.8040   -1.6030    6.1770 hc        1 S0D      0.134000
     20 H6         -0.0090   -1.5490    6.2460 hc        1 S0D      0.134000
     21 H7          1.0750    2.5730    7.6200 h1        1 S0D      0.109333
     22 H8          0.1990    2.0650    9.1500 h1        1 S0D      0.109333
     23 H9          2.0310    2.0100    9.0820 h1        1 S0D      0.109333
     24 H10         0.9180    1.3900    4.3880 hn        1 S0D      0.275000
     25 C11         1.0870    1.8700    8.4940 c3        1 S0D     -0.070000
@<TRIPOS>BOND
     1    1    3 1   
     2    2    4 1   
     3    3    8 1   
     4    3   15 1   
     5    4    9 1   
     6    4   18 1   
     7    5   11 1   
     8    6    7 1   
     9    6   14 1   
    10    7   10 1   
    11    7   19 1   
    12    7   20 1   
    13    8    9 1   
    14    8   12 1   
    15    9   13 1   
    16   10   12 1   
    17   10   13 1   
    18   11   14 1   
    19   12   24 1   
    20   14   25 1   
    21   16   17 1   
    22   21   25 1   
    23   22   25 1   
    24   23   25 1   
@<TRIPOS>SUBSTRUCTURE
     1 S0D         1 TEMP              0 ****  ****    0 ROOT
