@<TRIPOS>MOLECULE
S0E
   20    21     1     0     0
SMALL
bcc


@<TRIPOS>ATOM
      1 C10         0.0220   -0.0930   -0.0110 ca        1 S0E     -0.075000
      2 C9          1.4040   -0.1220   -0.0420 ca        1 S0E     -0.043000
      3 C8         -0.0060    0.0720    2.4260 ca        1 S0E     -0.047000
      4 C7         -0.6720    0.0040    1.2130 ca        1 S0E     -0.107300
      5 C6          2.1130   -0.0530    1.1810 ca        1 S0E      0.092400
      6 C5          1.3930    0.0440    2.4280 ca        1 S0E     -0.094100
      7 C1          3.8000    0.0110    2.6240 cc        1 S0E      0.272100
      8 C4         -2.2060    0.0520    1.1890 c3        1 S0E      0.687200
      9 N2          3.4940   -0.0700    1.3170 nd        1 S0E     -0.453100
     10 N11         5.1850    0.0150    3.0720 n4        1 S0E     -0.744600
     11 F12        -2.7050    1.3150    0.9970 f         1 S0E     -0.216300
     12 F13        -2.7680   -0.7070    0.1960 f         1 S0E     -0.216300
     13 F14        -2.7940   -0.3870    2.3480 f         1 S0E     -0.216300
     14 S3          2.4670    0.1090    3.7160 ss        1 S0E      0.176900
     15 H1         -0.5560   -0.1510   -0.9520 ha        1 S0E      0.186000
     16 H2          1.9520   -0.1980   -0.9960 ha        1 S0E      0.184000
     17 H3         -0.5710    0.1410    3.3720 ha        1 S0E      0.182000
     18 H4          5.3750    0.8890    3.5780 hn        1 S0E      0.477800
     19 H5          5.8290   -0.0520    2.2680 hn        1 S0E      0.477800
     20 H113        5.3430   -0.7910    3.6910 hn        1 S0E      0.477800
@<TRIPOS>BOND
     1    1    2 ar  
     2    1    4 ar  
     3    1   15 1   
     4    2    5 ar  
     5    2   16 1   
     6    3    4 ar  
     7    3    6 ar  
     8    3   17 1   
     9    4    8 1   
    10    5    6 ar  
    11    5    9 1   
    12    6   14 1   
    13    7    9 2   
    14    7   10 1   
    15    7   14 1   
    16    8   11 1   
    17    8   12 1   
    18    8   13 1   
    19   10   18 1   
    20   10   19 1   
    21   10   20 1   
@<TRIPOS>SUBSTRUCTURE
     1 S0E         1 TEMP              0 ****  ****    0 ROOT
