@<TRIPOS>MOLECULE
S0E
   19    20     1     0     0
SMALL
bcc


@<TRIPOS>ATOM
      1 C10         0.0220   -0.0020   -0.0100 ca        1 S0E     -0.078000
      2 C9          1.4060    0.0090   -0.0470 ca        1 S0E     -0.097000
      3 C8          0.0170    0.0070    2.4260 ca        1 S0E     -0.026000
      4 C7         -0.6660   -0.0040    1.2150 ca        1 S0E     -0.179300
      5 C6          2.1250    0.0180    1.1670 ca        1 S0E      0.150400
      6 C5          1.4090    0.0190    2.4120 ca        1 S0E     -0.116100
      7 C1          3.8610    0.0340    2.5780 cc        1 S0E      0.589100
      8 C4         -2.1890    0.0020    1.2080 c3        1 S0E      0.690200
      9 N2          3.5170    0.0130    1.2810 nd        1 S0E     -0.605100
     10 N11         5.1470    0.1490    3.0700 nv        1 S0E     -0.868800
     11 F12        -2.7480    1.2540    1.1130 f         1 S0E     -0.237633
     12 F13        -2.7570   -0.6960    0.1700 f         1 S0E     -0.237633
     13 F14        -2.7700   -0.5370    2.3310 f         1 S0E     -0.237633
     14 S3          2.4970    0.0390    3.7070 ss        1 S0E     -0.056100
     15 H1         -0.5550   -0.0130   -0.9490 ha        1 S0E      0.153000
     16 H2          1.9460    0.0110   -1.0060 ha        1 S0E      0.160000
     17 H3         -0.5370    0.0020    3.3780 ha        1 S0E      0.157000
     18 H4          5.3090   -0.3210    3.9320 hn        1 S0E      0.420300
     19 H5          5.8860    0.0660    2.4050 hn        1 S0E      0.420300
@<TRIPOS>BOND
     1    1    2 ar  
     2    1    4 ar  
     3    1   15 1   
     4    2    5 ar  
     5    2   16 1   
     6    3    4 ar  
     7    3    6 ar  
     8    3   17 1   
     9    4    8 1   
    10    5    6 ar  
    11    5    9 1   
    12    6   14 1   
    13    7    9 2   
    14    7   10 1   
    15    7   14 1   
    16    8   11 1   
    17    8   12 1   
    18    8   13 1   
    19   10   18 1   
    20   10   19 1   
@<TRIPOS>SUBSTRUCTURE
     1 S0E         1 TEMP              0 ****  ****    0 ROOT
