@<TRIPOS>MOLECULE
S0F
   23    24     1     0     0
SMALL
bcc


@<TRIPOS>ATOM
      1 C13         0.0830    0.4970   -0.0760 ca        1 S0F     -0.125000
      2 C14         0.0150   -0.5970    2.0750 ca        1 S0F     -0.125000
      3 C11         1.4740    0.5540   -0.0040 ca        1 S0F     -0.101500
      4 C12         1.4050   -0.5430    2.1500 ca        1 S0F     -0.101500
      5 C5         -3.2300   -1.8960    2.3450 cc        1 S0F      0.356200
      6 C8         -0.6570   -0.0780    0.9620 ca        1 S0F     -0.068300
      7 C9          2.1390    0.0340    1.1090 ca        1 S0F     -0.028900
      8 C4         -2.7190   -1.4410    1.1350 cd        1 S0F     -0.210700
      9 C1         -3.5780   -3.7270    1.1240 cd        1 S0F      0.602300
     10 C7         -2.1480   -0.1050    0.8970 c3        1 S0F      0.043200
     11 N2         -3.7070   -3.1890    2.3580 nc        1 S0F     -0.692000
     12 N6         -4.0560   -4.9730    0.7140 nv        1 S0F     -0.887500
     13 S3         -2.8630   -2.6410   -0.0400 ss        1 S0F     -0.112300
     14 Br1         4.0070    0.1090    1.2070 br        1 S0F     -0.089100
     15 H1         -0.4310    0.9100   -0.9570 ha        1 S0F      0.140000
     16 H2         -0.5630   -1.0560    2.8920 ha        1 S0F      0.140000
     17 H3          2.0410    1.0110   -0.8310 ha        1 S0F      0.146500
     18 H4          1.9170   -0.9560    3.0330 ha        1 S0F      0.146500
     19 H6         -2.5470    0.6090    1.6730 hc        1 S0F      0.063700
     20 H7         -2.4920    0.2780   -0.1040 hc        1 S0F      0.063700
     21 H8         -3.3590   -5.5120    0.2440 hn        1 S0F      0.397300
     22 H9         -4.5080   -5.4950    1.4400 hn        1 S0F      0.397300
     23 H5         -3.2760   -1.3170    3.2760 h4        1 S0F      0.042100
@<TRIPOS>BOND
     1    1    3 ar  
     2    1    6 ar  
     3    1   15 1   
     4    2    4 ar  
     5    2    6 ar  
     6    2   16 1   
     7    3    7 ar  
     8    3   17 1   
     9    4    7 ar  
    10    4   18 1   
    11    5    8 2   
    12    5   11 1   
    13    5   23 1   
    14    6   10 1   
    15    7   14 1   
    16    8   10 1   
    17    8   13 1   
    18    9   11 2   
    19    9   12 1   
    20    9   13 1   
    21   10   19 1   
    22   10   20 1   
    23   12   21 1   
    24   12   22 1   
@<TRIPOS>SUBSTRUCTURE
     1 S0F         1 TEMP              0 ****  ****    0 ROOT
