@<TRIPOS>MOLECULE
S0F
   24    25     1     0     0
SMALL
bcc


@<TRIPOS>ATOM
      1 C13        -0.0920    0.2200    0.1060 ca        1 S0F     -0.120000
      2 C14         0.3030   -0.4410    2.3970 ca        1 S0F     -0.120000
      3 C11         1.2800    0.2160   -0.1330 ca        1 S0F     -0.099000
      4 C12         1.6760   -0.4450    2.1610 ca        1 S0F     -0.099000
      5 C5         -4.1030   -1.6050    1.5470 cc        1 S0F      0.339200
      6 C8         -0.5910   -0.1210    1.3690 ca        1 S0F     -0.135300
      7 C9          2.1700   -0.1220    0.8920 ca        1 S0F     -0.013900
      8 C4         -2.7180   -1.3770    1.3740 cd        1 S0F     -0.139700
      9 C1         -3.4430   -3.6030    0.8570 cd        1 S0F      0.249300
     10 C7         -2.0580   -0.0840    1.6330 c3        1 S0F      0.017200
     11 N2         -4.5230   -2.8630    1.2570 nc        1 S0F     -0.565000
     12 N6         -3.6070   -4.9940    0.4840 n4        1 S0F     -0.762300
     13 S3         -1.9660   -2.7550    0.8470 ss        1 S0F      0.182700
     14 BR1         4.0110   -0.1330    0.5720 br        1 S0F     -0.042100
     15 H1         -0.7820    0.5100   -0.7010 ha        1 S0F      0.143000
     16 H2         -0.0740   -0.6730    3.4050 ha        1 S0F      0.143000
     17 H3          1.6580    0.4930   -1.1310 ha        1 S0F      0.163000
     18 H4          2.3680   -0.6920    2.9830 ha        1 S0F      0.163000
     19 H6         -2.2470    0.2120    2.7050 hc        1 S0F      0.098700
     20 H7         -2.5420    0.7070    0.9900 hc        1 S0F      0.098700
     21 H8         -3.9900   -5.5250    1.2800 hn        1 S0F      0.470467
     22 H9         -2.7000   -5.3860    0.2150 hn        1 S0F      0.470467
     23 H63        -4.2640   -5.0690   -0.3060 hn        1 S0F      0.470467
     24 H5         -4.8340   -0.8570    1.8890 h4        1 S0F      0.088100
@<TRIPOS>BOND
     1    1    3 ar  
     2    1    6 ar  
     3    1   15 1   
     4    2    4 ar  
     5    2    6 ar  
     6    2   16 1   
     7    3    7 ar  
     8    3   17 1   
     9    4    7 ar  
    10    4   18 1   
    11    5    8 2   
    12    5   11 1   
    13    5   24 1   
    14    6   10 1   
    15    7   14 1   
    16    8   10 1   
    17    8   13 1   
    18    9   11 2   
    19    9   12 1   
    20    9   13 1   
    21   10   19 1   
    22   10   20 1   
    23   12   21 1   
    24   12   22 1   
    25   12   23 1   
@<TRIPOS>SUBSTRUCTURE
     1 S0F         1 TEMP              0 ****  ****    0 ROOT
