@<TRIPOS>MOLECULE
S0F
   23    24     1     0     0
SMALL
bcc


@<TRIPOS>ATOM
      1 C13         0.0590    0.5010   -0.0920 ca        1 S0F     -0.125000
      2 C14         0.0290   -0.5940    2.0590 ca        1 S0F     -0.125000
      3 C11         1.4510    0.5600   -0.0430 ca        1 S0F     -0.101500
      4 C12         1.4190   -0.5380    2.1120 ca        1 S0F     -0.101500
      5 C5         -3.2100   -1.9040    2.3760 cc        1 S0F      0.356200
      6 C8         -0.6630   -0.0760    0.9580 ca        1 S0F     -0.068300
      7 C9          2.1350    0.0410    1.0590 ca        1 S0F     -0.028900
      8 C4         -2.7190   -1.4440    1.1610 cd        1 S0F     -0.210700
      9 C1         -3.5730   -3.7320    1.1550 cd        1 S0F      0.602300
     10 C7         -2.1550   -0.1060    0.9180 c3        1 S0F      0.043200
     11 N2         -3.6840   -3.1980    2.3920 nc        1 S0F     -0.692000
     12 N6         -4.0550   -4.9770    0.7480 nh        1 S0F     -0.887500
     13 S3         -2.8780   -2.6400   -0.0170 ss        1 S0F     -0.112300
     14 BR1         4.0050    0.1190    1.1260 br        1 S0F     -0.089100
     15 H1         -0.4710    0.9130   -0.9640 ha        1 S0F      0.140000
     16 H2         -0.5350   -1.0550    2.8850 ha        1 S0F      0.140000
     17 H3          2.0030    1.0180   -0.8790 ha        1 S0F      0.146500
     18 H4          1.9470   -0.9510    2.9850 ha        1 S0F      0.146500
     19 H6         -2.5160    0.2800   -0.0750 hc        1 S0F      0.063700
     20 H7         -2.5420    0.6040    1.7040 hc        1 S0F      0.063700
     21 H8         -3.3640   -5.5140    0.2650 hn        1 S0F      0.397300
     22 H9         -4.4930   -5.5030    1.4780 hn        1 S0F      0.397300
     23 H5         -3.2430   -1.3290    3.3100 h4        1 S0F      0.042100
@<TRIPOS>BOND
     1    1    3 ar  
     2    1    6 ar  
     3    1   15 1   
     4    2    4 ar  
     5    2    6 ar  
     6    2   16 1   
     7    3    7 ar  
     8    3   17 1   
     9    4    7 ar  
    10    4   18 1   
    11    5    8 2   
    12    5   11 1   
    13    5   23 1   
    14    6   10 1   
    15    7   14 1   
    16    8   10 1   
    17    8   13 1   
    18    9   11 2   
    19    9   12 1   
    20    9   13 1   
    21   10   19 1   
    22   10   20 1   
    23   12   21 1   
    24   12   22 1   
@<TRIPOS>SUBSTRUCTURE
     1 S0F         1 TEMP              0 ****  ****    0 ROOT
