@<TRIPOS>MOLECULE
S0G
   33    33     1     0     0
SMALL
bcc


@<TRIPOS>ATOM
      1 C3          0.2680    0.2290   -0.9490 cc        1 S0G      0.390700
      2 C1          1.4690   -0.1730   -0.2700 cc        1 S0G     -0.275800
      3 C6         -0.5980    1.1230   -0.1040 cc        1 S0G      0.506600
      4 C4          0.7680    0.6490    1.8810 c         1 S0G      0.784500
      5 C16        -3.2510   -0.6170   -1.3810 c3        1 S0G     -0.098100
      6 C15         0.8270   -2.1510   -2.8480 c2        1 S0G     -0.300000
      7 C14        -3.5910    0.8480   -1.4020 c3        1 S0G     -0.118400
      8 C12         0.4820   -0.8670   -3.0710 cf        1 S0G      0.059600
      9 C13        -2.4020    1.7340   -1.6980 c3        1 S0G      0.151400
     10 N5         -0.3240    1.3090    1.2000 ns        1 S0G     -0.399500
     11 N7         -0.0850    0.0460   -2.1950 nf        1 S0G     -0.688300
     12 N2          1.5280   -0.2650    1.1470 n         1 S0G     -0.284400
     13 N10         2.6030   -0.5860   -1.0720 nz        1 S0G     -0.711600
     14 O9         -1.6120    1.9030   -0.4840 os        1 S0G     -0.403400
     15 O8          0.8680    0.8470    3.1030 o         1 S0G     -0.563500
     16 H1         -2.4650   -0.8270   -0.6150 hc        1 S0G      0.045700
     17 H2         -2.8710   -0.9530   -2.3760 hc        1 S0G      0.045700
     18 H3         -4.1590   -1.2180   -1.1280 hc        1 S0G      0.045700
     19 H4          1.1480   -2.7950   -3.6780 ha        1 S0G      0.137500
     20 H5         -4.0490    1.1510   -0.4220 hc        1 S0G      0.079200
     21 H6         -4.3560    1.0480   -2.2030 hc        1 S0G      0.079200
     22 H7          0.7080   -2.6570   -1.8800 ha        1 S0G      0.137500
     23 H8          0.5150   -0.4510   -4.1030 h4        1 S0G      0.166000
     24 H9         -1.7840    1.3750   -2.5550 h1        1 S0G      0.107700
     25 H10        -2.7210    2.8040   -1.8650 h1        1 S0G      0.107700
     26 H11         3.6040   -0.2550    1.6540 h1        1 S0G      0.072367
     27 H12         2.4640   -0.9290    2.9050 h1        1 S0G      0.072367
     28 H13         2.8110   -1.8980    1.3960 h1        1 S0G      0.072367
     29 H14        -0.8770    1.9380    1.7620 hn        1 S0G      0.388500
     30 H15         3.4780   -0.5040   -0.5470 hn        1 S0G      0.446800
     31 H16         2.4810   -1.5650   -1.3880 hn        1 S0G      0.446800
     32 C11         2.6680   -0.8600    1.7990 c3        1 S0G      0.051300
     33 H103        2.6490    0.0140   -1.9040 hn        1 S0G      0.446800
@<TRIPOS>BOND
     1    1    2 1   
     2    1    3 1   
     3    1   11 2   
     4    2   12 2   
     5    2   13 1   
     6    3   10 2   
     7    3   14 1   
     8    4   10 1   
     9    4   12 1   
    10    4   15 2   
    11    5    7 1   
    12    5   16 1   
    13    5   17 1   
    14    5   18 1   
    15    6    8 2   
    16    6   19 1   
    17    6   22 1   
    18    7    9 1   
    19    7   20 1   
    20    7   21 1   
    21    8   11 1   
    22    8   23 1   
    23    9   14 1   
    24    9   24 1   
    25    9   25 1   
    26   10   29 1   
    27   12   32 1   
    28   13   30 1   
    29   13   31 1   
    30   13   33 1   
    31   26   32 1   
    32   27   32 1   
    33   28   32 1   
@<TRIPOS>SUBSTRUCTURE
     1 S0G         1 TEMP              0 ****  ****    0 ROOT
