@<TRIPOS>MOLECULE
S0G
   33    31     1     0     0
SMALL
bcc


@<TRIPOS>ATOM
      1 C3          1.6180    0.5170   -0.7840 ce        1 S0G      0.218400
      2 C1          2.9170    0.9190   -0.6840 c2        1 S0G     -0.158000
      3 C6          0.5850    1.4230   -0.1410 c         1 S0G      0.642300
      4 C4          1.0160    0.6380    2.2130 c         1 S0G      0.778500
      5 C16        -4.9600   -0.5840   -1.8880 c3        1 S0G     -0.075900
      6 C15        -0.3340   -2.1170   -2.5880 c3        1 S0G     -0.181400
      7 C14        -3.9760    0.4060   -1.4070 c2        1 S0G     -0.149200
      8 C12         0.0450   -0.8640   -1.8820 c2        1 S0G      0.561200
      9 C13        -3.0100    0.9320   -2.1580 c2        1 S0G     -0.266000
     10 N5          0.4600    1.4890    1.2340 n         1 S0G     -0.570500
     11 N7          1.2540   -0.6450   -1.4610 ne        1 S0G     -0.690300
     12 N2          1.7670   -0.5170    1.7920 ne        1 S0G     -0.691100
     13 N10         4.0230    0.1970   -1.2820 n4        1 S0G     -0.692400
     14 O9         -0.1390    2.1210   -0.8690 o         1 S0G     -0.529100
     15 O8          0.8500    0.9570    3.4050 o         1 S0G     -0.536100
     16 H1         -4.7660   -0.8860   -2.9470 hc        1 S0G      0.048367
     17 H2         -5.9910   -0.1510   -1.8320 hc        1 S0G      0.048367
     18 H3         -4.9350   -1.5000   -1.2470 hc        1 S0G      0.048367
     19 H4          0.5030   -2.8490   -2.6890 hc        1 S0G      0.086033
     20 H5         -0.7080   -1.8510   -3.6100 hc        1 S0G      0.086033
     21 H6         -4.1010    0.7090   -0.3530 ha        1 S0G      0.120000
     22 H7         -0.7940   -0.1280   -1.7700 h4        1 S0G      0.027800
     23 H8         -1.1710   -2.6020   -2.0220 hc        1 S0G      0.086033
     24 H9         -2.3130    1.6910   -1.7750 ha        1 S0G      0.114500
     25 H10        -2.8760    0.6720   -3.2160 ha        1 S0G      0.114500
     26 H11         3.2220    1.8230   -0.1250 hx        1 S0G      0.207000
     27 H12         1.3070   -1.6530    3.5410 h4        1 S0G      0.021800
     28 H13         2.4200   -2.4050    2.2170 h4        1 S0G      0.021800
     29 H14        -0.1500    2.2030    1.5970 hn        1 S0G      0.368500
     30 H15         4.8150    0.1950   -0.6300 hn        1 S0G      0.464467
     31 H16         4.3040    0.6580   -2.1550 hn        1 S0G      0.464467
     32 C11         1.8150   -1.5420    2.5610 c2        1 S0G      0.547100
     33 H103        3.7620   -0.7770   -1.4900 hn        1 S0G      0.464467
@<TRIPOS>BOND
     1    1    2 2   
     2    1    3 1   
     3    1   11 1   
     4    2   13 1   
     5    2   26 1   
     6    3   10 1   
     7    3   14 2   
     8    4   10 1   
     9    4   12 1   
    10    4   15 2   
    11    5    7 1   
    12    5   16 1   
    13    5   17 1   
    14    5   18 1   
    15    6    8 1   
    16    6   19 1   
    17    6   20 1   
    18    6   23 1   
    19    7    9 2   
    20    7   21 1   
    21    8   11 2   
    22    8   22 1   
    23    9   24 1   
    24    9   25 1   
    25   10   29 1   
    26   12   32 2   
    27   13   30 1   
    28   13   31 1   
    29   13   33 1   
    30   27   32 1   
    31   28   32 1   
@<TRIPOS>SUBSTRUCTURE
     1 S0G         1 TEMP              0 ****  ****    0 ROOT
