@<TRIPOS>MOLECULE
S0G
   33    33     1     0     0
SMALL
bcc


@<TRIPOS>ATOM
      1 C3         -0.4550    0.0500    0.7130 cc        1 S0G      0.021800
      2 C1          0.8580   -0.0190    0.2780 cd        1 S0G      0.088600
      3 C6         -0.7090    0.2910    2.1750 c         1 S0G      0.693700
      4 C4          1.7180    0.5250    2.5020 c         1 S0G      0.825500
      5 C16        -2.1070   -0.2450   -3.2830 c3        1 S0G     -0.076200
      6 C15        -1.4580   -1.5300   -2.9280 c2        1 S0G     -0.119200
      7 C14        -2.8770    0.3790   -2.1380 c3        1 S0G     -0.086400
      8 C12        -0.2530   -1.8990   -3.3690 c2        1 S0G     -0.316000
      9 C13        -1.9820    0.8630   -0.9990 c3        1 S0G      0.166800
     10 N5          0.4010    0.5240    2.9790 n         1 S0G     -0.563500
     11 N7         -1.5410   -0.2290   -0.1350 nh        1 S0G     -0.734000
     12 N2          1.9460    0.2720    1.1130 n         1 S0G     -0.391000
     13 N10         1.1320   -0.3650   -1.1320 n4        1 S0G     -0.730400
     14 O9         -1.8530    0.2840    2.6480 o         1 S0G     -0.546500
     15 O8          2.6800    0.7520    3.2540 o         1 S0G     -0.562500
     16 H1          0.3370   -1.2870   -4.0660 ha        1 S0G      0.125500
     17 H2         -2.8300   -0.4500   -4.1250 hc        1 S0G      0.069200
     18 H3         -1.3530    0.4880   -3.6790 hc        1 S0G      0.069200
     19 H4         -2.0570   -2.1960   -2.2810 ha        1 S0G      0.147000
     20 H5         -3.6470   -0.3430   -1.7570 hc        1 S0G      0.076700
     21 H6         -3.4280    1.2780   -2.5270 hc        1 S0G      0.076700
     22 H7         -2.3150   -0.6120    0.3880 hn        1 S0G      0.436800
     23 H8          0.1660   -2.8930   -3.1560 ha        1 S0G      0.125500
     24 H9         -1.0770    1.3770   -1.4280 h1        1 S0G      0.047700
     25 H10        -2.5530    1.6340   -0.4020 h1        1 S0G      0.047700
     26 H11         3.5740   -0.8460    0.3430 h1        1 S0G      0.077700
     27 H12         3.4410    0.8990   -0.2380 h1        1 S0G      0.077700
     28 H13         4.0060    0.5310    1.4550 h1        1 S0G      0.077700
     29 H14         0.2730    0.7050    3.9590 hn        1 S0G      0.387500
     30 H15         1.9560   -0.9750   -1.2000 hn        1 S0G      0.478800
     31 H16         0.3080   -0.8680   -1.5410 hn        1 S0G      0.478800
     32 C11         3.3040    0.2050    0.6340 c3        1 S0G      0.050300
     33 H103        1.3010    0.4920   -1.6710 hn        1 S0G      0.478800
@<TRIPOS>BOND
     1    1    2 2   
     2    1    3 1   
     3    1   11 1   
     4    2   12 1   
     5    2   13 1   
     6    3   10 1   
     7    3   14 2   
     8    4   10 1   
     9    4   12 1   
    10    4   15 2   
    11    5    6 1   
    12    5    7 1   
    13    5   17 1   
    14    5   18 1   
    15    6    8 2   
    16    6   19 1   
    17    7    9 1   
    18    7   20 1   
    19    7   21 1   
    20    8   16 1   
    21    8   23 1   
    22    9   11 1   
    23    9   24 1   
    24    9   25 1   
    25   10   29 1   
    26   11   22 1   
    27   12   32 1   
    28   13   30 1   
    29   13   31 1   
    30   13   33 1   
    31   26   32 1   
    32   27   32 1   
    33   28   32 1   
@<TRIPOS>SUBSTRUCTURE
     1 S0G         1 TEMP              0 ****  ****    0 ROOT
