@<TRIPOS>MOLECULE
S0H
   15    14     1     0     0
SMALL
bcc


@<TRIPOS>ATOM
      1 P1          0.0130    0.1600    0.1500 p5        1 S0H      1.222700
      2 C2          1.7950   -0.1820    0.0560 c3        1 S0H     -0.307600
      3 C3          2.3680   -0.0710    1.4390 c3        1 S0H      0.195100
      4 O6          2.2480   -1.2800    2.2010 oh        1 S0H     -0.702800
      5 C1          3.8530    0.2750    1.4330 c3        1 S0H     -0.082100
      6 O13        -0.0750    1.6270    0.5000 o         1 S0H     -0.957500
      7 O14        -0.3840   -0.7860    1.2740 o         1 S0H     -0.957500
      8 O15        -0.5120   -0.2050   -1.2180 o         1 S0H     -0.957500
      9 H21         2.2530    0.5620   -0.6260 hc        1 S0H      0.020700
     10 H22         1.9300   -1.1990   -0.3640 hc        1 S0H      0.020700
     11 H3          1.7960    0.7400    1.9820 h1        1 S0H      0.047700
     12 HO6         1.2970   -1.5110    2.0940 ho        1 S0H      0.467000
     13 H11         4.2550    0.3170    2.4740 hc        1 S0H     -0.002633
     14 H12         4.0020    1.2670    0.9460 hc        1 S0H     -0.002633
     15 H13A        4.4270   -0.4960    0.8670 hc        1 S0H     -0.002633
@<TRIPOS>BOND
     1    1    2 1   
     2    1    6 1   
     3    1    7 1   
     4    1    8 1   
     5    2    3 1   
     6    2    9 1   
     7    2   10 1   
     8    3    4 1   
     9    3    5 1   
    10    3   11 1   
    11    4   12 1   
    12    5   13 1   
    13    5   14 1   
    14    5   15 1   
@<TRIPOS>SUBSTRUCTURE
     1 S0H         1 TEMP              0 ****  ****    0 ROOT
