@<TRIPOS>MOLECULE
S0H
   15    14     1     0     0
SMALL
bcc


@<TRIPOS>ATOM
      1 P1          0.0200    0.1490    0.1280 p5        1 S0H      1.222700
      2 C2          1.8070   -0.1750    0.0520 c3        1 S0H     -0.307600
      3 C3          2.3610   -0.0730    1.4440 c3        1 S0H      0.195100
      4 O6          2.2430   -1.2910    2.1920 oh        1 S0H     -0.702800
      5 C1          3.8420    0.2870    1.4610 c3        1 S0H     -0.082100
      6 O13        -0.0860    1.6120    0.4920 o         1 S0H     -0.957500
      7 O14        -0.3810   -0.8130    1.2360 o         1 S0H     -0.957500
      8 O15        -0.4840   -0.2060   -1.2510 o         1 S0H     -0.957500
      9 H21         2.2660    0.5810   -0.6150 hc        1 S0H      0.020700
     10 H22         1.9570   -1.1850   -0.3770 hc        1 S0H      0.020700
     11 H3          1.7740    0.7270    1.9890 h1        1 S0H      0.047700
     12 HO6         1.2960   -1.5300    2.0700 ho        1 S0H      0.467000
     13 H11         4.2310    0.3210    2.5070 hc        1 S0H     -0.002633
     14 H12         3.9880    1.2860    0.9870 hc        1 S0H     -0.002633
     15 H13A        4.4310   -0.4720    0.8940 hc        1 S0H     -0.002633
@<TRIPOS>BOND
     1    1    2 1   
     2    1    6 1   
     3    1    7 1   
     4    1    8 1   
     5    2    3 1   
     6    2    9 1   
     7    2   10 1   
     8    3    4 1   
     9    3    5 1   
    10    3   11 1   
    11    4   12 1   
    12    5   13 1   
    13    5   14 1   
    14    5   15 1   
@<TRIPOS>SUBSTRUCTURE
     1 S0H         1 TEMP              0 ****  ****    0 ROOT
