@<TRIPOS>MOLECULE
S0H
   15    14     1     0     0
SMALL
bcc


@<TRIPOS>ATOM
      1 P1         -0.9320   -0.0320   -0.1650 p5        1 S0H      1.222700
      2 C2          0.5930   -0.6040    0.6400 c3        1 S0H     -0.307600
      3 C3          1.7610   -0.1180   -0.1690 c3        1 S0H      0.195100
      4 O6          2.1680    1.2160    0.1670 oh        1 S0H     -0.702800
      5 C1          2.9990   -0.9900    0.0060 c3        1 S0H     -0.082100
      6 O13        -0.9940   -0.8090   -1.4590 o         1 S0H     -0.957500
      7 O14        -0.6130    1.4480   -0.3270 o         1 S0H     -0.957500
      8 O15        -2.0230   -0.3520    0.8280 o         1 S0H     -0.957500
      9 H21         0.5680   -1.7110    0.6780 hc        1 S0H      0.020700
     10 H22         0.6120   -0.2000    1.6720 hc        1 S0H      0.020700
     11 H3          1.4500   -0.1220   -1.2570 h1        1 S0H      0.047700
     12 HO6         1.3210    1.7160    0.1340 ho        1 S0H      0.467000
     13 H11         3.8570   -0.5830   -0.5810 hc        1 S0H     -0.002633
     14 H12         3.2970   -1.0280    1.0810 hc        1 S0H     -0.002633
     15 H13A        2.7780   -2.0250   -0.3450 hc        1 S0H     -0.002633
@<TRIPOS>BOND
     1    1    2 1   
     2    1    6 1   
     3    1    7 1   
     4    1    8 1   
     5    2    3 1   
     6    2    9 1   
     7    2   10 1   
     8    3    4 1   
     9    3    5 1   
    10    3   11 1   
    11    4   12 1   
    12    5   13 1   
    13    5   14 1   
    14    5   15 1   
@<TRIPOS>SUBSTRUCTURE
     1 S0H         1 TEMP              0 ****  ****    0 ROOT
