@<TRIPOS>MOLECULE
S0I
   32    31     1     0     0
SMALL
bcc


@<TRIPOS>ATOM
      1 C18        -2.6290   -0.2230    1.7900 c2        1 S0I     -0.181100
      2 C16         5.7510    2.9480   -0.9310 c1        1 S0I     -0.173000
      3 C17        -1.6880   -0.7080    2.5490 c1        1 S0I     -0.058900
      4 C15         5.2290    2.3240    6.7390 c1        1 S0I     -0.118500
      5 C11         1.6600    1.9510    6.7450 cu        1 S0I     -0.156700
      6 C12         5.6020    2.0480   -0.1570 c1        1 S0I     -0.173000
      7 C13        -0.7740   -1.1810    3.2820 c1        1 S0I      0.007100
      8 C10         4.4640    1.5480    6.2450 c1        1 S0I     -0.177100
      9 C6          1.9470    2.6250    5.6510 cu        1 S0I     -0.156700
     10 C7          0.1710   -1.6800    4.0400 ce        1 S0I     -0.237700
     11 C5          3.5660    0.5600    5.6680 c3        1 S0I      0.198800
     12 C2          2.1260    1.1290    5.5680 cx        1 S0I      0.098600
     13 C8          4.3160    0.6710    3.2660 c         1 S0I      0.671100
     14 C4          3.8130    2.0740    3.0730 c3        1 S0I     -0.175100
     15 C3          1.1420   -0.8960    4.8070 ce        1 S0I      0.495500
     16 N9          4.0550   -0.0210    4.4400 ns        1 S0I     -0.564900
     17 N1          1.1740    0.3920    4.7960 n2        1 S0I     -0.568900
     18 H1          5.8830    3.7440   -1.6180 ha        1 S0I      0.171500
     19 H2         -2.7740    0.8600    1.6630 ha        1 S0I      0.134000
     20 H3         -3.3270   -0.8700    1.2370 ha        1 S0I      0.134000
     21 H4          1.3270    1.8810    7.7600 ha        1 S0I      0.195500
     22 H5          5.9010    3.0160    7.1800 ha        1 S0I      0.169500
     23 H6          5.4710    1.2420    0.5300 ha        1 S0I      0.171500
     24 H7          0.2840   -2.7750    4.1360 ha        1 S0I      0.145000
     25 H8          3.5040   -0.2980    6.4180 h1        1 S0I      0.070700
     26 H9          2.0220    3.5280    5.0820 ha        1 S0I      0.195500
     27 H10         4.1180    2.7240    3.9290 hc        1 S0I      0.074367
     28 H11         4.2400    2.4810    2.1220 hc        1 S0I      0.074367
     29 H12         2.6970    2.0690    3.0040 hc        1 S0I      0.074367
     30 H13         1.8460   -1.5340    5.3890 h4        1 S0I     -0.030200
     31 H14         4.5040   -0.9060    4.5330 hn        1 S0I      0.315500
     32 O14         4.9450    0.0710    2.3680 o         1 S0I     -0.625100
@<TRIPOS>BOND
     1    1    3 2   
     2    1   19 1   
     3    1   20 1   
     4    2    6 3   
     5    2   18 1   
     6    3    7 2   
     7    4    8 3   
     8    4   22 1   
     9    5    9 2   
    10    5   12 1   
    11    5   21 1   
    12    6   23 1   
    13    7   10 2   
    14    8   11 1   
    15    9   12 1   
    16    9   26 1   
    17   10   15 1   
    18   10   24 1   
    19   11   12 1   
    20   11   16 1   
    21   11   25 1   
    22   12   17 1   
    23   13   14 1   
    24   13   16 1   
    25   13   32 2   
    26   14   27 1   
    27   14   28 1   
    28   14   29 1   
    29   15   17 2   
    30   15   30 1   
    31   16   31 1   
@<TRIPOS>SUBSTRUCTURE
     1 S0I         1 TEMP              0 ****  ****    0 ROOT
