@<TRIPOS>MOLECULE
S0I
   32    30     1     0     0
SMALL
bcc


@<TRIPOS>ATOM
      1 C18        -3.2360   -0.6560    3.1050 c2        1 S0I     -0.121000
      2 C16         6.2690   -0.5860    0.4190 c1        1 S0I     -0.232000
      3 C17        -1.9580   -0.8480    2.9400 c1        1 S0I     -0.122000
      4 C15         5.5040    1.6310    6.5880 c1        1 S0I     -0.181000
      5 C11         0.7330    1.8830    6.5450 c1        1 S0I     -0.009000
      6 C12         5.8380    0.5220    0.5570 c1        1 S0I     -0.232000
      7 C13        -0.7200   -1.0350    2.7750 c1        1 S0I     -0.063000
      8 C10         4.7530    1.2590    5.7340 c1        1 S0I     -0.202000
      9 C6          2.0300    1.5550    6.1980 c2        1 S0I     -0.157000
     10 C7          0.5640   -1.2340    2.5930 c2        1 S0I     -0.080000
     11 C5          3.8790    0.7580    4.6850 c3        1 S0I      0.171000
     12 C2          2.4070    0.8200    5.0990 c2        1 S0I     -0.111000
     13 C8          4.0000    2.6870    3.0640 c2        1 S0I      0.314000
     14 C4          3.3420    3.6450    4.0160 c3        1 S0I     -0.238000
     15 C3          1.6350   -0.6050    3.3620 c2        1 S0I     -0.020000
     16 N9          4.1300    1.3440    3.3880 n         1 S0I     -0.386000
     17 N1          1.4060    0.2130    4.3380 n2        1 S0I     -0.157000
     18 H1          6.6530   -1.5660    0.2910 ha        1 S0I      0.231500
     19 H2         -3.6280    0.0230    3.8760 ha        1 S0I      0.134000
     20 H3         -3.9890   -1.1610    2.4810 ha        1 S0I      0.134000
     21 H4         -0.0510    1.2270    6.9170 ha        1 S0I      0.129000
     22 H5          6.1700    1.9570    7.3470 ha        1 S0I      0.228000
     23 H6          5.4560    1.5130    0.6730 ha        1 S0I      0.231500
     24 H7          0.9090   -1.9210    1.7990 ha        1 S0I      0.147000
     25 H8          4.1280   -0.3530    4.5810 h1        1 S0I      0.119000
     26 H9          2.8090    2.0740    6.7980 ha        1 S0I      0.184000
     27 H10         3.8710    3.6390    5.0010 hc        1 S0I      0.111667
     28 H11         3.3800    4.6720    3.5790 hc        1 S0I      0.111667
     29 H12         2.2750    3.3530    4.1810 hc        1 S0I      0.111667
     30 H13         2.6500   -0.9060    3.0180 h4        1 S0I      0.106000
     31 H14         4.6650    0.7880    2.7550 hn        1 S0I      0.235000
     32 O14         4.4200    3.0550    1.9470 o         1 S0I     -0.386000
@<TRIPOS>BOND
     1    1    3 1   
     2    1   19 1   
     3    1   20 1   
     4    2    6 1   
     5    2   18 1   
     6    3    7 1   
     7    4    8 1   
     8    4   22 1   
     9    5    9 1   
    10    5   21 1   
    11    6   23 1   
    12    7   10 1   
    13    8   11 1   
    14    9   12 1   
    15    9   26 1   
    16   10   15 1   
    17   10   24 1   
    18   11   12 1   
    19   11   16 1   
    20   11   25 1   
    21   12   17 1   
    22   13   14 1   
    23   13   16 1   
    24   13   32 1   
    25   14   27 1   
    26   14   28 1   
    27   14   29 1   
    28   15   17 1   
    29   15   30 1   
    30   16   31 1   
@<TRIPOS>SUBSTRUCTURE
     1 S0I         1 TEMP              0 ****  ****    0 ROOT
