@<TRIPOS>MOLECULE
S0I
   32    30     1     0     0
SMALL
bcc


@<TRIPOS>ATOM
      1 C18        -1.5950    1.3630    1.7740 c2        1 S0I     -0.090000
      2 C16         4.5940    1.3370   -1.5180 c1        1 S0I     -0.230000
      3 C17        -0.9380    0.4160    2.3810 c1        1 S0I     -0.130000
      4 C15         2.4890    3.0700    6.2390 c3        1 S0I     -0.286000
      5 C11         2.0060   -0.2810    8.6250 c1        1 S0I      0.165000
      6 C12         4.9710    0.9180   -0.4630 c1        1 S0I     -0.230000
      7 C13        -0.3030   -0.5070    2.9640 c1        1 S0I     -0.029000
      8 C10         3.5600    2.3830    5.5660 c1        1 S0I     -0.044000
      9 C6          2.2660   -0.0700    7.4060 c1        1 S0I     -0.653000
     10 C7          0.3460   -1.4780    3.5600 c2        1 S0I     -0.119000
     11 C5          3.8280    0.9470    5.7710 c3        1 S0I      0.000000
     12 C2          2.5510    0.1380    6.1080 c2        1 S0I      0.287000
     13 C8          4.6850    0.7330    3.4210 c2        1 S0I      0.326000
     14 C4          3.8500    1.8760    2.9200 c3        1 S0I     -0.235000
     15 C3          1.3180   -1.3030    4.6370 c2        1 S0I      0.098000
     16 N9          4.6050    0.3170    4.7410 n         1 S0I     -0.377000
     17 N1          1.7100   -0.1540    5.0650 n2        1 S0I     -0.219000
     18 H1          4.2630    1.7080   -2.4540 ha        1 S0I      0.229000
     19 H2         -1.4610    2.4250    2.0330 ha        1 S0I      0.141000
     20 H3         -2.3190    1.1510    0.9720 ha        1 S0I      0.141000
     21 H4          1.8870    2.4770    6.9750 hc        1 S0I      0.125333
     22 H5          2.9220    3.9670    6.7610 hc        1 S0I      0.125333
     23 H6          5.3110    0.5410    0.4760 ha        1 S0I      0.229000
     24 H7          0.1760   -2.5290    3.2620 ha        1 S0I      0.160000
     25 H8          4.4550    0.9460    6.7330 h1        1 S0I      0.166000
     26 H9          1.7960    3.4630    5.4420 hc        1 S0I      0.125333
     27 H10         4.2870    2.8390    3.2900 hc        1 S0I      0.116000
     28 H11         3.8660    1.8670    1.8010 hc        1 S0I      0.116000
     29 H12         2.7930    1.8000    3.2730 hc        1 S0I      0.116000
     30 H13         1.7210   -2.2610    5.0420 h4        1 S0I      0.131000
     31 H14         5.2310   -0.3980    5.0340 hn        1 S0I      0.236000
     32 O14         5.4680    0.1100    2.6720 o         1 S0I     -0.389000
@<TRIPOS>BOND
     1    1    3 1   
     2    1   19 1   
     3    1   20 1   
     4    2    6 1   
     5    2   18 1   
     6    3    7 1   
     7    4    8 1   
     8    4   21 1   
     9    4   22 1   
    10    4   26 1   
    11    5    9 1   
    12    6   23 1   
    13    7   10 1   
    14    8   11 1   
    15    9   12 1   
    16   10   15 1   
    17   10   24 1   
    18   11   12 1   
    19   11   16 1   
    20   11   25 1   
    21   12   17 1   
    22   13   14 1   
    23   13   16 1   
    24   13   32 1   
    25   14   27 1   
    26   14   28 1   
    27   14   29 1   
    28   15   17 1   
    29   15   30 1   
    30   16   31 1   
@<TRIPOS>SUBSTRUCTURE
     1 S0I         1 TEMP              0 ****  ****    0 ROOT
