@<TRIPOS>MOLECULE
S0J
   38    40     1     0     0
SMALL
bcc


@<TRIPOS>ATOM
      1 C3          0.1040   -0.2070   -0.0430 cc        1 S0J     -0.163000
      2 C15         1.7950    0.0090   -2.5540 cd        1 S0J     -0.282400
      3 C4          1.5300   -0.0220   -0.0730 cc        1 S0J     -0.216500
      4 C14         2.3300   -0.0680   -1.2680 cc        1 S0J      0.476800
      5 C2         -0.3070   -0.1130    1.2910 cd        1 S0J     -0.131600
      6 C5          1.9570    0.1910    1.2580 cd        1 S0J     -0.028600
      7 C17         4.2070   -0.2310   -2.4840 cd        1 S0J      0.587300
      8 C11         1.1290    2.5730    6.2580 c3        1 S0J     -0.107400
      9 C10         0.1490    1.6970    5.4920 c3        1 S0J     -0.104400
     10 C12         2.2410    2.9090    5.2720 c3        1 S0J      0.125400
     11 C9          0.6450    1.6870    4.0420 c3        1 S0J      0.118100
     12 C1         -1.6740   -0.2450    1.8210 c3        1 S0J     -0.023800
     13 C6          3.3250    0.4540    1.7410 c3        1 S0J     -0.037800
     14 C8          0.8110    0.2470    3.5130 c3        1 S0J      0.030300
     15 N19         3.7200   -0.1930   -1.2290 nc        1 S0J     -0.689000
     16 N7          0.8310    0.1180    2.0870 na        1 S0J     -0.061100
     17 N18         5.5400   -0.4560   -2.8550 nv        1 S0J     -0.881500
     18 O13         1.9250    2.3310    4.0010 os        1 S0J     -0.420600
     19 S16         2.9800   -0.1120   -3.7200 ss        1 S0J     -0.116300
     20 H1         -0.5350   -0.3940   -0.9000 ha        1 S0J      0.149000
     21 H3          0.6310    3.5060    6.6220 hc        1 S0J      0.054700
     22 H4          1.5360    2.0370    7.1510 hc        1 S0J      0.054700
     23 H5          0.1270    0.6630    5.9190 hc        1 S0J      0.055200
     24 H6         -0.8890    2.1070    5.5440 hc        1 S0J      0.055200
     25 H7          2.3460    4.0120    5.1110 h1        1 S0J      0.048200
     26 H8          3.2290    2.4800    5.5820 h1        1 S0J      0.048200
     27 H9         -0.0370    2.2840    3.3770 h1        1 S0J      0.070700
     28 H10        -1.7700   -1.1570    2.4630 hc        1 S0J      0.043033
     29 H11        -1.9580    0.6470    2.4340 hc        1 S0J      0.043033
     30 H12        -2.3920   -0.3350    0.9700 hc        1 S0J      0.043033
     31 H13         3.3340    0.8730    2.7790 hc        1 S0J      0.059033
     32 H14         3.8200    1.1960    1.0650 hc        1 S0J      0.059033
     33 H15         3.9210   -0.4930    1.7200 hc        1 S0J      0.059033
     34 H16         1.7700   -0.1740    3.9280 h1        1 S0J      0.067200
     35 H17        -0.0540   -0.3650    3.9010 h1        1 S0J      0.067200
     36 H18         6.1330   -0.6820   -2.0800 hn        1 S0J      0.386300
     37 H19         5.9090    0.3170   -3.3740 hn        1 S0J      0.386300
     38 H2          0.7390    0.1380   -2.7780 h4        1 S0J      0.179000
@<TRIPOS>BOND
     1    1    3 1   
     2    1    5 2   
     3    1   20 1   
     4    2    4 2   
     5    2   19 1   
     6    2   38 1   
     7    3    4 1   
     8    3    6 2   
     9    4   15 1   
    10    5   12 1   
    11    5   16 1   
    12    6   13 1   
    13    6   16 1   
    14    7   15 2   
    15    7   17 1   
    16    7   19 1   
    17    8    9 1   
    18    8   10 1   
    19    8   21 1   
    20    8   22 1   
    21    9   11 1   
    22    9   23 1   
    23    9   24 1   
    24   10   18 1   
    25   10   25 1   
    26   10   26 1   
    27   11   14 1   
    28   11   18 1   
    29   11   27 1   
    30   12   28 1   
    31   12   29 1   
    32   12   30 1   
    33   13   31 1   
    34   13   32 1   
    35   13   33 1   
    36   14   16 1   
    37   14   34 1   
    38   14   35 1   
    39   17   36 1   
    40   17   37 1   
@<TRIPOS>SUBSTRUCTURE
     1 S0J         1 TEMP              0 ****  ****    0 ROOT
