@<TRIPOS>MOLECULE
S0J
   39    41     1     0     0
SMALL
bcc


@<TRIPOS>ATOM
      1 C3          0.0980   -0.1990   -0.0540 cc        1 S0J     -0.161000
      2 C15         1.8220   -0.0560   -2.5380 cd        1 S0J     -0.271400
      3 C4          1.5280   -0.0170   -0.0500 cc        1 S0J     -0.281500
      4 C14         2.3480   -0.0400   -1.2200 cc        1 S0J      0.527800
      5 C2         -0.3380   -0.1190    1.2700 cd        1 S0J     -0.097600
      6 C5          1.9250    0.1760    1.3000 cd        1 S0J      0.007400
      7 C17         4.1990   -0.0820   -2.4660 cd        1 S0J      0.275300
      8 C11         1.2100    2.5430    6.2450 c3        1 S0J     -0.108400
      9 C10         0.1740    1.7020    5.5130 c3        1 S0J     -0.104400
     10 C12         2.2930    2.8500    5.2180 c3        1 S0J      0.125400
     11 C9          0.6190    1.6750    4.0480 c3        1 S0J      0.121100
     12 C1         -1.7170   -0.2500    1.7710 c3        1 S0J     -0.036800
     13 C6          3.2860    0.4250    1.8110 c3        1 S0J     -0.047800
     14 C8          0.7270    0.2290    3.5250 c3        1 S0J      0.017300
     15 N19         3.7270   -0.0570   -1.1860 nc        1 S0J     -0.601000
     16 N7          0.7850    0.1000    2.0940 na        1 S0J     -0.041100
     17 N18         5.6270   -0.1000   -2.7180 n4        1 S0J     -0.765300
     18 O13         1.9110    2.2850    3.9570 os        1 S0J     -0.433600
     19 S16         3.0000   -0.0910   -3.6740 ss        1 S0J      0.153700
     20 H1         -0.5280   -0.3720   -0.9240 ha        1 S0J      0.154000
     21 H4          0.7560    3.4880    6.6330 hc        1 S0J      0.063700
     22 H5          0.1280    0.6700    5.9430 hc        1 S0J      0.061700
     23 H6         -0.8460    2.1500    5.6010 hc        1 S0J      0.061700
     24 H7          2.4220    3.9510    5.0530 h1        1 S0J      0.052200
     25 H8          3.2790    2.3910    5.4870 h1        1 S0J      0.052200
     26 H9         -0.0730    2.2830    3.4020 h1        1 S0J      0.071700
     27 H10        -2.4190   -0.3300    0.9040 hc        1 S0J      0.056700
     28 H11        -1.8280   -1.1680    2.4020 hc        1 S0J      0.056700
     29 H12        -2.0090    0.6390    2.3850 hc        1 S0J      0.056700
     30 H13         3.2830    0.7670    2.8780 hc        1 S0J      0.064367
     31 H14         3.7710    1.2280    1.2000 hc        1 S0J      0.064367
     32 H15         3.8960   -0.5090    1.7280 hc        1 S0J      0.064367
     33 H16        -0.1790   -0.3410    3.8830 h1        1 S0J      0.077200
     34 H17         1.6510   -0.2430    3.9660 h1        1 S0J      0.077200
     35 H18         6.0610    0.7480   -2.3260 hn        1 S0J      0.467800
     36 H19         6.0510   -0.9230   -2.2660 hn        1 S0J      0.467800
     37 H2          0.7490   -0.0400   -2.7490 h4        1 S0J      0.221000
     38 H183        5.7960   -0.1380   -3.7270 hn        1 S0J      0.467800
     39 H3          1.6350    1.9890    7.1180 hc        1 S0J      0.063700
@<TRIPOS>BOND
     1    1    3 1   
     2    1    5 2   
     3    1   20 1   
     4    2    4 2   
     5    2   19 1   
     6    2   37 1   
     7    3    4 1   
     8    3    6 2   
     9    4   15 1   
    10    5   12 1   
    11    5   16 1   
    12    6   13 1   
    13    6   16 1   
    14    7   15 2   
    15    7   17 1   
    16    7   19 1   
    17    8    9 1   
    18    8   10 1   
    19    8   21 1   
    20    8   39 1   
    21    9   11 1   
    22    9   22 1   
    23    9   23 1   
    24   10   18 1   
    25   10   24 1   
    26   10   25 1   
    27   11   14 1   
    28   11   18 1   
    29   11   26 1   
    30   12   27 1   
    31   12   28 1   
    32   12   29 1   
    33   13   30 1   
    34   13   31 1   
    35   13   32 1   
    36   14   16 1   
    37   14   33 1   
    38   14   34 1   
    39   17   35 1   
    40   17   36 1   
    41   17   38 1   
@<TRIPOS>SUBSTRUCTURE
     1 S0J         1 TEMP              0 ****  ****    0 ROOT
