@<TRIPOS>MOLECULE
S0J
   38    40     1     0     0
SMALL
bcc


@<TRIPOS>ATOM
      1 C3          0.1190   -0.2470   -0.0350 cc        1 S0J     -0.163000
      2 C15         1.7910    0.0110   -2.5540 cd        1 S0J     -0.282400
      3 C4          1.5400   -0.0240   -0.0720 cc        1 S0J     -0.216500
      4 C14         2.3340   -0.0500   -1.2710 cc        1 S0J      0.476800
      5 C2         -0.2870   -0.1630    1.3010 cd        1 S0J     -0.131600
      6 C5          1.9670    0.2010    1.2560 cd        1 S0J     -0.028600
      7 C17         4.2090   -0.1640   -2.4970 cd        1 S0J      0.587300
      8 C11         1.1020    2.5660    6.2590 c3        1 S0J     -0.107400
      9 C10         0.1420    1.6630    5.4980 c3        1 S0J     -0.104400
     10 C12         2.2000    2.9290    5.2660 c3        1 S0J      0.125400
     11 C9          0.6300    1.6650    4.0460 c3        1 S0J      0.118100
     12 C1         -1.6470   -0.3300    1.8390 c3        1 S0J     -0.023800
     13 C6          3.3300    0.5020    1.7320 c3        1 S0J     -0.037800
     14 C8          0.8320    0.2300    3.5170 c3        1 S0J      0.030300
     15 N19         3.7280   -0.1370   -1.2400 nc        1 S0J     -0.689000
     16 N7          0.8480    0.1000    2.0910 na        1 S0J     -0.061100
     17 N18         5.5450   -0.3520   -2.8740 nh        1 S0J     -0.881500
     18 O13         1.8930    2.3430    3.9980 os        1 S0J     -0.420600
     19 S16         2.9730   -0.0790   -3.7270 ss        1 S0J     -0.116300
     20 H1         -0.5190   -0.4520   -0.8890 ha        1 S0J      0.149000
     21 H3          0.5820    3.4850    6.6250 hc        1 S0J      0.054700
     22 H4          1.5270    2.0420    7.1490 hc        1 S0J      0.054700
     23 H5          0.1490    0.6300    5.9260 hc        1 S0J      0.055200
     24 H6         -0.9060    2.0460    5.5550 hc        1 S0J      0.055200
     25 H7          3.2000    2.5260    5.5720 h1        1 S0J      0.047700
     26 H8          2.2750    4.0350    5.1050 h1        1 S0J      0.047700
     27 H9         -0.0710    2.2430    3.3840 h1        1 S0J      0.070700
     28 H10        -1.7150   -1.2440    2.4820 hc        1 S0J      0.043033
     29 H11        -1.9520    0.5550    2.4520 hc        1 S0J      0.043033
     30 H12        -2.3680   -0.4410    0.9910 hc        1 S0J      0.043033
     31 H13         3.3340    0.9220    2.7690 hc        1 S0J      0.059033
     32 H14         3.9520   -0.4290    1.7090 hc        1 S0J      0.059033
     33 H15         3.8020    1.2560    1.0530 hc        1 S0J      0.059033
     34 H16         1.8050   -0.1650    3.9280 h1        1 S0J      0.067200
     35 H17        -0.0140   -0.4050    3.9100 h1        1 S0J      0.067200
     36 H18         5.8910    0.4290   -3.3970 hn        1 S0J      0.386300
     37 H19         6.1490   -0.5610   -2.1020 hn        1 S0J      0.386300
     38 H2          0.7310    0.1100   -2.7730 h4        1 S0J      0.179000
@<TRIPOS>BOND
     1    1    3 1   
     2    1    5 2   
     3    1   20 1   
     4    2    4 2   
     5    2   19 1   
     6    2   38 1   
     7    3    4 1   
     8    3    6 2   
     9    4   15 1   
    10    5   12 1   
    11    5   16 1   
    12    6   13 1   
    13    6   16 1   
    14    7   15 2   
    15    7   17 1   
    16    7   19 1   
    17    8    9 1   
    18    8   10 1   
    19    8   21 1   
    20    8   22 1   
    21    9   11 1   
    22    9   23 1   
    23    9   24 1   
    24   10   18 1   
    25   10   25 1   
    26   10   26 1   
    27   11   14 1   
    28   11   18 1   
    29   11   27 1   
    30   12   28 1   
    31   12   29 1   
    32   12   30 1   
    33   13   31 1   
    34   13   32 1   
    35   13   33 1   
    36   14   16 1   
    37   14   34 1   
    38   14   35 1   
    39   17   36 1   
    40   17   37 1   
@<TRIPOS>SUBSTRUCTURE
     1 S0J         1 TEMP              0 ****  ****    0 ROOT
