@<TRIPOS>MOLECULE
S0K
   37    39     1     0     0
SMALL
bcc


@<TRIPOS>ATOM
      1 C9          0.6120   -0.2050    0.2090 ca        1 S0K     -0.065000
      2 C11         1.9500   -0.4600    0.5160 ca        1 S0K     -0.110000
      3 C4         -0.3290   -0.0660    1.2240 ca        1 S0K     -0.135000
      4 C6          2.3520   -0.5730    1.8410 ca        1 S0K     -0.106000
      5 C17         4.9060    1.5830    5.2210 cc        1 S0K     -0.063000
      6 C19         6.2400    1.2360    5.1870 cd        1 S0K     -0.210100
      7 C18         4.8720   -0.6070    4.4020 cd        1 S0K     -0.203100
      8 C14         4.0870    0.4960    4.7580 cc        1 S0K     -0.244600
      9 C1          0.0370   -0.1820    2.5790 ca        1 S0K      0.140600
     10 C2          1.4070   -0.4360    2.8740 ca        1 S0K     -0.043400
     11 C10         2.6530    0.6440    4.7240 c         1 S0K      0.604700
     12 C7         -2.0700   -0.9330    3.5020 c3        1 S0K      0.125800
     13 C8         -1.2400    1.3050    3.9800 c3        1 S0K      0.125800
     14 C12        -3.0540   -0.7760    4.6690 c3        1 S0K      0.124400
     15 C13        -2.2600    1.3980    5.1230 c3        1 S0K      0.124400
     16 N3         -0.8910   -0.0830    3.6650 nh        1 S0K     -0.663000
     17 N5          1.8460   -0.5650    4.2660 n4        1 S0K     -0.537200
     18 O15         1.9820    1.6170    5.0480 o         1 S0K     -0.437100
     19 O16        -3.4000    0.5880    4.8710 os        1 S0K     -0.393600
     20 S20         6.4640   -0.3090    4.6290 ss        1 S0K      0.291200
     21 H1          0.2990   -0.1080   -0.8440 ha        1 S0K      0.169000
     22 H2          2.6920   -0.5690   -0.2910 ha        1 S0K      0.168000
     23 H3         -1.3810    0.1440    0.9630 ha        1 S0K      0.170000
     24 H4          3.4130   -0.7620    2.0740 ha        1 S0K      0.149000
     25 H7          4.5070   -1.5600    4.0180 h4        1 S0K      0.175000
     26 H8         -1.7240   -2.0030    3.4580 h1        1 S0K      0.058700
     27 H9         -2.6200   -0.7010    2.5450 h1        1 S0K      0.058700
     28 H10        -1.6640    1.8310    3.0770 h1        1 S0K      0.058700
     29 H11        -0.2960    1.8370    4.2900 h1        1 S0K      0.058700
     30 H12        -2.6270   -1.2060    5.6130 h1        1 S0K      0.067700
     31 H13        -4.0260   -1.2790    4.4190 h1        1 S0K      0.067700
     32 H14        -2.6650    2.4430    5.1870 h1        1 S0K      0.067700
     33 H15        -1.7920    1.1040    6.0990 h1        1 S0K      0.067700
     34 H16         1.0120   -0.6450    4.8710 hn        1 S0K      0.466800
     35 H5          4.4950    2.5430    5.5480 ha        1 S0K      0.193000
     36 H52         2.4080   -1.4160    4.3590 hn        1 S0K      0.466800
     37 H6          7.0600    1.8930    5.4900 h4        1 S0K      0.209000
@<TRIPOS>BOND
     1    1    2 ar  
     2    1    3 ar  
     3    1   21 1   
     4    2    4 ar  
     5    2   22 1   
     6    3    9 ar  
     7    3   23 1   
     8    4   10 ar  
     9    4   24 1   
    10    5    6 2   
    11    5    8 1   
    12    5   35 1   
    13    6   20 1   
    14    6   37 1   
    15    7    8 2   
    16    7   20 1   
    17    7   25 1   
    18    8   11 1   
    19    9   10 ar  
    20    9   16 1   
    21   10   17 1   
    22   11   17 1   
    23   11   18 2   
    24   12   14 1   
    25   12   16 1   
    26   12   26 1   
    27   12   27 1   
    28   13   15 1   
    29   13   16 1   
    30   13   28 1   
    31   13   29 1   
    32   14   19 1   
    33   14   30 1   
    34   14   31 1   
    35   15   19 1   
    36   15   32 1   
    37   15   33 1   
    38   17   34 1   
    39   17   36 1   
@<TRIPOS>SUBSTRUCTURE
     1 S0K         1 TEMP              0 ****  ****    0 ROOT
