@<TRIPOS>MOLECULE
S0K
   36    38     1     0     0
SMALL
bcc


@<TRIPOS>ATOM
      1 C9         -0.1340   -0.0190   -0.1330 ca        1 S0K     -0.154000
      2 C11         1.2570   -0.0290   -0.2120 ca        1 S0K     -0.104000
      3 C4         -0.7500   -0.0020    1.1120 ca        1 S0K     -0.128000
      4 C6          2.0300   -0.0210    0.9420 ca        1 S0K     -0.156000
      5 C17         5.2800    1.0470    5.2190 cc        1 S0K     -0.100000
      6 C19         5.6400    0.8530    6.5320 cd        1 S0K     -0.186100
      7 C18         3.6310   -0.4170    5.9730 cd        1 S0K     -0.151100
      8 C14         4.0960    0.3050    4.8880 cc        1 S0K     -0.179600
      9 C1         -0.0000    0.0090    2.3010 ca        1 S0K      0.024600
     10 C2          1.4310    0.0020    2.2210 ca        1 S0K      0.097600
     11 C10         3.5340    0.3520    3.5210 c         1 S0K      0.700700
     12 C7         -1.4770   -1.1490    3.8180 c3        1 S0K      0.134300
     13 C8         -1.3490    1.2700    3.8480 c3        1 S0K      0.134300
     14 C12        -2.1770   -1.0980    5.1810 c3        1 S0K      0.124900
     15 C13        -2.0550    1.2610    5.2090 c3        1 S0K      0.124900
     16 N3         -0.6340    0.0220    3.5920 nh        1 S0K     -0.627000
     17 N5          2.1980   -0.0150    3.3960 ns        1 S0K     -0.459100
     18 O15         4.2380    0.6990    2.5520 o         1 S0K     -0.592100
     19 O16        -2.8900    0.1190    5.3640 os        1 S0K     -0.414600
     20 S20         4.5910   -0.1900    7.3110 ss        1 S0K      0.063200
     21 H1         -0.7420   -0.0240   -1.0490 ha        1 S0K      0.134000
     22 H2          1.7540   -0.0440   -1.1940 ha        1 S0K      0.136000
     23 H3         -1.8510    0.0080    1.1650 ha        1 S0K      0.133000
     24 H4          3.1300   -0.0260    0.8470 ha        1 S0K      0.173000
     25 H6          6.4990    1.3050    7.0260 h4        1 S0K      0.178000
     26 H7          2.7620   -1.0740    5.9820 h4        1 S0K      0.175000
     27 H8         -0.8160   -2.0580    3.7820 h1        1 S0K      0.047950
     28 H9         -2.2650   -1.2590    3.0180 h1        1 S0K      0.047950
     29 H10        -2.1180    1.4790    3.0480 h1        1 S0K      0.047950
     30 H11        -0.5960    2.1050    3.8340 h1        1 S0K      0.047950
     31 H12        -1.4370   -1.2280    6.0140 h1        1 S0K      0.052950
     32 H13        -2.9650   -1.8940    5.2380 h1        1 S0K      0.052950
     33 H14        -2.7560    2.1330    5.2840 h1        1 S0K      0.052950
     34 H15        -1.3070    1.2950    6.0450 h1        1 S0K      0.052950
     35 H16         1.6930   -0.1540    4.2450 hn        1 S0K      0.333500
     36 H5          5.8020    1.6690    4.4860 ha        1 S0K      0.178000
@<TRIPOS>BOND
     1    1    2 ar  
     2    1    3 ar  
     3    1   21 1   
     4    2    4 ar  
     5    2   22 1   
     6    3    9 ar  
     7    3   23 1   
     8    4   10 ar  
     9    4   24 1   
    10    5    6 2   
    11    5    8 1   
    12    5   36 1   
    13    6   20 1   
    14    6   25 1   
    15    7    8 2   
    16    7   20 1   
    17    7   26 1   
    18    8   11 1   
    19    9   10 ar  
    20    9   16 1   
    21   10   17 1   
    22   11   17 1   
    23   11   18 2   
    24   12   14 1   
    25   12   16 1   
    26   12   27 1   
    27   12   28 1   
    28   13   15 1   
    29   13   16 1   
    30   13   29 1   
    31   13   30 1   
    32   14   19 1   
    33   14   31 1   
    34   14   32 1   
    35   15   19 1   
    36   15   33 1   
    37   15   34 1   
    38   17   35 1   
@<TRIPOS>SUBSTRUCTURE
     1 S0K         1 TEMP              0 ****  ****    0 ROOT
