@<TRIPOS>MOLECULE
S0K
   36    38     1     0     0
SMALL
bcc


@<TRIPOS>ATOM
      1 C9         -0.1370   -0.0000   -0.1330 ca        1 S0K     -0.154000
      2 C11         1.2530   -0.0080   -0.2130 ca        1 S0K     -0.104000
      3 C4         -0.7520    0.0100    1.1130 ca        1 S0K     -0.128000
      4 C6          2.0280   -0.0050    0.9400 ca        1 S0K     -0.156000
      5 C17         5.2790    1.0460    5.2200 cc        1 S0K     -0.100000
      6 C19         5.6410    0.8440    6.5320 cd        1 S0K     -0.186100
      7 C18         3.6360   -0.4280    5.9660 cd        1 S0K     -0.151100
      8 C14         4.0970    0.3020    4.8860 cc        1 S0K     -0.179600
      9 C1         -0.0010    0.0150    2.3010 ca        1 S0K      0.024600
     10 C2          1.4300    0.0100    2.2200 ca        1 S0K      0.097600
     11 C10         3.5340    0.3560    3.5190 c         1 S0K      0.700700
     12 C7         -1.4760   -1.1520    3.8130 c3        1 S0K      0.134300
     13 C8         -1.3490    1.2660    3.8570 c3        1 S0K      0.134300
     14 C12        -2.1750   -1.1100    5.1770 c3        1 S0K      0.124900
     15 C13        -2.0530    1.2490    5.2180 c3        1 S0K      0.124900
     16 N3         -0.6330    0.0200    3.5930 nh        1 S0K     -0.627000
     17 N5          2.1980   -0.0130    3.3930 n         1 S0K     -0.459100
     18 O15         4.2350    0.7110    2.5520 o         1 S0K     -0.592100
     19 O16        -2.8880    0.1060    5.3680 os        1 S0K     -0.414600
     20 S20         4.5960   -0.2070    7.3050 ss        1 S0K      0.063200
     21 H1         -0.7470   -0.0010   -1.0480 ha        1 S0K      0.134000
     22 H2          1.7490   -0.0170   -1.1960 ha        1 S0K      0.136000
     23 H3         -1.8530    0.0180    1.1670 ha        1 S0K      0.133000
     24 H4          3.1270   -0.0090    0.8440 ha        1 S0K      0.173000
     25 H6          6.4990    1.2950    7.0280 h4        1 S0K      0.178000
     26 H7          2.7690   -1.0890    5.9710 h4        1 S0K      0.175000
     27 H8         -0.8150   -2.0610    3.7710 h1        1 S0K      0.047950
     28 H9         -2.2650   -1.2580    3.0130 h1        1 S0K      0.047950
     29 H10        -0.5970    2.1020    3.8460 h1        1 S0K      0.047950
     30 H11        -2.1190    1.4800    3.0590 h1        1 S0K      0.047950
     31 H12        -1.4340   -1.2450    6.0090 h1        1 S0K      0.052950
     32 H13        -2.9620   -1.9070    5.2310 h1        1 S0K      0.052950
     33 H14        -1.3050    1.2780    6.0540 h1        1 S0K      0.052950
     34 H15        -2.7550    2.1200    5.2990 h1        1 S0K      0.052950
     35 H16         1.6950   -0.1580    4.2420 hn        1 S0K      0.333500
     36 H5          5.7980    1.6740    4.4900 ha        1 S0K      0.178000
@<TRIPOS>BOND
     1    1    2 ar  
     2    1    3 ar  
     3    1   21 1   
     4    2    4 ar  
     5    2   22 1   
     6    3    9 ar  
     7    3   23 1   
     8    4   10 ar  
     9    4   24 1   
    10    5    6 2   
    11    5    8 1   
    12    5   36 1   
    13    6   20 1   
    14    6   25 1   
    15    7    8 2   
    16    7   20 1   
    17    7   26 1   
    18    8   11 1   
    19    9   10 ar  
    20    9   16 1   
    21   10   17 1   
    22   11   17 1   
    23   11   18 2   
    24   12   14 1   
    25   12   16 1   
    26   12   27 1   
    27   12   28 1   
    28   13   15 1   
    29   13   16 1   
    30   13   29 1   
    31   13   30 1   
    32   14   19 1   
    33   14   31 1   
    34   14   32 1   
    35   15   19 1   
    36   15   33 1   
    37   15   34 1   
    38   17   35 1   
@<TRIPOS>SUBSTRUCTURE
     1 S0K         1 TEMP              0 ****  ****    0 ROOT
