@<TRIPOS>MOLECULE
S10
   33    32     1     0     0
SMALL
bcc


@<TRIPOS>ATOM
      1 O15         3.4700   -0.8520   -1.2310 o         1 S10     -0.584000
      2 C10         3.2910   -0.4040   -0.0860 c         1 S10      0.722100
      3 O11         4.1450    0.5700    0.3890 os        1 S10     -0.449900
      4 C12         5.2550    0.8820   -0.4770 c3        1 S10      0.150400
      5 C13         6.0690    1.9210    0.2540 c3        1 S10     -0.102100
      6 N9          2.3540   -0.8040    0.8560 n         1 S10     -0.514900
      7 C8          1.1790   -1.5110    0.4190 c3        1 S10      0.084000
      8 C7          0.0000   -0.6270    0.0100 c3        1 S10     -0.153400
      9 C6         -1.1790   -1.5220   -0.3750 c3        1 S10      0.084000
     10 N5         -2.3540   -0.8260   -0.8300 n         1 S10     -0.514900
     11 C4         -3.2910   -0.4020    0.1010 c         1 S10      0.722100
     12 O14        -3.4700   -0.8200    1.2570 o         1 S10     -0.584000
     13 O3         -4.1450    0.5590   -0.3990 os        1 S10     -0.449900
     14 C2         -5.2550    0.8930    0.4580 c3        1 S10      0.150400
     15 C1         -6.0700    1.9130   -0.3000 c3        1 S10     -0.102100
     16 H121        4.8520    1.2680   -1.4490 h1        1 S10      0.054200
     17 H122        5.8390   -0.0560   -0.6670 h1        1 S10      0.054200
     18 H131        6.4340    1.5200    1.2300 hc        1 S10      0.048700
     19 H132        6.9460    2.2020   -0.3770 hc        1 S10      0.048700
     20 H133        5.4560    2.8320    0.4550 hc        1 S10      0.048700
     21 H9          2.2500   -0.2070    1.6470 hn        1 S10      0.314500
     22 H8C1        1.4640   -2.1710   -0.4510 h1        1 S10      0.072700
     23 H8C2        0.8610   -2.1700    1.2780 h1        1 S10      0.072700
     24 H7C1       -0.2930    0.0450    0.8580 hc        1 S10      0.054700
     25 H7C2        0.2930    0.0230   -0.8550 hc        1 S10      0.054700
     26 H6C1       -0.8610   -2.2030   -1.2160 h1        1 S10      0.072700
     27 H6C2       -1.4640   -2.1580    0.5120 h1        1 S10      0.072700
     28 H5         -2.2500   -0.2510   -1.6370 hn        1 S10      0.314500
     29 H2C1       -5.8390   -0.0390    0.6720 h1        1 S10      0.054200
     30 H2C2       -4.8520    1.3050    1.4200 h1        1 S10      0.054200
     31 H1C1       -6.9460    2.2100    0.3240 hc        1 S10      0.048700
     32 H1C2       -5.4570    2.8180   -0.5250 hc        1 S10      0.048700
     33 H1C3       -6.4340    1.4870   -1.2650 hc        1 S10      0.048700
@<TRIPOS>BOND
     1    1    2 2   
     2    2    3 1   
     3    2    6 1   
     4    3    4 1   
     5    4    5 1   
     6    4   16 1   
     7    4   17 1   
     8    5   18 1   
     9    5   19 1   
    10    5   20 1   
    11    6    7 1   
    12    6   21 1   
    13    7    8 1   
    14    7   22 1   
    15    7   23 1   
    16    8    9 1   
    17    8   24 1   
    18    8   25 1   
    19    9   10 1   
    20    9   26 1   
    21    9   27 1   
    22   10   11 1   
    23   10   28 1   
    24   11   12 2   
    25   11   13 1   
    26   13   14 1   
    27   14   15 1   
    28   14   29 1   
    29   14   30 1   
    30   15   31 1   
    31   15   32 1   
    32   15   33 1   
@<TRIPOS>SUBSTRUCTURE
     1 S10         1 TEMP              0 ****  ****    0 ROOT
