@<TRIPOS>MOLECULE
S10
   33    31     1     0     0
SMALL
bcc


@<TRIPOS>ATOM
      1 O15        -1.8580    0.0250    3.7170 o         1 S10     -0.621500
      2 C10        -0.6750    0.2710    3.6590 c1        1 S10      0.610500
      3 O11        -0.0230    0.8780    4.7620 o         1 S10     -0.450500
      4 C12        -0.8350    0.9960    5.9170 c3        1 S10      0.240100
      5 C13        -0.0520    1.6940    7.0180 c3        1 S10     -0.102100
      6 N9          0.0730   -0.0700    2.4830 n3        1 S10     -0.356400
      7 C8         -0.6160   -0.5080    1.2900 c3        1 S10      0.026300
      8 C7          0.3830   -0.5740    0.1120 c3        1 S10     -0.151400
      9 C6         -0.3930   -0.7760   -1.2180 c3        1 S10      0.083000
     10 N5          0.5350   -0.7590   -2.3240 n         1 S10     -0.516900
     11 C4          0.0420   -0.6950   -3.6790 c         1 S10      0.723100
     12 O14        -1.1400   -0.9260   -3.9130 o         1 S10     -0.577000
     13 O3          0.9260   -0.3710   -4.7430 os        1 S10     -0.450900
     14 C2          0.3170   -0.4170   -6.0370 c3        1 S10      0.150400
     15 C1          1.3550   -0.0580   -7.1050 c3        1 S10     -0.102100
     16 H121       -1.1030    0.1020    6.2210 h1        1 S10      0.055200
     17 H122       -1.6320    1.5200    5.7020 h1        1 S10      0.055200
     18 H131        0.2610    2.5650    6.6950 hc        1 S10      0.048700
     19 H132        0.7140    1.1460    7.2690 hc        1 S10      0.048700
     20 H133       -0.6330    1.8240    7.8010 hc        1 S10      0.048700
     21 H9          0.9830   -0.0510    2.5010 hn        1 S10      0.274700
     22 H8C1       -1.3210    0.1160    1.0790 h1        1 S10      0.073200
     23 H8C2       -1.0000   -1.3950    1.4420 h1        1 S10      0.073200
     24 H7C1        0.9970   -1.3230    0.2480 hc        1 S10      0.053200
     25 H7C2        0.8910    0.2590    0.0700 hc        1 S10      0.053200
     26 H6C1       -1.0430   -0.0570   -1.3290 h1        1 S10      0.073200
     27 H6C2       -0.8620   -1.6410   -1.1970 h1        1 S10      0.073200
     28 H5          1.4260   -0.7330   -2.1650 hn        1 S10      0.311500
     29 H2C1       -0.4200    0.2220   -6.0720 h1        1 S10      0.055200
     30 H2C2       -0.0260   -1.3180   -6.2040 h1        1 S10      0.055200
     31 H1C1        0.9340   -0.0830   -7.9940 hc        1 S10      0.048700
     32 H1C2        1.7020    0.8420   -6.9340 hc        1 S10      0.048700
     33 H1C3        2.0950   -0.7060   -7.0750 hc        1 S10      0.048700
@<TRIPOS>BOND
     1    1    2 2   
     2    2    6 2   
     3    3    4 1   
     4    4    5 1   
     5    4   16 1   
     6    4   17 1   
     7    5   18 1   
     8    5   19 1   
     9    5   20 1   
    10    6    7 1   
    11    6   21 1   
    12    7    8 1   
    13    7   22 1   
    14    7   23 1   
    15    8    9 1   
    16    8   24 1   
    17    8   25 1   
    18    9   10 1   
    19    9   26 1   
    20    9   27 1   
    21   10   11 1   
    22   10   28 1   
    23   11   12 2   
    24   11   13 1   
    25   13   14 1   
    26   14   15 1   
    27   14   29 1   
    28   14   30 1   
    29   15   31 1   
    30   15   32 1   
    31   15   33 1   
@<TRIPOS>SUBSTRUCTURE
     1 S10         1 TEMP              0 ****  ****    0 ROOT
