@<TRIPOS>MOLECULE
S10
   35    34     1     0     0
SMALL
bcc


@<TRIPOS>ATOM
      1 O15         0.4380   -1.3660   -0.2590 o         1 S10     -0.404000
      2 C10         1.3660   -0.6170   -0.0030 c         1 S10      0.625100
      3 O11         1.6700   -0.0150    1.1470 os        1 S10     -0.400900
      4 C12         0.7790   -0.3240    2.2970 c3        1 S10      0.168400
      5 C13         1.3620    0.4680    3.4310 c3        1 S10     -0.124100
      6 N9          2.3910   -0.2480   -1.0630 ny        1 S10     -0.651800
      7 C8          1.7500   -0.1180   -2.4020 c3        1 S10      0.108800
      8 C7          2.7580    0.0080   -3.5450 c3        1 S10     -0.133400
      9 C6          1.9700    0.1170   -4.8500 c3        1 S10      0.108800
     10 N5          2.8400    0.2620   -6.0520 ny        1 S10     -0.651800
     11 C4          2.0160    0.6130   -7.2810 c         1 S10      0.625100
     12 O14         1.0430    1.3430   -7.1980 o         1 S10     -0.404000
     13 O3          2.5340    0.0180   -8.3550 os        1 S10     -0.400900
     14 C2          1.8590    0.3120   -9.6480 c3        1 S10      0.168400
     15 C1          2.6510   -0.4680  -10.6570 c3        1 S10     -0.124100
     16 H121        0.8230   -1.4320    2.4570 h1        1 S10      0.089200
     17 H122       -0.2520    0.0020    2.0070 h1        1 S10      0.089200
     18 H131        2.4120    0.1550    3.6500 hc        1 S10      0.085367
     19 H132        0.7330    0.2780    4.3400 hc        1 S10      0.085367
     20 H133        1.3520    1.5630    3.2110 hc        1 S10      0.085367
     21 H9          3.1010   -0.9930   -1.0770 hn        1 S10      0.476800
     22 H8C1        1.0970   -1.0310   -2.5580 hx        1 S10      0.133700
     23 H8C2        1.0790    0.7910   -2.3710 hx        1 S10      0.133700
     24 H7C1        3.4330   -0.8900   -3.5710 hc        1 S10      0.089700
     25 H7C2        3.4000    0.9200   -3.3990 hc        1 S10      0.089700
     26 H6C1        1.2830    1.0170   -4.8160 hx        1 S10      0.133700
     27 H6C2        1.3340   -0.8050   -5.0010 hx        1 S10      0.133700
     28 H5          3.5210    1.0200   -5.9120 hn        1 S10      0.476800
     29 H2C1        1.9110    1.4200   -9.8000 h1        1 S10      0.089200
     30 H2C2        0.7980   -0.0330   -9.5480 h1        1 S10      0.089200
     31 H1C1        2.6210   -1.5630  -10.4390 hc        1 S10      0.085367
     32 H1C2        2.1930   -0.2880  -11.6650 hc        1 S10      0.085367
     33 H1C3        3.7170   -0.1360  -10.6830 hc        1 S10      0.085367
     34 H92         2.8500    0.6310   -0.7890 hn        1 S10      0.476800
     35 H52         3.3580   -0.6090   -6.2370 hn        1 S10      0.476800
@<TRIPOS>BOND
     1    1    2 2   
     2    2    3 1   
     3    2    6 1   
     4    3    4 1   
     5    4    5 1   
     6    4   16 1   
     7    4   17 1   
     8    5   18 1   
     9    5   19 1   
    10    5   20 1   
    11    6    7 1   
    12    6   21 1   
    13    6   34 1   
    14    7    8 1   
    15    7   22 1   
    16    7   23 1   
    17    8    9 1   
    18    8   24 1   
    19    8   25 1   
    20    9   10 1   
    21    9   26 1   
    22    9   27 1   
    23   10   11 1   
    24   10   28 1   
    25   10   35 1   
    26   11   12 2   
    27   11   13 1   
    28   13   14 1   
    29   14   15 1   
    30   14   29 1   
    31   14   30 1   
    32   15   31 1   
    33   15   32 1   
    34   15   33 1   
@<TRIPOS>SUBSTRUCTURE
     1 S10         1 TEMP              0 ****  ****    0 ROOT
