@<TRIPOS>MOLECULE
S10
   35    34     1     0     0
SMALL
bcc


@<TRIPOS>ATOM
      1 O15        -0.0460   -0.0030   -0.2260 o         1 S10     -0.404000
      2 C10         1.1450   -0.0010    0.0330 c         1 S10      0.625100
      3 O11         1.7480    0.0000    1.2220 os        1 S10     -0.400900
      4 C12         0.8480   -0.0000    2.4050 c3        1 S10      0.168400
      5 C13         1.7870    0.0010    3.5770 c3        1 S10     -0.124100
      6 N9          2.1930   -0.0010   -1.0680 n4        1 S10     -0.651800
      7 C8          1.5570   -0.0000   -2.4160 c3        1 S10      0.108800
      8 C7          2.5690   -0.0000   -3.5610 c3        1 S10     -0.133400
      9 C6          1.7820    0.0000   -4.8720 c3        1 S10      0.108800
     10 N5          2.6530    0.0010   -6.0810 n4        1 S10     -0.651800
     11 C4          1.8230    0.0010   -7.3550 c         1 S10      0.625100
     12 O14         0.6040    0.0020   -7.3170 o         1 S10     -0.404000
     13 O3          2.6330   -0.0000   -8.4140 os        1 S10     -0.400900
     14 C2          1.9630    0.0000   -9.7420 c3        1 S10      0.168400
     15 C1          3.0990   -0.0010  -10.7230 c3        1 S10     -0.124100
     16 H121        0.2190   -0.9240    2.3380 h1        1 S10      0.089200
     17 H122        0.2170    0.9230    2.3370 h1        1 S10      0.089200
     18 H131        2.4380   -0.9060    3.5770 hc        1 S10      0.085367
     19 H132        1.1680    0.0010    4.5120 hc        1 S10      0.085367
     20 H133        2.4370    0.9100    3.5770 hc        1 S10      0.085367
     21 H9          2.7850   -0.8330   -0.9450 hn        1 S10      0.476800
     22 H8C1        0.8910   -0.9130   -2.4780 hx        1 S10      0.133700
     23 H8C2        0.8910    0.9130   -2.4780 hx        1 S10      0.133700
     24 H7C1        3.2270   -0.9090   -3.5010 hc        1 S10      0.089700
     25 H7C2        3.2270    0.9090   -3.5010 hc        1 S10      0.089700
     26 H6C1        1.1160    0.9130   -4.9310 hx        1 S10      0.133700
     27 H6C2        1.1160   -0.9130   -4.9320 hx        1 S10      0.133700
     28 H5          3.2580    0.8330   -6.0950 hn        1 S10      0.476800
     29 H2C1        1.3320    0.9240   -9.7900 h1        1 S10      0.089200
     30 H2C2        1.3300   -0.9230   -9.7900 h1        1 S10      0.089200
     31 H1C1        3.7380   -0.9090  -10.6040 hc        1 S10      0.085367
     32 H1C2        2.6610   -0.0010  -11.7550 hc        1 S10      0.085367
     33 H1C3        3.7400    0.9070  -10.6040 hc        1 S10      0.085367
     34 H92         2.7850    0.8320   -0.9440 hn        1 S10      0.476800
     35 H52         3.2580   -0.8320   -6.0960 hn        1 S10      0.476800
@<TRIPOS>BOND
     1    1    2 2   
     2    2    3 1   
     3    2    6 1   
     4    3    4 1   
     5    4    5 1   
     6    4   16 1   
     7    4   17 1   
     8    5   18 1   
     9    5   19 1   
    10    5   20 1   
    11    6    7 1   
    12    6   21 1   
    13    6   34 1   
    14    7    8 1   
    15    7   22 1   
    16    7   23 1   
    17    8    9 1   
    18    8   24 1   
    19    8   25 1   
    20    9   10 1   
    21    9   26 1   
    22    9   27 1   
    23   10   11 1   
    24   10   28 1   
    25   10   35 1   
    26   11   12 2   
    27   11   13 1   
    28   13   14 1   
    29   14   15 1   
    30   14   29 1   
    31   14   30 1   
    32   15   31 1   
    33   15   32 1   
    34   15   33 1   
@<TRIPOS>SUBSTRUCTURE
     1 S10         1 TEMP              0 ****  ****    0 ROOT
