@<TRIPOS>MOLECULE
S10
   35    34     1     0     0
SMALL
bcc


@<TRIPOS>ATOM
      1 O15         0.4300   -1.3550   -0.2590 o         1 S10     -0.404000
      2 C10         1.3620   -0.6110   -0.0030 c         1 S10      0.625100
      3 O11         1.6700   -0.0130    1.1470 os        1 S10     -0.400900
      4 C12         0.7790   -0.3190    2.2980 c3        1 S10      0.168400
      5 C13         1.3690    0.4650    3.4340 c3        1 S10     -0.124100
      6 N9          2.3880   -0.2460   -1.0630 n4        1 S10     -0.651800
      7 C8          1.7470   -0.1150   -2.4030 c3        1 S10      0.108800
      8 C7          2.7550    0.0080   -3.5450 c3        1 S10     -0.133400
      9 C6          1.9680    0.1170   -4.8510 c3        1 S10      0.108800
     10 N5          2.8380    0.2600   -6.0530 n4        1 S10     -0.651800
     11 C4          2.0150    0.6090   -7.2820 c         1 S10      0.625100
     12 O14         1.0410    1.3380   -7.2000 o         1 S10     -0.404000
     13 O3          2.5350    0.0150   -8.3560 os        1 S10     -0.400900
     14 C2          1.8610    0.3070   -9.6490 c3        1 S10      0.168400
     15 C1          2.6570   -0.4700  -10.6580 c3        1 S10     -0.124100
     16 H121        0.8150   -1.4270    2.4540 h1        1 S10      0.089200
     17 H122       -0.2510    0.0150    2.0110 h1        1 S10      0.089200
     18 H131        0.7400    0.2770    4.3430 hc        1 S10      0.085367
     19 H132        1.3670    1.5610    3.2170 hc        1 S10      0.085367
     20 H133        2.4170    0.1430    3.6500 hc        1 S10      0.085367
     21 H9          2.8490    0.6340   -0.7900 hn        1 S10      0.476800
     22 H8C1        1.0770    0.7950   -2.3720 hx        1 S10      0.133700
     23 H8C2        1.0930   -1.0280   -2.5580 hx        1 S10      0.133700
     24 H7C1        3.4290   -0.8910   -3.5700 hc        1 S10      0.089700
     25 H7C2        3.3980    0.9190   -3.4000 hc        1 S10      0.089700
     26 H6C1        1.3310   -0.8050   -5.0010 hx        1 S10      0.133700
     27 H6C2        1.2810    1.0180   -4.8180 hx        1 S10      0.133700
     28 H5          3.3560   -0.6110   -6.2370 hn        1 S10      0.476800
     29 H2C1        0.8010   -0.0420   -9.5510 h1        1 S10      0.089200
     30 H2C2        1.9090    1.4150   -9.8010 h1        1 S10      0.089200
     31 H1C1        3.7210   -0.1330  -10.6830 hc        1 S10      0.085367
     32 H1C2        2.6310   -1.5650  -10.4400 hc        1 S10      0.085367
     33 H1C3        2.1990   -0.2920  -11.6660 hc        1 S10      0.085367
     34 H92         3.0960   -0.9910   -1.0770 hn        1 S10      0.476800
     35 H52         3.5190    1.0180   -5.9130 hn        1 S10      0.476800
@<TRIPOS>BOND
     1    1    2 2   
     2    2    3 1   
     3    2    6 1   
     4    3    4 1   
     5    4    5 1   
     6    4   16 1   
     7    4   17 1   
     8    5   18 1   
     9    5   19 1   
    10    5   20 1   
    11    6    7 1   
    12    6   21 1   
    13    6   34 1   
    14    7    8 1   
    15    7   22 1   
    16    7   23 1   
    17    8    9 1   
    18    8   24 1   
    19    8   25 1   
    20    9   10 1   
    21    9   26 1   
    22    9   27 1   
    23   10   11 1   
    24   10   28 1   
    25   10   35 1   
    26   11   12 2   
    27   11   13 1   
    28   13   14 1   
    29   14   15 1   
    30   14   29 1   
    31   14   30 1   
    32   15   31 1   
    33   15   32 1   
    34   15   33 1   
@<TRIPOS>SUBSTRUCTURE
     1 S10         1 TEMP              0 ****  ****    0 ROOT
