@<TRIPOS>MOLECULE
S11
   49    51     1     0     0
SMALL
bcc


@<TRIPOS>ATOM
      1 N1          2.2590    0.3850   -1.9430 nc        1 S11     -0.662000
      2 C2          2.3400    0.5890   -0.5740 cc        1 S11      0.408600
      3 C3          1.1670    1.2480   -0.1030 cd        1 S11     -0.235700
      4 N4          0.3570    1.4290   -1.2460 na        1 S11     -0.158900
      5 C5          1.0580    0.9030   -2.3340 cd        1 S11      0.400800
      6 C6         -0.0010    0.6290    2.2550 ca        1 S11     -0.019100
      7 S1          0.8310    1.8500    1.4180 ss        1 S11     -0.025800
      8 C7         -0.5340    1.0210    3.4910 ca        1 S11     -0.123000
      9 C8         -1.2080    0.0900    4.2810 ca        1 S11      0.038400
     10 CL1        -1.8480    0.5700    5.7800 cl        1 S11     -0.083400
     11 C9         -1.3710   -1.2330    3.8570 ca        1 S11     -0.128000
     12 C10        -0.8360   -1.6090    2.6220 ca        1 S11      0.038400
     13 CL2        -1.0180   -3.2120    2.0870 cl        1 S11     -0.083400
     14 C11        -0.1500   -0.6900    1.8230 ca        1 S11     -0.123000
     15 C12         3.4970    0.1750    0.2680 c3        1 S11     -0.100000
     16 C13         3.6080   -1.3370    0.3150 c3        1 S11     -0.086600
     17 C14         4.7870    0.7910   -0.2370 c3        1 S11     -0.086600
     18 C15        -0.9190    2.0900   -1.2640 c3        1 S11      0.067600
     19 C16        -2.1250    1.1970   -1.1820 ca        1 S11     -0.077300
     20 C21        -3.2080    1.5940   -0.3870 ca        1 S11     -0.234300
     21 C20        -4.3530    0.7790   -0.3560 ca        1 S11      0.397700
     22 N19        -4.4680   -0.3710   -1.0490 nb        1 S11     -0.656000
     23 C18        -3.4170   -0.7410   -1.8050 ca        1 S11      0.397700
     24 C17        -2.2280    0.0060   -1.9070 ca        1 S11     -0.234300
     25 CA          0.5710    0.9100   -3.7560 c3        1 S11      0.116100
     26 O22         0.3840   -0.4410   -4.1760 os        1 S11     -0.446900
     27 C23         1.3460   -0.9590   -5.0380 c         1 S11      0.747100
     28 N24         1.2790   -2.3220   -5.1490 n         1 S11     -0.636000
     29 O25         2.0800   -0.1780   -5.6620 o         1 S11     -0.574000
     30 H7         -0.4160    2.0620    3.8350 ha        1 S11      0.158500
     31 H9         -1.9090   -1.9610    4.4830 ha        1 S11      0.163000
     32 H11         0.2750   -1.0050    0.8550 ha        1 S11      0.158500
     33 H12         3.3020    0.5550    1.3150 hc        1 S11      0.064700
     34 H131        4.4370   -1.6320    1.0020 hc        1 S11      0.041200
     35 H132        2.6570   -1.7870    0.6880 hc        1 S11      0.041200
     36 H133        3.8230   -1.7470   -0.7010 hc        1 S11      0.041200
     37 H141        5.0280    0.4180   -1.2620 hc        1 S11      0.041200
     38 H142        4.6990    1.9030   -0.2750 hc        1 S11      0.041200
     39 H143        5.6250    0.5210    0.4480 hc        1 S11      0.041200
     40 H151       -0.9360    2.8120   -0.3910 h1        1 S11      0.082700
     41 H152       -0.9940    2.6920   -2.2180 h1        1 S11      0.082700
     42 H21        -3.1700    2.5170    0.2060 ha        1 S11      0.153500
     43 H20        -5.2270    1.0590    0.2590 h4        1 S11      0.026600
     44 H18        -3.5340   -1.6880   -2.3610 h4        1 S11      0.026600
     45 H17        -1.4060   -0.3540   -2.5440 ha        1 S11      0.153500
     46 HA1        -0.4500    1.3720   -3.8450 h1        1 S11      0.092700
     47 HA2         1.3090    1.4550   -4.4070 h1        1 S11      0.092700
     48 H241        2.0030   -2.7750   -5.6500 hn        1 S11      0.328500
     49 H242        0.7400   -2.8360   -4.4990 hn        1 S11      0.328500
@<TRIPOS>BOND
     1    1    2 1   
     2    1    5 2   
     3    2    3 2   
     4    2   15 1   
     5    3    4 1   
     6    3    7 1   
     7    4    5 1   
     8    4   18 1   
     9    5   25 1   
    10    6    7 1   
    11    6    8 ar  
    12    6   14 ar  
    13    8    9 ar  
    14    8   30 1   
    15    9   10 1   
    16    9   11 ar  
    17   11   12 ar  
    18   11   31 1   
    19   12   13 1   
    20   12   14 ar  
    21   14   32 1   
    22   15   16 1   
    23   15   17 1   
    24   15   33 1   
    25   16   34 1   
    26   16   35 1   
    27   16   36 1   
    28   17   37 1   
    29   17   38 1   
    30   17   39 1   
    31   18   19 1   
    32   18   40 1   
    33   18   41 1   
    34   19   20 ar  
    35   19   24 ar  
    36   20   21 ar  
    37   20   42 1   
    38   21   22 ar  
    39   21   43 1   
    40   22   23 ar  
    41   23   24 ar  
    42   23   44 1   
    43   24   45 1   
    44   25   26 1   
    45   25   46 1   
    46   25   47 1   
    47   26   27 1   
    48   27   28 1   
    49   27   29 2   
    50   28   48 1   
    51   28   49 1   
@<TRIPOS>SUBSTRUCTURE
     1 S11         1 TEMP              0 ****  ****    0 ROOT
