@<TRIPOS>MOLECULE
S11
   50    52     1     0     0
SMALL
bcc


@<TRIPOS>ATOM
      1 N1         -0.5480   -0.4910    0.3540 nc        1 S11     -0.801000
      2 C2          0.7620   -0.3540   -0.0710 cc        1 S11      0.423600
      3 C3          1.6330   -0.3020    1.0570 cd        1 S11     -0.194700
      4 N4          0.7960   -0.4180    2.1870 na        1 S11     -0.116900
      5 C5         -0.5090   -0.5270    1.7230 cd        1 S11      0.366800
      6 C6          4.0370   -1.5290    1.1030 ca        1 S11     -0.036100
      7 S1          3.2810   -0.0060    1.1140 ss        1 S11     -0.004800
      8 C7          5.4150   -1.4940    1.3530 ca        1 S11     -0.127500
      9 C8          6.1540   -2.6790    1.3300 ca        1 S11      0.037900
     10 Cl1         7.8210   -2.6320    1.6240 cl        1 S11     -0.059400
     11 C9          5.5330   -3.9070    1.0690 ca        1 S11     -0.111000
     12 C10         4.1570   -3.9270    0.8270 ca        1 S11      0.037900
     13 Cl2         3.3810   -5.4020    0.5100 cl        1 S11     -0.059400
     14 C11         3.4080   -2.7460    0.8390 ca        1 S11     -0.127500
     15 C12         1.1800   -0.2730   -1.5000 c3        1 S11     -0.113000
     16 C13         0.8890   -1.5770   -2.2170 c3        1 S11     -0.084600
     17 C14         0.5090    0.8910   -2.2010 c3        1 S11     -0.084600
     18 C15         1.2200   -0.3890    3.5670 c3        1 S11      0.052600
     19 C16         0.9370   -1.6480    4.3320 ca        1 S11     -0.102300
     20 C21         1.5290   -2.8610    3.9700 ca        1 S11     -0.240800
     21 C20         1.2670   -3.9970    4.7600 ca        1 S11      0.407700
     22 N19         0.4760   -3.9770    5.8500 nb        1 S11     -0.635000
     23 C18        -0.0810   -2.7990    6.1900 ca        1 S11      0.407700
     24 C17         0.1130   -1.6090    5.4630 ca        1 S11     -0.240800
     25 CA         -1.7140   -0.6390    2.6050 c3        1 S11      0.120100
     26 O22        -2.8150   -1.2400    1.8870 os        1 S11     -0.385900
     27 C23        -3.3540   -0.4600    0.9030 c         1 S11      0.636100
     28 N24        -3.1840   -1.0610   -0.4510 nz        1 S11     -0.742400
     29 O25        -3.9730    0.5700    1.0910 o         1 S11     -0.359000
     30 H7          5.9140   -0.5330    1.5640 ha        1 S11      0.155500
     31 H9          6.1200   -4.8390    1.0540 ha        1 S11      0.176000
     32 H11         2.3280   -2.7770    0.6250 ha        1 S11      0.155500
     33 H12         2.2980   -0.0990   -1.5080 hc        1 S11      0.093700
     34 H131        1.3890   -2.4310   -1.7000 hc        1 S11      0.041700
     35 H132       -0.2090   -1.7750   -2.2520 hc        1 S11      0.041700
     36 H133        1.2720   -1.5230   -3.2660 hc        1 S11      0.041700
     37 H141        0.7160    1.8470   -1.6630 hc        1 S11      0.041700
     38 H142        0.9020    0.9770   -3.2440 hc        1 S11      0.041700
     39 H143       -0.5960    0.7430   -2.2520 hc        1 S11      0.041700
     40 H151        2.3380   -0.1970    3.5740 h1        1 S11      0.099700
     41 H152        0.7100    0.4870    4.0670 h1        1 S11      0.099700
     42 H21         2.1960   -2.9350    3.0970 ha        1 S11      0.152000
     43 H20         1.7210   -4.9750    4.5110 h4        1 S11      0.041600
     44 H18        -0.7140   -2.8100    7.0980 h4        1 S11      0.041600
     45 H17        -0.3540   -0.6740    5.8020 ha        1 S11      0.152000
     46 HA1        -1.5510   -1.3730    3.4490 h1        1 S11      0.121200
     47 HA2        -2.0230    0.3690    2.9920 h1        1 S11      0.121200
     48 H241       -3.7620   -0.5630   -1.1340 hn        1 S11      0.492133
     49 H242       -3.4300   -2.0550   -0.4290 hn        1 S11      0.492133
     50 H243       -2.1640   -0.9650   -0.6930 hn        1 S11      0.492133
@<TRIPOS>BOND
     1    1    2 1   
     2    1    5 2   
     3    2    3 2   
     4    2   15 1   
     5    3    4 1   
     6    3    7 1   
     7    4    5 1   
     8    4   18 1   
     9    5   25 1   
    10    6    7 1   
    11    6    8 ar  
    12    6   14 ar  
    13    8    9 ar  
    14    8   30 1   
    15    9   10 1   
    16    9   11 ar  
    17   11   12 ar  
    18   11   31 1   
    19   12   13 1   
    20   12   14 ar  
    21   14   32 1   
    22   15   16 1   
    23   15   17 1   
    24   15   33 1   
    25   16   34 1   
    26   16   35 1   
    27   16   36 1   
    28   17   37 1   
    29   17   38 1   
    30   17   39 1   
    31   18   19 1   
    32   18   40 1   
    33   18   41 1   
    34   19   20 ar  
    35   19   24 ar  
    36   20   21 ar  
    37   20   42 1   
    38   21   22 ar  
    39   21   43 1   
    40   22   23 ar  
    41   23   24 ar  
    42   23   44 1   
    43   24   45 1   
    44   25   26 1   
    45   25   46 1   
    46   25   47 1   
    47   26   27 1   
    48   27   28 1   
    49   27   29 2   
    50   28   48 1   
    51   28   49 1   
    52   28   50 1   
@<TRIPOS>SUBSTRUCTURE
     1 S11         1 TEMP              0 ****  ****    0 ROOT
