@<TRIPOS>MOLECULE
S11
   50    52     1     0     0
SMALL
bcc


@<TRIPOS>ATOM
      1 N1         -0.5760   -0.5090    0.3800 nc        1 S11     -0.801000
      2 C2          0.7270   -0.3440   -0.0570 cc        1 S11      0.423600
      3 C3          1.6090   -0.2880    1.0630 cd        1 S11     -0.194700
      4 N4          0.7860   -0.4310    2.2000 na        1 S11     -0.116900
      5 C5         -0.5210   -0.5580    1.7490 cd        1 S11      0.366800
      6 C6          4.0340   -1.4730    1.0710 ca        1 S11     -0.036100
      7 S1          3.2520    0.0370    1.1060 ss        1 S11     -0.004800
      8 C7          5.4140   -1.4160    1.3080 ca        1 S11     -0.127500
      9 C8          6.1730   -2.5870    1.2650 ca        1 S11      0.037900
     10 CL1         7.8420   -2.5140    1.5440 cl        1 S11     -0.059400
     11 C9          5.5710   -3.8230    0.9980 ca        1 S11     -0.111000
     12 C10         4.1940   -3.8650    0.7680 ca        1 S11      0.037900
     13 CL2         3.4400   -5.3510    0.4430 cl        1 S11     -0.059400
     14 C11         3.4240   -2.6980    0.8000 ca        1 S11     -0.127500
     15 C12         1.1280   -0.2400   -1.4880 c3        1 S11     -0.113000
     16 C13         0.8520   -1.5410   -2.2170 c3        1 S11     -0.084600
     17 C14         0.4300    0.9200   -2.1700 c3        1 S11     -0.084600
     18 C15         1.2240   -0.4090    3.5760 c3        1 S11      0.052600
     19 C16         0.9720   -1.6810    4.3310 ca        1 S11     -0.102300
     20 C21         1.5810   -2.8800    3.9490 ca        1 S11     -0.240800
     21 C20         1.3470   -4.0280    4.7300 ca        1 S11      0.407700
     22 N19         0.5680   -4.0340    5.8280 nb        1 S11     -0.635000
     23 C18        -0.0060   -2.8690    6.1870 ca        1 S11      0.407700
     24 C17         0.1590   -1.6690    5.4710 ca        1 S11     -0.240800
     25 CA         -1.7150   -0.7010    2.6420 c3        1 S11      0.120100
     26 O22        -2.8130   -1.3140    1.9290 os        1 S11     -0.385900
     27 C23        -3.3760   -0.5340    0.9600 c         1 S11      0.636100
     28 N24        -3.2100   -1.1170   -0.4020 n4        1 S11     -0.742400
     29 O25        -4.0110    0.4830    1.1650 o         1 S11     -0.359000
     30 H7          5.8980   -0.4490    1.5250 ha        1 S11      0.155500
     31 H9          6.1750   -4.7450    0.9670 ha        1 S11      0.176000
     32 H11         2.3430   -2.7460    0.5960 ha        1 S11      0.155500
     33 H12         2.2430   -0.0470   -1.5070 hc        1 S11      0.093700
     34 H131       -0.2430   -1.7570   -2.2430 hc        1 S11      0.041700
     35 H132        1.2220   -1.4680   -3.2690 hc        1 S11      0.041700
     36 H133        1.3720   -2.3920   -1.7150 hc        1 S11      0.041700
     37 H141        0.6260    1.8740   -1.6230 hc        1 S11      0.041700
     38 H142        0.8100    1.0240   -3.2150 hc        1 S11      0.041700
     39 H143       -0.6730    0.7530   -2.2100 hc        1 S11      0.041700
     40 H151        2.3380   -0.1980    3.5730 h1        1 S11      0.099700
     41 H152        0.7040    0.4530    4.0900 h1        1 S11      0.099700
     42 H21         2.2390   -2.9320    3.0680 ha        1 S11      0.152000
     43 H20         1.8150   -4.9950    4.4650 h4        1 S11      0.041600
     44 H18        -0.6280   -2.9010    7.1010 h4        1 S11      0.041600
     45 H17        -0.3200   -0.7460    5.8250 ha        1 S11      0.152000
     46 HA1        -1.5300   -1.4400    3.4760 h1        1 S11      0.121200
     47 HA2        -2.0380    0.2970    3.0430 h1        1 S11      0.121200
     48 H241       -3.8040   -0.6220   -1.0740 hn        1 S11      0.492133
     49 H242       -3.4380   -2.1150   -0.3890 hn        1 S11      0.492133
     50 H243       -2.1950   -1.0000   -0.6540 hn        1 S11      0.492133
@<TRIPOS>BOND
     1    1    2 1   
     2    1    5 2   
     3    2    3 2   
     4    2   15 1   
     5    3    4 1   
     6    3    7 1   
     7    4    5 1   
     8    4   18 1   
     9    5   25 1   
    10    6    7 1   
    11    6    8 ar  
    12    6   14 ar  
    13    8    9 ar  
    14    8   30 1   
    15    9   10 1   
    16    9   11 ar  
    17   11   12 ar  
    18   11   31 1   
    19   12   13 1   
    20   12   14 ar  
    21   14   32 1   
    22   15   16 1   
    23   15   17 1   
    24   15   33 1   
    25   16   34 1   
    26   16   35 1   
    27   16   36 1   
    28   17   37 1   
    29   17   38 1   
    30   17   39 1   
    31   18   19 1   
    32   18   40 1   
    33   18   41 1   
    34   19   20 ar  
    35   19   24 ar  
    36   20   21 ar  
    37   20   42 1   
    38   21   22 ar  
    39   21   43 1   
    40   22   23 ar  
    41   23   24 ar  
    42   23   44 1   
    43   24   45 1   
    44   25   26 1   
    45   25   46 1   
    46   25   47 1   
    47   26   27 1   
    48   27   28 1   
    49   27   29 2   
    50   28   48 1   
    51   28   49 1   
    52   28   50 1   
@<TRIPOS>SUBSTRUCTURE
     1 S11         1 TEMP              0 ****  ****    0 ROOT
