@<TRIPOS>MOLECULE
S11
   50    52     1     0     0
SMALL
bcc


@<TRIPOS>ATOM
      1 N1         -0.5490   -0.4990    0.3480 nc        1 S11     -0.801000
      2 C2          0.7610   -0.3580   -0.0750 cc        1 S11      0.423600
      3 C3          1.6300   -0.3000    1.0560 cd        1 S11     -0.194700
      4 N4          0.7910   -0.4180    2.1830 na        1 S11     -0.116900
      5 C5         -0.5120   -0.5310    1.7170 cd        1 S11      0.366800
      6 C6          4.0370   -1.5200    1.1100 ca        1 S11     -0.036100
      7 S1          3.2770    0.0010    1.1150 ss        1 S11     -0.004800
      8 C7          5.4150   -1.4800    1.3650 ca        1 S11     -0.127000
      9 C8          6.1570   -2.6620    1.3460 ca        1 S11      0.037900
     10 CL1         7.8230   -2.6100    1.6470 cl        1 S11     -0.059400
     11 C9          5.5410   -3.8930    1.0870 ca        1 S11     -0.111000
     12 C10         4.1670   -3.9180    0.8390 ca        1 S11      0.037900
     13 CL2         3.3960   -5.3960    0.5220 cl        1 S11     -0.059400
     14 C11         3.4130   -2.7400    0.8460 ca        1 S11     -0.127000
     15 C12         1.1820   -0.2780   -1.5020 c3        1 S11     -0.113000
     16 C13         0.8950   -1.5840   -2.2180 c3        1 S11     -0.084600
     17 C14         0.5100    0.8840   -2.2070 c3        1 S11     -0.084600
     18 C15         1.2120   -0.3850    3.5650 c3        1 S11      0.052600
     19 C16         0.9310   -1.6430    4.3320 ca        1 S11     -0.102300
     20 C21         1.5280   -2.8550    3.9730 ca        1 S11     -0.240800
     21 C20         1.2680   -3.9900    4.7650 ca        1 S11      0.407700
     22 N19         0.4740   -3.9700    5.8530 nb        1 S11     -0.635000
     23 C18        -0.0870   -2.7930    6.1900 ca        1 S11      0.407700
     24 C17         0.1050   -1.6050    5.4610 ca        1 S11     -0.240800
     25 CA         -1.7190   -0.6460    2.5970 c3        1 S11      0.120100
     26 O22        -2.8170   -1.2510    1.8780 os        1 S11     -0.385900
     27 C23        -3.3570   -0.4760    0.8920 c         1 S11      0.636100
     28 N24        -3.1820   -1.0780   -0.4610 n4        1 S11     -0.742400
     29 O25        -3.9790    0.5530    1.0760 o         1 S11     -0.359000
     30 H7          5.9100   -0.5170    1.5750 ha        1 S11      0.155500
     31 H9          6.1320   -4.8230    1.0760 ha        1 S11      0.176000
     32 H11         2.3340   -2.7750    0.6280 ha        1 S11      0.155500
     33 H12         2.3000   -0.1020   -1.5090 hc        1 S11      0.093700
     34 H131       -0.2020   -1.7840   -2.2550 hc        1 S11      0.041700
     35 H132        1.2800   -1.5300   -3.2660 hc        1 S11      0.041700
     36 H133        1.3970   -2.4360   -1.6990 hc        1 S11      0.041700
     37 H141        0.9040    0.9690   -3.2490 hc        1 S11      0.041700
     38 H142        0.7140    1.8410   -1.6700 hc        1 S11      0.041700
     39 H143       -0.5950    0.7330   -2.2590 hc        1 S11      0.041700
     40 H151        0.6990    0.4910    4.0620 h1        1 S11      0.099700
     41 H152        2.3290   -0.1890    3.5730 h1        1 S11      0.099700
     42 H21         2.1960   -2.9280    3.1020 ha        1 S11      0.152000
     43 H20         1.7250   -4.9670    4.5190 h4        1 S11      0.041600
     44 H18        -0.7210   -2.8050    7.0960 h4        1 S11      0.041600
     45 H17        -0.3650   -0.6700    5.7970 ha        1 S11      0.152000
     46 HA1        -2.0330    0.3620    2.9820 h1        1 S11      0.121200
     47 HA2        -1.5550   -1.3770    3.4420 h1        1 S11      0.121200
     48 H241       -3.7600   -0.5840   -1.1460 hn        1 S11      0.492133
     49 H242       -3.4240   -2.0730   -0.4380 hn        1 S11      0.492133
     50 H243       -2.1620   -0.9790   -0.7010 hn        1 S11      0.492133
@<TRIPOS>BOND
     1    1    2 1   
     2    1    5 2   
     3    2    3 2   
     4    2   15 1   
     5    3    4 1   
     6    3    7 1   
     7    4    5 1   
     8    4   18 1   
     9    5   25 1   
    10    6    7 1   
    11    6    8 ar  
    12    6   14 ar  
    13    8    9 ar  
    14    8   30 1   
    15    9   10 1   
    16    9   11 ar  
    17   11   12 ar  
    18   11   31 1   
    19   12   13 1   
    20   12   14 ar  
    21   14   32 1   
    22   15   16 1   
    23   15   17 1   
    24   15   33 1   
    25   16   34 1   
    26   16   35 1   
    27   16   36 1   
    28   17   37 1   
    29   17   38 1   
    30   17   39 1   
    31   18   19 1   
    32   18   40 1   
    33   18   41 1   
    34   19   20 ar  
    35   19   24 ar  
    36   20   21 ar  
    37   20   42 1   
    38   21   22 ar  
    39   21   43 1   
    40   22   23 ar  
    41   23   24 ar  
    42   23   44 1   
    43   24   45 1   
    44   25   26 1   
    45   25   46 1   
    46   25   47 1   
    47   26   27 1   
    48   27   28 1   
    49   27   29 2   
    50   28   48 1   
    51   28   49 1   
    52   28   50 1   
@<TRIPOS>SUBSTRUCTURE
     1 S11         1 TEMP              0 ****  ****    0 ROOT
