@<TRIPOS>MOLECULE
S12
   79    78     1     0     0
SMALL
bcc


@<TRIPOS>ATOM
      1 C           1.0360    1.4760    1.8140 c         1 S12      0.913600
      2 N           1.0360   -0.6540    3.1350 n3        1 S12     -0.901800
      3 P           2.6900   -2.9790    0.0130 p5        1 S12      1.427800
      4 OG          2.8460   -1.6830    0.9980 os        1 S12     -0.593200
      5 C2          3.3090   -1.5890   -2.1050 c3        1 S12      0.161400
      6 O2          3.7570   -2.5310   -1.1860 os        1 S12     -0.582200
      7 C3          4.3340   -0.4450   -2.1730 c3        1 S12      0.098100
      8 O3          1.3540   -2.9600   -0.6210 o         1 S12     -0.832500
      9 C4          3.9540    0.5860   -3.2380 c3        1 S12      0.132400
     10 O4          3.2990   -4.1470    0.6760 o         1 S12     -0.832500
     11 C5          3.2200    2.7290   -2.4060 c         1 S12      0.650100
     12 C6          2.2140    3.3800   -1.5150 c3        1 S12     -0.157400
     13 C7          0.7860    3.1760   -1.9760 c3        1 S12     -0.056400
     14 C8         -0.1720    3.6140   -0.8890 c3        1 S12     -0.110400
     15 C9         -1.6010    3.2330   -1.2080 c3        1 S12     -0.057400
     16 CA          1.7440    0.1350    2.1440 c3        1 S12      0.044500
     17 CB          2.0010   -0.5830    0.7990 c3        1 S12      0.146400
     18 C10        -2.4440    3.2690    0.0500 c3        1 S12     -0.103400
     19 C11        -3.8690    2.8410   -0.2240 c3        1 S12     -0.066400
     20 O11         5.6200   -0.9430   -2.5290 oh        1 S12     -0.638800
     21 C12        -4.6790    2.8160    1.0570 c3        1 S12     -0.058200
     22 C13        -6.0990    2.4720    0.8080 c2        1 S12     -0.140200
     23 C14        -6.8060    1.6350    1.5730 c2        1 S12     -0.206200
     24 O51         4.2420    3.2260   -2.8940 o         1 S12     -0.598000
     25 O52         2.9310    1.4220   -2.6900 os        1 S12     -0.432900
     26 O          -0.2280    1.5530    1.8450 o         1 S12     -0.869800
     27 OXT         1.7640    2.4670    1.5000 o         1 S12     -0.869800
     28 H           0.0470   -0.5300    3.0060 hn        1 S12      0.334800
     29 H2          1.2520   -1.6240    2.9980 hn        1 S12      0.334800
     30 H2B         3.2430   -2.0700   -3.1230 h1        1 S12      0.036700
     31 H2A         2.2990   -1.1860   -1.8150 h1        1 S12      0.036700
     32 H3          4.4070    0.0540   -1.1650 h1        1 S12      0.066700
     33 H4          4.8520    1.1750   -3.5550 h1        1 S12      0.056700
     34 H4A         3.4810    0.0950   -4.1280 h1        1 S12      0.056700
     35 H6          2.3290    2.9290   -0.4760 hc        1 S12      0.112200
     36 H6A         2.4570    4.4720   -1.4500 hc        1 S12      0.112200
     37 H7          0.5980    3.7510   -2.9210 hc        1 S12      0.032700
     38 H8          0.1350    3.1240    0.0890 hc        1 S12      0.080700
     39 H9         -2.0280    3.9240   -1.9820 hc        1 S12      0.016700
     40 H9A        -1.6290    2.1960   -1.6380 hc        1 S12      0.016700
     41 HA          2.7530    0.3760    2.5890 h1        1 S12      0.055700
     42 HB2         2.5090    0.1580    0.1170 h1        1 S12      0.035200
     43 HB3         1.0370   -0.9260    0.3310 h1        1 S12      0.035200
     44 H10        -1.9690    2.5880    0.8180 hc        1 S12      0.074700
     45 H11        -4.3460    3.5400   -0.9610 hc        1 S12      0.025700
     46 HO11        5.7180   -1.7740   -2.0420 ho        1 S12      0.431000
     47 H12        -4.2080    2.0910    1.7740 hc        1 S12      0.056700
     48 H14        -6.3450    1.1290    2.4380 ha        1 S12      0.127000
     49 C15        -8.2350    1.3160    1.3420 c3        1 S12     -0.037200
     50 C16        -8.4790   -0.1800    1.3760 c3        1 S12     -0.079400
     51 C17        -9.9410   -0.5020    1.1530 c3        1 S12     -0.077400
     52 C18       -10.1860   -1.9960    1.1880 c3        1 S12     -0.080400
     53 C19       -11.6470   -2.3200    0.9630 c3        1 S12     -0.077400
     54 C20       -11.8900   -3.8140    0.9980 c3        1 S12     -0.080400
     55 C21       -13.3510   -4.1410    0.7730 c3        1 S12     -0.079400
     56 C22       -13.5960   -5.6280    0.8070 c3        1 S12     -0.092100
     57 H23         0.6260    2.0880   -2.2030 hc        1 S12      0.032700
     58 H24        -0.0990    4.7220   -0.7430 hc        1 S12      0.080700
     59 H25        -2.4380    4.3050    0.4760 hc        1 S12      0.074700
     60 H26        -3.8710    1.8190   -0.6860 hc        1 S12      0.025700
     61 H27        -4.6380    3.8310    1.5420 hc        1 S12      0.056700
     62 H28        -6.5560    2.9630   -0.0690 ha        1 S12      0.105000
     63 H30        -8.8530    1.8110    2.1400 hc        1 S12      0.031700
     64 H31        -8.5810    1.7270    0.3560 hc        1 S12      0.031700
     65 H32        -7.8570   -0.6790    0.5870 hc        1 S12      0.047700
     66 H33        -8.1490   -0.5930    2.3650 hc        1 S12      0.047700
     67 H34       -10.5620   -0.0010    1.9410 hc        1 S12      0.032700
     68 H35       -10.2700   -0.0910    0.1620 hc        1 S12      0.032700
     69 H36        -9.5630   -2.4960    0.4000 hc        1 S12      0.043700
     70 H37        -9.8570   -2.4070    2.1790 hc        1 S12      0.043700
     71 H38       -12.2690   -1.8190    1.7510 hc        1 S12      0.034700
     72 H39       -11.9750   -1.9090   -0.0280 hc        1 S12      0.034700
     73 H40       -11.2670   -4.3140    0.2100 hc        1 S12      0.041700
     74 H41       -11.5610   -4.2250    1.9890 hc        1 S12      0.041700
     75 H42       -13.9720   -3.6390    1.5610 hc        1 S12      0.034700
     76 H43       -13.6780   -3.7280   -0.2180 hc        1 S12      0.034700
     77 H44       -14.6780   -5.8480    0.6390 hc        1 S12      0.030033
     78 H45       -13.0040   -6.1430    0.0130 hc        1 S12      0.030033
     79 H46       -13.2990   -6.0540    1.7960 hc        1 S12      0.030033
@<TRIPOS>BOND
     1    1   16 1   
     2    1   26 1   
     3    1   27 1   
     4    2   16 1   
     5    2   28 1   
     6    2   29 1   
     7    3    4 1   
     8    3    6 1   
     9    3    8 1   
    10    3   10 1   
    11    4   17 1   
    12    5    6 1   
    13    5    7 1   
    14    5   30 1   
    15    5   31 1   
    16    7    9 1   
    17    7   20 1   
    18    7   32 1   
    19    9   25 1   
    20    9   33 1   
    21    9   34 1   
    22   11   12 1   
    23   11   24 2   
    24   11   25 1   
    25   12   13 1   
    26   12   35 1   
    27   12   36 1   
    28   13   14 1   
    29   13   37 1   
    30   13   57 1   
    31   14   15 1   
    32   14   38 1   
    33   14   58 1   
    34   15   18 1   
    35   15   39 1   
    36   15   40 1   
    37   16   17 1   
    38   16   41 1   
    39   17   42 1   
    40   17   43 1   
    41   18   19 1   
    42   18   44 1   
    43   18   59 1   
    44   19   21 1   
    45   19   45 1   
    46   19   60 1   
    47   20   46 1   
    48   21   22 1   
    49   21   47 1   
    50   21   61 1   
    51   22   23 2   
    52   22   62 1   
    53   23   48 1   
    54   23   49 1   
    55   49   50 1   
    56   49   63 1   
    57   49   64 1   
    58   50   51 1   
    59   50   65 1   
    60   50   66 1   
    61   51   52 1   
    62   51   67 1   
    63   51   68 1   
    64   52   53 1   
    65   52   69 1   
    66   52   70 1   
    67   53   54 1   
    68   53   71 1   
    69   53   72 1   
    70   54   55 1   
    71   54   73 1   
    72   54   74 1   
    73   55   56 1   
    74   55   75 1   
    75   55   76 1   
    76   56   77 1   
    77   56   78 1   
    78   56   79 1   
@<TRIPOS>SUBSTRUCTURE
     1 S12         1 TEMP              0 ****  ****    0 ROOT
