@<TRIPOS>MOLECULE
S13
   43    45     1     0     0
SMALL
bcc


@<TRIPOS>ATOM
      1 C10         0.2170   -0.2780   -0.0020 ca        1 S13     -0.105500
      2 C11         1.5610   -0.1960    0.3550 ca        1 S13     -0.137000
      3 C12         1.9290    0.1990    1.6460 ca        1 S13     -0.072300
      4 C15         3.3570    0.2970    2.0240 c3        1 S13     -0.053800
      5 C13         0.9290    0.5100    2.5750 ca        1 S13     -0.137000
      6 C14        -0.4150    0.4330    2.2200 ca        1 S13     -0.105500
      7 C9         -0.7780    0.0410    0.9270 ca        1 S13     -0.085300
      8 C8         -2.2230   -0.0400    0.5290 c3        1 S13      0.167800
      9 C7         -2.9260    1.3350    0.6660 c3        1 S13     -0.093400
     10 N1         -2.9870   -0.9930    1.3970 n3        1 S13     -0.499700
     11 O7         -3.8300   -0.2810    2.1750 os        1 S13     -0.238100
     12 C1         -4.0720    1.0480    1.6500 c3        1 S13      0.300600
     13 O5         -5.2740    0.9430    0.9050 os        1 S13     -0.429600
     14 C5         -6.4200    0.5470    1.6670 c3        1 S13      0.148100
     15 C6         -7.5920    0.5240    0.6840 c3        1 S13      0.135400
     16 O6         -7.5940   -0.7570    0.0750 oh        1 S13     -0.594800
     17 C4         -6.6650    1.5650    2.7940 c3        1 S13      0.087100
     18 O4         -7.7760    1.1140    3.5500 oh        1 S13     -0.588800
     19 C3         -5.4090    1.6350    3.6780 c3        1 S13      0.064100
     20 O3         -5.5610    2.6310    4.6770 oh        1 S13     -0.608800
     21 C2         -4.2160    2.0510    2.8040 c3        1 S13      0.148100
     22 O2         -3.0090    2.0700    3.5400 oh        1 S13     -0.584800
     23 H10        -0.0570   -0.5980   -1.0190 ha        1 S13      0.144500
     24 H11         2.3380   -0.4470   -0.3820 ha        1 S13      0.130000
     25 H151        3.5060    0.0190    3.0960 hc        1 S13      0.043367
     26 H152        3.7180    1.3470    1.8810 hc        1 S13      0.043367
     27 H153        3.9880   -0.3780    1.3940 hc        1 S13      0.043367
     28 H13         1.2080    0.8140    3.5950 ha        1 S13      0.130000
     29 H14        -1.2040    0.6780    2.9540 ha        1 S13      0.144500
     30 H8         -2.2820   -0.3840   -0.5430 h1        1 S13      0.059700
     31 H71        -2.2410    2.1030    1.0980 hc        1 S13      0.084700
     32 H72        -3.3210    1.6870   -0.3160 hc        1 S13      0.084700
     33 HN1        -3.5560   -1.5650    0.7710 hn        1 S13      0.340800
     34 H5         -6.2490   -0.4780    2.0990 h1        1 S13      0.096700
     35 H61        -7.4680    1.3270   -0.0900 h1        1 S13      0.043700
     36 H62        -8.5480    0.6780    1.2540 h1        1 S13      0.043700
     37 HO6        -8.2730   -0.7330   -0.6090 ho        1 S13      0.402000
     38 H4         -6.8800    2.5810    2.3600 h1        1 S13      0.056700
     39 HO4        -7.9940    1.8290    4.1610 ho        1 S13      0.406000
     40 H3         -5.2060    0.6300    4.1420 h1        1 S13      0.087700
     41 HO3        -6.0230    2.2160    5.4150 ho        1 S13      0.412000
     42 H2         -4.4020    3.0730    2.3680 h1        1 S13      0.062700
     43 HO2        -3.1990    2.5430    4.3620 ho        1 S13      0.423000
@<TRIPOS>BOND
     1    1    2 ar  
     2    1    7 ar  
     3    1   23 1   
     4    2    3 ar  
     5    2   24 1   
     6    3    4 1   
     7    3    5 ar  
     8    4   25 1   
     9    4   26 1   
    10    4   27 1   
    11    5    6 ar  
    12    5   28 1   
    13    6    7 ar  
    14    6   29 1   
    15    7    8 1   
    16    8    9 1   
    17    8   10 1   
    18    8   30 1   
    19    9   12 1   
    20    9   31 1   
    21    9   32 1   
    22   10   11 1   
    23   10   33 1   
    24   11   12 1   
    25   12   13 1   
    26   12   21 1   
    27   13   14 1   
    28   14   15 1   
    29   14   17 1   
    30   14   34 1   
    31   15   16 1   
    32   15   35 1   
    33   15   36 1   
    34   16   37 1   
    35   17   18 1   
    36   17   19 1   
    37   17   38 1   
    38   18   39 1   
    39   19   20 1   
    40   19   21 1   
    41   19   40 1   
    42   20   41 1   
    43   21   22 1   
    44   21   42 1   
    45   22   43 1   
@<TRIPOS>SUBSTRUCTURE
     1 S13         1 TEMP              0 ****  ****    0 ROOT
