@<TRIPOS>MOLECULE
S13
   43    45     1     0     0
SMALL
bcc


@<TRIPOS>ATOM
      1 C10         3.8200    1.4850    0.1720 ca        1 S13     -0.113500
      2 C11         5.1100    0.9600    0.2140 ca        1 S13     -0.132500
      3 C12         5.3210   -0.4170    0.0840 ca        1 S13     -0.067300
      4 C15         6.6910   -0.9760    0.1420 c3        1 S13     -0.056800
      5 C13         4.2180   -1.2620   -0.0910 ca        1 S13     -0.132500
      6 C14         2.9280   -0.7410   -0.1310 ca        1 S13     -0.113500
      7 C9          2.7210    0.6380    0.0030 ca        1 S13     -0.113300
      8 C8          1.3360    1.2080   -0.0390 c3        1 S13      0.161800
      9 C7          0.4370    0.6190    1.0740 c3        1 S13     -0.094400
     10 N1          0.6210    0.9880   -1.3310 n3        1 S13     -0.499700
     11 O7         -0.6460    0.6020   -1.0670 os        1 S13     -0.253100
     12 C1         -0.8530    0.2520    0.3260 c3        1 S13      0.311600
     13 O5         -1.8850    1.1190    0.7510 os        1 S13     -0.412600
     14 C5         -3.1230    0.9630    0.0490 c3        1 S13      0.073100
     15 C6         -4.0860    1.9620    0.6990 c3        1 S13      0.137400
     16 O6         -3.8240    3.2790    0.2680 oh        1 S13     -0.593800
     17 C4         -3.6470   -0.4720    0.1800 c3        1 S13      0.081100
     18 O4         -4.8480   -0.6670   -0.5420 oh        1 S13     -0.591800
     19 C3         -2.5780   -1.4600   -0.3100 c3        1 S13      0.074100
     20 O3         -2.9580   -2.8030   -0.0620 oh        1 S13     -0.608800
     21 C2         -1.2660   -1.2250    0.4520 c3        1 S13      0.132100
     22 O2         -0.2130   -2.0070   -0.0820 oh        1 S13     -0.601800
     23 H10         3.6690    2.5710    0.2680 ha        1 S13      0.144000
     24 H11         5.9700    1.6340    0.3480 ha        1 S13      0.134000
     25 H151        6.9440   -1.2540    1.1970 hc        1 S13      0.046033
     26 H152        6.7760   -1.8930   -0.4910 hc        1 S13      0.046033
     27 H153        7.4440   -0.2300   -0.2130 hc        1 S13      0.046033
     28 H13         4.3730   -2.3460   -0.1980 ha        1 S13      0.134000
     29 H14         2.0640   -1.4150   -0.2600 ha        1 S13      0.144000
     30 H8          1.3860    2.3290    0.0810 h1        1 S13      0.086700
     31 H71         0.8910   -0.2930    1.5310 hc        1 S13      0.083200
     32 H72         0.2340    1.3750    1.8690 hc        1 S13      0.083200
     33 HN1         1.0790    0.2090   -1.8120 hn        1 S13      0.346800
     34 H5         -2.9630    1.2230   -1.0350 h1        1 S13      0.082700
     35 H61        -5.1340    1.7400    0.3600 h1        1 S13      0.062200
     36 H62        -4.0140    1.8920    1.8160 h1        1 S13      0.062200
     37 HO6        -2.9020    3.4700    0.4850 ho        1 S13      0.414000
     38 H4         -3.9240   -0.7010    1.2480 h1        1 S13      0.098700
     39 HO4        -4.7030   -0.3510   -1.4440 ho        1 S13      0.409000
     40 H3         -2.4020   -1.3230   -1.4150 h1        1 S13      0.067700
     41 HO3        -3.8880   -2.8820   -0.3170 ho        1 S13      0.427000
     42 H2         -1.4070   -1.4770    1.5400 h1        1 S13      0.065700
     43 HO2        -0.5570   -2.9070   -0.1700 ho        1 S13      0.430000
@<TRIPOS>BOND
     1    1    2 ar  
     2    1    7 ar  
     3    1   23 1   
     4    2    3 ar  
     5    2   24 1   
     6    3    4 1   
     7    3    5 ar  
     8    4   25 1   
     9    4   26 1   
    10    4   27 1   
    11    5    6 ar  
    12    5   28 1   
    13    6    7 ar  
    14    6   29 1   
    15    7    8 1   
    16    8    9 1   
    17    8   10 1   
    18    8   30 1   
    19    9   12 1   
    20    9   31 1   
    21    9   32 1   
    22   10   11 1   
    23   10   33 1   
    24   11   12 1   
    25   12   13 1   
    26   12   21 1   
    27   13   14 1   
    28   14   15 1   
    29   14   17 1   
    30   14   34 1   
    31   15   16 1   
    32   15   35 1   
    33   15   36 1   
    34   16   37 1   
    35   17   18 1   
    36   17   19 1   
    37   17   38 1   
    38   18   39 1   
    39   19   20 1   
    40   19   21 1   
    41   19   40 1   
    42   20   41 1   
    43   21   22 1   
    44   21   42 1   
    45   22   43 1   
@<TRIPOS>SUBSTRUCTURE
     1 S13         1 TEMP              0 ****  ****    0 ROOT
