@<TRIPOS>MOLECULE
S13
   43    45     1     0     0
SMALL
bcc


@<TRIPOS>ATOM
      1 C10         0.2130   -0.2840   -0.0040 ca        1 S13     -0.105500
      2 C11         1.5580   -0.1970    0.3490 ca        1 S13     -0.137000
      3 C12         1.9290    0.2050    1.6370 ca        1 S13     -0.072300
      4 C15         3.3580    0.2770    2.0180 c3        1 S13     -0.053800
      5 C13         0.9310    0.5230    2.5660 ca        1 S13     -0.137000
      6 C14        -0.4140    0.4420    2.2150 ca        1 S13     -0.105500
      7 C9         -0.7800    0.0400    0.9250 ca        1 S13     -0.085300
      8 C8         -2.2260   -0.0450    0.5320 c3        1 S13      0.167800
      9 C7         -2.9290    1.3290    0.6600 c3        1 S13     -0.093400
     10 N1         -2.9860   -0.9920    1.4090 n7        1 S13     -0.499700
     11 O7         -3.8280   -0.2760    2.1840 os        1 S13     -0.238100
     12 C1         -4.0720    1.0490    1.6490 c3        1 S13      0.300600
     13 O5         -5.2760    0.9380    0.9090 os        1 S13     -0.429600
     14 C5         -6.4200    0.5460    1.6770 c3        1 S13      0.148100
     15 C6         -7.5940    0.5150    0.6960 c3        1 S13      0.135400
     16 O6         -7.5970   -0.7710    0.0980 oh        1 S13     -0.594800
     17 C4         -6.6640    1.5730    2.7960 c3        1 S13      0.087100
     18 O4         -7.7720    1.1270    3.5580 oh        1 S13     -0.588800
     19 C3         -5.4060    1.6500    3.6760 c3        1 S13      0.064100
     20 O3         -5.5560    2.6540    4.6680 oh        1 S13     -0.608800
     21 C2         -4.2140    2.0610    2.7970 c3        1 S13      0.148100
     22 O2         -3.0060    2.0860    3.5290 oh        1 S13     -0.584800
     23 H10        -0.0630   -0.6100   -1.0180 ha        1 S13      0.144500
     24 H11         2.3330   -0.4500   -0.3890 ha        1 S13      0.130000
     25 H151        3.6800   -0.6930    2.4730 hc        1 S13      0.043033
     26 H152        3.5300    1.0880    2.7680 hc        1 S13      0.043033
     27 H153        4.0020    0.4760    1.1270 hc        1 S13      0.043033
     28 H13         1.2120    0.8380    3.5820 ha        1 S13      0.130000
     29 H14        -1.2010    0.6930    2.9480 ha        1 S13      0.144500
     30 H8         -2.2870   -0.3980   -0.5380 h1        1 S13      0.059700
     31 H71        -3.3270    1.6740   -0.3230 hc        1 S13      0.084700
     32 H72        -2.2440    2.1020    1.0850 hc        1 S13      0.084700
     33 HN1        -3.5570   -1.5700    0.7890 hn        1 S13      0.340800
     34 H5         -6.2470   -0.4750    2.1160 h1        1 S13      0.096700
     35 H61        -8.5490    0.6730    1.2670 h1        1 S13      0.043700
     36 H62        -7.4740    1.3120   -0.0840 h1        1 S13      0.043700
     37 HO6        -8.2770   -0.7520   -0.5850 ho        1 S13      0.402000
     38 H4         -6.8800    2.5860    2.3550 h1        1 S13      0.056700
     39 HO4        -7.9900    1.8470    4.1640 ho        1 S13      0.406000
     40 H3         -5.2000    0.6490    4.1480 h1        1 S13      0.087700
     41 HO3        -6.0160    2.2450    5.4100 ho        1 S13      0.412000
     42 H2         -4.4030    3.0790    2.3530 h1        1 S13      0.062700
     43 HO2        -3.1950    2.5660    4.3480 ho        1 S13      0.423000
@<TRIPOS>BOND
     1    1    2 ar  
     2    1    7 ar  
     3    1   23 1   
     4    2    3 ar  
     5    2   24 1   
     6    3    4 1   
     7    3    5 ar  
     8    4   25 1   
     9    4   26 1   
    10    4   27 1   
    11    5    6 ar  
    12    5   28 1   
    13    6    7 ar  
    14    6   29 1   
    15    7    8 1   
    16    8    9 1   
    17    8   10 1   
    18    8   30 1   
    19    9   12 1   
    20    9   31 1   
    21    9   32 1   
    22   10   11 1   
    23   10   33 1   
    24   11   12 1   
    25   12   13 1   
    26   12   21 1   
    27   13   14 1   
    28   14   15 1   
    29   14   17 1   
    30   14   34 1   
    31   15   16 1   
    32   15   35 1   
    33   15   36 1   
    34   16   37 1   
    35   17   18 1   
    36   17   19 1   
    37   17   38 1   
    38   18   39 1   
    39   19   20 1   
    40   19   21 1   
    41   19   40 1   
    42   20   41 1   
    43   21   22 1   
    44   21   42 1   
    45   22   43 1   
@<TRIPOS>SUBSTRUCTURE
     1 S13         1 TEMP              0 ****  ****    0 ROOT
