@<TRIPOS>MOLECULE
S13
   43    45     1     0     0
SMALL
bcc


@<TRIPOS>ATOM
      1 C10         0.1340   -0.3830   -0.0250 ca        1 S13     -0.105000
      2 C11         1.4870   -0.2830    0.2920 ca        1 S13     -0.136500
      3 C12         1.8890    0.1690    1.5540 ca        1 S13     -0.071300
      4 C15         3.3270    0.2850    1.8870 c3        1 S13     -0.054800
      5 C13         0.9130    0.5210    2.4940 ca        1 S13     -0.136500
      6 C14        -0.4400    0.4280    2.1790 ca        1 S13     -0.105000
      7 C9         -0.8360   -0.0220    0.9150 ca        1 S13     -0.087300
      8 C8         -2.2900   -0.1220    0.5600 c3        1 S13      0.167800
      9 C7         -2.9920    1.2560    0.6460 c3        1 S13     -0.095400
     10 N1         -3.0290   -1.0330    1.4920 n3        1 S13     -0.497700
     11 O7         -3.8750   -0.2920    2.2390 os        1 S13     -0.239100
     12 C1         -4.1170    1.0160    1.6670 c3        1 S13      0.304600
     13 O5         -5.3380    0.8880    0.9570 os        1 S13     -0.445600
     14 C5         -6.4760    0.5550    1.7610 c3        1 S13      0.108100
     15 C6         -7.6670    0.5340    0.8000 c3        1 S13      0.139400
     16 O6         -7.5480   -0.5060   -0.1450 oh        1 S13     -0.592800
     17 C4         -6.6770    1.6040    2.8640 c3        1 S13      0.091100
     18 O4         -7.7620    1.1720    3.6680 oh        1 S13     -0.588800
     19 C3         -5.3940    1.6950    3.7070 c3        1 S13      0.065100
     20 O3         -5.5040    2.7300    4.6720 oh        1 S13     -0.607800
     21 C2         -4.2260    2.0680    2.7810 c3        1 S13      0.149100
     22 O2         -2.9970    2.1140    3.4780 oh        1 S13     -0.585800
     23 H10        -0.1650   -0.7480   -1.0190 ha        1 S13      0.144500
     24 H11         2.2450   -0.5680   -0.4530 ha        1 S13      0.131000
     25 H151        3.9370   -0.4400    1.2930 hc        1 S13      0.044033
     26 H152        3.5020    0.0870    2.9730 hc        1 S13      0.044033
     27 H153        3.6900    1.3190    1.6570 hc        1 S13      0.044033
     28 H13         1.2190    0.8720    3.4910 ha        1 S13      0.131000
     29 H14        -1.2080    0.7060    2.9210 ha        1 S13      0.144500
     30 H8         -2.3750   -0.5180   -0.4940 h1        1 S13      0.057700
     31 H71        -3.4070    1.5630   -0.3420 hc        1 S13      0.085700
     32 H72        -2.2990    2.0440    1.0280 hc        1 S13      0.085700
     33 HN1        -3.5980   -1.6500    0.9080 hn        1 S13      0.336800
     34 H5         -6.3190   -0.4600    2.2190 h1        1 S13      0.088700
     35 H61        -8.6010    0.3080    1.3810 h1        1 S13      0.060700
     36 H62        -7.7590    1.5250    0.2810 h1        1 S13      0.060700
     37 HO6        -6.7230   -0.3600   -0.6240 ho        1 S13      0.408000
     38 H4         -6.9040    2.6090    2.4110 h1        1 S13      0.058700
     39 HO4        -7.9850    1.9160    4.2420 ho        1 S13      0.407000
     40 H3         -5.1840    0.7070    4.2020 h1        1 S13      0.087700
     41 HO3        -5.9690    2.3540    5.4290 ho        1 S13      0.413000
     42 H2         -4.4220    3.0710    2.3060 h1        1 S13      0.063700
     43 HO2        -3.1630    2.6100    4.2920 ho        1 S13      0.425000
@<TRIPOS>BOND
     1    1    2 ar  
     2    1    7 ar  
     3    1   23 1   
     4    2    3 ar  
     5    2   24 1   
     6    3    4 1   
     7    3    5 ar  
     8    4   25 1   
     9    4   26 1   
    10    4   27 1   
    11    5    6 ar  
    12    5   28 1   
    13    6    7 ar  
    14    6   29 1   
    15    7    8 1   
    16    8    9 1   
    17    8   10 1   
    18    8   30 1   
    19    9   12 1   
    20    9   31 1   
    21    9   32 1   
    22   10   11 1   
    23   10   33 1   
    24   11   12 1   
    25   12   13 1   
    26   12   21 1   
    27   13   14 1   
    28   14   15 1   
    29   14   17 1   
    30   14   34 1   
    31   15   16 1   
    32   15   35 1   
    33   15   36 1   
    34   16   37 1   
    35   17   18 1   
    36   17   19 1   
    37   17   38 1   
    38   18   39 1   
    39   19   20 1   
    40   19   21 1   
    41   19   40 1   
    42   20   41 1   
    43   21   22 1   
    44   21   42 1   
    45   22   43 1   
@<TRIPOS>SUBSTRUCTURE
     1 S13         1 TEMP              0 ****  ****    0 ROOT
