@<TRIPOS>MOLECULE
S14
   56    49     1     0     0
SMALL
bcc


@<TRIPOS>ATOM
      1 C1         -2.4950    1.4150   -6.5530 c1        1 S14      0.003000
      2 C2         -1.4410    2.2600   -6.1550 c1        1 S14     -0.106250
      3 C3         -1.0280    2.2740   -4.8420 c1        1 S14     -0.106250
      4 C4         -1.6420    1.4680   -3.9250 c1        1 S14     -0.057500
      5 C5         -2.6880    0.6300   -4.3220 c1        1 S14     -0.063000
      6 N6         -3.1020    0.6170   -5.6440 n1        1 S14     -0.059000
      7 N7         -4.1010   -0.0560   -6.2780 n1        1 S14     -0.140500
      8 C8         -4.1080    0.3290   -7.5760 c1        1 S14     -0.116000
      9 N9         -3.1160    1.2380   -7.7490 n1        1 S14     -0.140500
     10 C14        -1.1230    1.0650   -2.6780 c1        1 S14     -0.057500
     11 C15        -0.2680   -0.0360   -2.6090 c1        1 S14     -0.106250
     12 C16         0.0850   -0.5730   -1.3630 c1        1 S14     -0.106250
     13 C17        -0.4160   -0.0100   -0.1960 c1        1 S14     -0.082000
     14 C18        -1.2750    1.0960   -0.2660 c1        1 S14     -0.131000
     15 C19        -1.6260    1.6300   -1.5050 c1        1 S14     -0.063000
     16 C24        -0.1250   -0.6710    1.1620 c3        1 S14     -0.118000
     17 C25         0.9260    0.1360    1.9040 c3        1 S14     -0.017000
     18 C26         2.1820   -0.7210    2.1050 c2        1 S14      0.309000
     19 N27         3.2830   -0.2260    2.9290 n         1 S14     -0.310000
     20 C28        -1.3960   -0.7200    1.9820 c2        1 S14      0.307000
     21 N30         1.2520    1.2760    1.1560 n3        1 S14     -0.340000
     22 O32         2.2320   -1.8430    1.6360 o         1 S14     -0.398000
     23 O33        -1.8920    0.3170    2.4060 o         1 S14     -0.396000
     24 N34        -2.0610   -2.0250    2.2460 n         1 S14     -0.326000
     25 C35        -3.0030   -2.1390    3.3070 c3        1 S14     -0.079500
     26 C39        -1.8090   -3.1500    1.3850 c3        1 S14     -0.079500
     27 C43         4.3860   -0.8660    3.2510 c3        1 S14     -0.059000
     28 C44         4.8790   -0.2370    4.6680 c3        1 S14      0.049000
     29 C45         4.6150    1.0470    4.6080 c3        1 S14     -0.208000
     30 C46         3.4010    1.1650    3.6100 c3        1 S14     -0.014000
     31 F53         6.2310   -0.4310    4.8250 f         1 S14     -0.163000
     32 H2         -1.0040    2.8330   -6.8090 ha        1 S14      0.157000
     33 H3         -0.3050    2.8540   -4.5690 ha        1 S14      0.157000
     34 H5         -3.1270    0.0540   -3.6680 ha        1 S14      0.160500
     35 H8         -4.6850   -0.0290   -8.2780 DU        1 S14      0.210000
     36 H15         0.0850   -0.4330   -3.4310 ha        1 S14      0.157000
     37 H16         0.6820   -1.3430   -1.3150 ha        1 S14      0.157000
     38 H18        -1.6290    1.4940    0.5560 ha        1 S14      0.150000
     39 H19        -2.2300    2.4080   -1.5530 ha        1 S14      0.160500
     40 H24         0.2030   -1.5790    1.0190 hc        1 S14      0.147000
     41 H25         0.5730    0.4070    2.7750 h1        1 S14      0.126000
     42 H301        0.5240    1.8210    1.1030 hn        1 S14      0.168000
     43 H302        1.5070    1.0250    0.3140 hn        1 S14      0.168000
     44 H351       -3.9130   -2.0260    2.9510 h1        1 S14      0.086667
     45 H352       -2.8270   -1.4510    3.9730 h1        1 S14      0.086667
     46 H353       -2.9230   -3.0270    3.7240 h1        1 S14      0.086667
     47 H391       -0.8490   -3.2610    1.2690 h1        1 S14      0.086667
     48 H392       -2.2290   -2.9930    0.5120 h1        1 S14      0.086667
     49 H393       -2.1900   -3.9690    1.7920 h1        1 S14      0.086667
     50 H431        4.2030   -1.8270    3.3530 h1        1 S14      0.110500
     51 H432        5.0690   -0.7240    2.5640 h1        1 S14      0.110500
     52 H44         4.3900   -0.6480    5.4070 h1        1 S14      0.101000
     53 H451        4.3630    1.3860    5.4950 hc        1 S14      0.107000
     54 H452        5.3920    1.5390    4.2620 hc        1 S14      0.107000
     55 H461        2.5800    1.3740    4.0990 h1        1 S14      0.101000
     56 H462        3.5810    1.8550    2.9390 h1        1 S14      0.101000
@<TRIPOS>BOND
     1    1    6 1   
     2    2    3 1   
     3    2   32 1   
     4    3   33 1   
     5    4    5 1   
     6    5   34 1   
     7    7    8 1   
     8    8    9 1   
     9   10   15 1   
    10   11   12 1   
    11   11   36 1   
    12   12   37 1   
    13   13   14 1   
    14   13   16 1   
    15   14   38 1   
    16   15   39 1   
    17   16   17 1   
    18   16   20 1   
    19   16   40 1   
    20   17   18 1   
    21   17   21 1   
    22   17   41 1   
    23   18   19 1   
    24   18   22 1   
    25   19   27 1   
    26   19   30 1   
    27   20   23 1   
    28   20   24 1   
    29   21   42 1   
    30   21   43 1   
    31   24   25 1   
    32   24   26 1   
    33   25   44 1   
    34   25   45 1   
    35   25   46 1   
    36   26   47 1   
    37   26   48 1   
    38   26   49 1   
    39   27   28 1   
    40   27   50 1   
    41   27   51 1   
    42   28   29 1   
    43   28   31 1   
    44   28   52 1   
    45   29   30 1   
    46   29   53 1   
    47   29   54 1   
    48   30   55 1   
    49   30   56 1   
@<TRIPOS>SUBSTRUCTURE
     1 S14         1 TEMP              0 ****  ****    0 ROOT
