@<TRIPOS>MOLECULE
S14
   58    61     1     0     0
SMALL
bcc


@<TRIPOS>ATOM
      1 C1          0.5020   -0.8970   -0.3210 cc        1 S14     -0.000300
      2 C2          1.8550   -1.2700   -0.0360 cc        1 S14     -0.083000
      3 C3          2.3690   -1.0210    1.2040 cd        1 S14     -0.097000
      4 C4          1.5900   -0.3860    2.2270 cd        1 S14     -0.177000
      5 C5          0.2740   -0.0090    1.9660 cc        1 S14      0.038700
      6 N6         -0.2750   -0.2510    0.7360 na        1 S14      0.143000
      7 N7         -1.5190    0.0190    0.2790 nc        1 S14     -0.561100
      8 C8         -1.5090   -0.4400   -1.0060 cd        1 S14      0.561200
      9 N9         -0.2890   -1.0090   -1.4140 nd        1 S14     -0.339300
     10 C14         2.1650   -0.1400    3.5340 ca        1 S14      0.086000
     11 C15         3.1210   -1.0200    4.0770 ca        1 S14     -0.128000
     12 C16         3.6770   -0.7870    5.3290 ca        1 S14     -0.116500
     13 C17         3.2910    0.3350    6.0770 ca        1 S14     -0.273300
     14 C18         2.3350    1.2170    5.5470 ca        1 S14     -0.116500
     15 C19         1.7840    0.9860    4.2950 ca        1 S14     -0.128000
     16 C24         3.8870    0.5710    7.4240 c3        1 S14     -0.077400
     17 C25         4.7010    1.8920    7.5140 c3        1 S14      0.043500
     18 C26         5.8620    1.6600    8.5360 c         1 S14      0.606100
     19 N27         5.9500    2.4040    9.6750 n         1 S14     -0.397800
     20 C28         2.7550    0.6070    8.4400 c         1 S14      0.545100
     21 N30         5.3300    2.2420    6.2000 nz        1 S14     -0.829600
     22 O32         6.7340    0.8430    8.1670 o         1 S14     -0.578100
     23 O33         2.2450    1.6100    8.9180 o         1 S14     -0.409100
     24 N34         2.1930   -0.7360    8.8420 nx        1 S14     -0.573200
     25 C35         2.9300   -1.2480   10.0340 c3        1 S14      0.079600
     26 C39         0.7320   -0.6500    9.1220 c3        1 S14      0.079600
     27 C43         4.8300    3.0620   10.3340 c3        1 S14      0.014000
     28 C44         4.8080    2.5350   11.8060 c3        1 S14      0.156600
     29 C45         6.2600    2.0780   12.0640 c3        1 S14     -0.132400
     30 C46         6.9520    2.0370   10.6940 c3        1 S14      0.059000
     31 F53         3.9080    1.4880   11.9190 f         1 S14     -0.252300
     32 H2          2.4360   -1.7500   -0.8400 ha        1 S14      0.191000
     33 H3          3.4120   -1.2940    1.4270 ha        1 S14      0.145000
     34 H5         -0.3780    0.4700    2.7200 h4        1 S14      0.178000
     35 H8         -2.3770   -0.3750   -1.6800 h5        1 S14      0.107800
     36 H15         3.4240   -1.9150    3.5060 ha        1 S14      0.177500
     37 H16         4.4260   -1.4930    5.7260 ha        1 S14      0.146500
     38 H18         2.0080    2.0930    6.1320 ha        1 S14      0.146500
     39 H19         1.0450    1.6970    3.8870 ha        1 S14      0.177500
     40 H24         4.5970   -0.2790    7.6740 hc        1 S14      0.132700
     41 H25         4.0240    2.7520    7.7980 hx        1 S14      0.139700
     42 H301        5.7130    3.1930    6.2450 hn        1 S14      0.481800
     43 H302        4.6330    2.1780    5.4450 hn        1 S14      0.481800
     44 H351        2.4530   -2.2070   10.3780 hx        1 S14      0.119533
     45 H352        2.8780   -0.4870   10.8640 hx        1 S14      0.119533
     46 H353        4.0000   -1.4410    9.7570 hx        1 S14      0.119533
     47 H391        0.3540   -1.6710    9.4030 hx        1 S14      0.119533
     48 H392        0.2000   -0.2850    8.2020 hx        1 S14      0.119533
     49 H393        0.5520    0.0680    9.9690 hx        1 S14      0.119533
     50 H431        3.8470    2.8700    9.8340 h1        1 S14      0.086200
     51 H432        5.0330    4.1700   10.3430 h1        1 S14      0.086200
     52 H44         4.4950    3.3550   12.5100 h1        1 S14      0.114700
     53 H451        6.2800    1.0740   12.5550 hc        1 S14      0.100200
     54 H452        6.7760    2.8060   12.7390 hc        1 S14      0.100200
     55 H461        7.7810    2.7960   10.6370 h1        1 S14      0.099200
     56 H462        7.3850    1.0220   10.4770 h1        1 S14      0.099200
     57 H303        6.1020    1.5810    6.0090 hn        1 S14      0.481800
     58 H341        2.3370   -1.3850    8.0550 hn        1 S14      0.467800
@<TRIPOS>BOND
     1    1    2 1   
     2    1    6 1   
     3    1    9 2   
     4    2    3 2   
     5    2   32 1   
     6    3    4 1   
     7    3   33 1   
     8    4    5 2   
     9    4   10 1   
    10    5    6 1   
    11    5   34 1   
    12    6    7 1   
    13    7    8 2   
    14    8    9 1   
    15    8   35 1   
    16   10   11 ar  
    17   10   15 ar  
    18   11   12 ar  
    19   11   36 1   
    20   12   13 ar  
    21   12   37 1   
    22   13   14 ar  
    23   13   16 1   
    24   14   15 ar  
    25   14   38 1   
    26   15   39 1   
    27   16   17 1   
    28   16   20 1   
    29   16   40 1   
    30   17   18 1   
    31   17   21 1   
    32   17   41 1   
    33   18   19 1   
    34   18   22 2   
    35   19   27 1   
    36   19   30 1   
    37   20   23 2   
    38   20   24 1   
    39   21   42 1   
    40   21   43 1   
    41   21   57 1   
    42   24   25 1   
    43   24   26 1   
    44   24   58 1   
    45   25   44 1   
    46   25   45 1   
    47   25   46 1   
    48   26   47 1   
    49   26   48 1   
    50   26   49 1   
    51   27   28 1   
    52   27   50 1   
    53   27   51 1   
    54   28   29 1   
    55   28   31 1   
    56   28   52 1   
    57   29   30 1   
    58   29   53 1   
    59   29   54 1   
    60   30   55 1   
    61   30   56 1   
@<TRIPOS>SUBSTRUCTURE
     1 S14         1 TEMP              0 ****  ****    0 ROOT
