@<TRIPOS>MOLECULE
S14
   58    61     1     0     0
SMALL
bcc


@<TRIPOS>ATOM
      1 C1          0.4700   -0.7310   -0.3010 cc        1 S14      0.000700
      2 C2          1.8220   -1.1310   -0.0440 cc        1 S14     -0.083000
      3 C3          2.3490   -0.9400    1.2000 cd        1 S14     -0.097000
      4 C4          1.5860   -0.3420    2.2570 cd        1 S14     -0.178000
      5 C5          0.2730    0.0620    2.0240 cc        1 S14      0.039700
      6 N6         -0.2900   -0.1210    0.7890 na        1 S14      0.143000
      7 N7         -1.5350    0.1820    0.3560 nc        1 S14     -0.561100
      8 C8         -1.5410   -0.2210   -0.9480 cd        1 S14      0.562200
      9 N9         -0.3310   -0.7860   -1.3900 nd        1 S14     -0.338300
     10 C14         2.1750   -0.1580    3.5680 ca        1 S14      0.086000
     11 C15         3.1290   -1.0690    4.0620 ca        1 S14     -0.128500
     12 C16         3.6990   -0.8940    5.3170 ca        1 S14     -0.119000
     13 C17         3.3320    0.1970    6.1180 ca        1 S14     -0.276300
     14 C18         2.3790    1.1090    5.6360 ca        1 S14     -0.119000
     15 C19         1.8120    0.9370    4.3810 ca        1 S14     -0.128500
     16 C24         3.9490    0.3700    7.4640 c3        1 S14     -0.082400
     17 C25         4.6650    1.7360    7.6300 c3        1 S14      0.046500
     18 C26         5.7660    1.5740    8.7290 c         1 S14      0.610100
     19 N27         5.8220    2.4330    9.7760 n         1 S14     -0.408800
     20 C28         2.8710    0.2310    8.5260 c         1 S14      0.546100
     21 N30         5.3670    2.1310    6.3660 n4        1 S14     -0.829600
     22 O32         6.6160    0.6860    8.4980 o         1 S14     -0.588100
     23 O33         2.4640    1.1080    9.2730 o         1 S14     -0.406100
     24 N34         2.2390   -1.1380    8.6210 n4        1 S14     -0.575200
     25 C35         2.9320   -1.9420    9.6680 c3        1 S14      0.081600
     26 C39         0.7810   -1.0410    8.9110 c3        1 S14      0.081600
     27 C43         4.7420    3.2890   10.2390 c3        1 S14      0.020000
     28 C44         4.8600    3.3750   11.7960 c3        1 S14      0.171600
     29 C45         6.2790    2.8630   12.1180 c3        1 S14     -0.129400
     30 C46         6.8290    2.2400   10.8310 c3        1 S14      0.074000
     31 F53         3.8830    2.6010   12.3910 f         1 S14     -0.223300
     32 H2          2.3910   -1.5810   -0.8740 ha        1 S14      0.192000
     33 H3          3.3910   -1.2340    1.4020 ha        1 S14      0.145000
     34 H5         -0.3670    0.5160    2.8040 h4        1 S14      0.178000
     35 H8         -2.4140   -0.1180   -1.6100 h5        1 S14      0.107800
     36 H15         3.4190   -1.9410    3.4500 ha        1 S14      0.177500
     37 H16         4.4490   -1.6210    5.6730 ha        1 S14      0.145000
     38 H18         2.0670    1.9640    6.2580 ha        1 S14      0.145000
     39 H19         1.0760    1.6720    4.0110 ha        1 S14      0.177500
     40 H24         4.7280   -0.4410    7.6350 hc        1 S14      0.141700
     41 H25         3.9130    2.5430    7.8720 hx        1 S14      0.136700
     42 H301        5.7050    3.0970    6.4460 hn        1 S14      0.481133
     43 H302        6.1760    1.5070    6.2190 hn        1 S14      0.481133
     44 H351        4.0230   -2.0260    9.4160 hx        1 S14      0.119033
     45 H352        2.4740   -2.9690    9.7070 hx        1 S14      0.119033
     46 H353        2.8050   -1.4420   10.6670 hx        1 S14      0.119033
     47 H391        0.2740   -0.4880    8.0750 hx        1 S14      0.119033
     48 H392        0.3550   -2.0780    8.9950 hx        1 S14      0.119033
     49 H393        0.6240   -0.4880    9.8770 hx        1 S14      0.119033
     50 H431        4.8770    4.3150    9.7990 h1        1 S14      0.077200
     51 H432        3.7310    2.8880    9.9580 h1        1 S14      0.077200
     52 H44         4.7240    4.4420   12.1280 h1        1 S14      0.105700
     53 H451        6.9270    3.7140   12.4470 hc        1 S14      0.100700
     54 H452        6.2480    2.1090   12.9440 hc        1 S14      0.100700
     55 H461        7.0460    1.1430   10.9600 h1        1 S14      0.089700
     56 H462        7.7770    2.7490   10.5030 h1        1 S14      0.089700
     57 H303        4.7240    2.0490    5.5650 hn        1 S14      0.481133
     58 H341        2.3620   -1.6020    7.7070 hn        1 S14      0.468800
@<TRIPOS>BOND
     1    1    2 1   
     2    1    6 1   
     3    1    9 2   
     4    2    3 2   
     5    2   32 1   
     6    3    4 1   
     7    3   33 1   
     8    4    5 2   
     9    4   10 1   
    10    5    6 1   
    11    5   34 1   
    12    6    7 1   
    13    7    8 2   
    14    8    9 1   
    15    8   35 1   
    16   10   11 ar  
    17   10   15 ar  
    18   11   12 ar  
    19   11   36 1   
    20   12   13 ar  
    21   12   37 1   
    22   13   14 ar  
    23   13   16 1   
    24   14   15 ar  
    25   14   38 1   
    26   15   39 1   
    27   16   17 1   
    28   16   20 1   
    29   16   40 1   
    30   17   18 1   
    31   17   21 1   
    32   17   41 1   
    33   18   19 1   
    34   18   22 2   
    35   19   27 1   
    36   19   30 1   
    37   20   23 2   
    38   20   24 1   
    39   21   42 1   
    40   21   43 1   
    41   21   57 1   
    42   24   25 1   
    43   24   26 1   
    44   24   58 1   
    45   25   44 1   
    46   25   45 1   
    47   25   46 1   
    48   26   47 1   
    49   26   48 1   
    50   26   49 1   
    51   27   28 1   
    52   27   50 1   
    53   27   51 1   
    54   28   29 1   
    55   28   31 1   
    56   28   52 1   
    57   29   30 1   
    58   29   53 1   
    59   29   54 1   
    60   30   55 1   
    61   30   56 1   
@<TRIPOS>SUBSTRUCTURE
     1 S14         1 TEMP              0 ****  ****    0 ROOT
