@<TRIPOS>MOLECULE
S14
   56    59     1     0     0
SMALL
bcc


@<TRIPOS>ATOM
      1 C1          6.9640   -0.6700    0.3310 cc        1 S14     -0.022300
      2 C2          6.2460   -1.7840   -0.2040 cc        1 S14     -0.111000
      3 C3          4.8940   -1.6800   -0.3840 cd        1 S14     -0.089000
      4 C4          4.1880   -0.4830   -0.0440 cd        1 S14     -0.082000
      5 C5          4.8680    0.6060    0.4780 cc        1 S14     -0.028300
      6 N6          6.2340    0.5340    0.6700 na        1 S14      0.170000
      7 N7          7.0820    1.4590    1.1540 nc        1 S14     -0.584100
      8 C8          8.3060    0.8410    1.1150 cd        1 S14      0.519200
      9 N9          8.2830   -0.4630    0.6190 nd        1 S14     -0.384300
     10 C14         2.7440   -0.4070   -0.2480 ca        1 S14     -0.033000
     11 C15         2.1640   -0.9410   -1.4070 ca        1 S14     -0.117000
     12 C16         0.7880   -0.8680   -1.6030 ca        1 S14     -0.112000
     13 C17        -0.0320   -0.2630   -0.6440 ca        1 S14     -0.062300
     14 C18         0.5440    0.2690    0.5150 ca        1 S14     -0.112000
     15 C19         1.9210    0.1990    0.7120 ca        1 S14     -0.117000
     16 C24        -1.5110   -0.1980   -0.8590 c3        1 S14     -0.083400
     17 C25        -2.2810   -1.0950    0.1460 c3        1 S14      0.128500
     18 C26        -3.7310   -1.2290   -0.3920 c         1 S14      0.607100
     19 N27        -4.8010   -0.9670    0.4340 n         1 S14     -0.454800
     20 C28        -1.9720    1.2540   -0.6880 c         1 S14      0.667100
     21 N30        -1.6630   -2.3900    0.3160 n3        1 S14     -0.892800
     22 O32        -3.9180   -1.6890   -1.5400 o         1 S14     -0.623100
     23 O33        -2.3620    1.6720    0.4250 o         1 S14     -0.632100
     24 N34        -1.9250    2.1030   -1.7780 n         1 S14     -0.464800
     25 C35        -2.3860    3.4600   -1.6710 c3        1 S14      0.075300
     26 C39        -1.4820    1.6590   -3.0690 c3        1 S14      0.075300
     27 C43        -4.7230   -0.1800    1.6470 c3        1 S14      0.044000
     28 C44        -6.1730    0.2630    2.0140 c3        1 S14      0.164600
     29 C45        -7.0750   -0.2740    0.8820 c3        1 S14     -0.124400
     30 C46        -6.1640   -1.0590   -0.0670 c3        1 S14      0.086000
     31 F53        -6.2610    1.6360    2.1390 f         1 S14     -0.231300
     32 H2          6.8120   -2.6930   -0.4520 ha        1 S14      0.169000
     33 H3          4.3170   -2.5270   -0.7870 ha        1 S14      0.151000
     34 H5          4.3690    1.5530    0.7510 h4        1 S14      0.184000
     35 H8          9.2300    1.3290    1.4470 h5        1 S14      0.079800
     36 H15         2.8010   -1.4140   -2.1690 ha        1 S14      0.137000
     37 H16         0.3460   -1.2950   -2.5170 ha        1 S14      0.144500
     38 H18        -0.1020    0.7450    1.2710 ha        1 S14      0.144500
     39 H19         2.3620    0.6110    1.6320 ha        1 S14      0.137000
     40 H24        -1.7650   -0.5670   -1.8950 hc        1 S14      0.094700
     41 H25        -2.2700   -0.5800    1.1530 h1        1 S14      0.100700
     42 H301       -2.2080   -2.9570    0.9340 hn        1 S14      0.363300
     43 H302       -1.5590   -2.8570   -0.5640 hn        1 S14      0.363300
     44 H351       -3.2200    3.6390   -2.4010 h1        1 S14      0.047200
     45 H352       -2.7570    3.6670   -0.6310 h1        1 S14      0.047200
     46 H353       -1.5440    4.1660   -1.9050 h1        1 S14      0.047200
     47 H391       -0.5430    1.0490   -2.9730 h1        1 S14      0.047200
     48 H392       -2.2720    1.0340   -3.5670 h1        1 S14      0.047200
     49 H393       -1.2660    2.5480   -3.7190 h1        1 S14      0.047200
     50 H431       -4.3030   -0.8150    2.4750 h1        1 S14      0.077200
     51 H432       -4.0670    0.7270    1.5140 h1        1 S14      0.077200
     52 H44        -6.4660   -0.1940    3.0000 h1        1 S14      0.061700
     53 H451       -7.5700    0.5720    0.3460 hc        1 S14      0.068200
     54 H452       -7.8690   -0.9370    1.3020 hc        1 S14      0.068200
     55 H461       -6.2210   -0.6530   -1.1160 h1        1 S14      0.059700
     56 H462       -6.4590   -2.1430   -0.1060 h1        1 S14      0.059700
@<TRIPOS>BOND
     1    1    2 1   
     2    1    6 1   
     3    1    9 2   
     4    2    3 2   
     5    2   32 1   
     6    3    4 1   
     7    3   33 1   
     8    4    5 2   
     9    4   10 1   
    10    5    6 1   
    11    5   34 1   
    12    6    7 1   
    13    7    8 2   
    14    8    9 1   
    15    8   35 1   
    16   10   11 ar  
    17   10   15 ar  
    18   11   12 ar  
    19   11   36 1   
    20   12   13 ar  
    21   12   37 1   
    22   13   14 ar  
    23   13   16 1   
    24   14   15 ar  
    25   14   38 1   
    26   15   39 1   
    27   16   17 1   
    28   16   20 1   
    29   16   40 1   
    30   17   18 1   
    31   17   21 1   
    32   17   41 1   
    33   18   19 1   
    34   18   22 2   
    35   19   27 1   
    36   19   30 1   
    37   20   23 2   
    38   20   24 1   
    39   21   42 1   
    40   21   43 1   
    41   24   25 1   
    42   24   26 1   
    43   25   44 1   
    44   25   45 1   
    45   25   46 1   
    46   26   47 1   
    47   26   48 1   
    48   26   49 1   
    49   27   28 1   
    50   27   50 1   
    51   27   51 1   
    52   28   29 1   
    53   28   31 1   
    54   28   52 1   
    55   29   30 1   
    56   29   53 1   
    57   29   54 1   
    58   30   55 1   
    59   30   56 1   
@<TRIPOS>SUBSTRUCTURE
     1 S14         1 TEMP              0 ****  ****    0 ROOT
