@<TRIPOS>MOLECULE
S14
   58    61     1     0     0
SMALL
bcc


@<TRIPOS>ATOM
      1 C1          0.4950   -0.9050   -0.3160 cc        1 S14     -0.000300
      2 C2          1.8500   -1.2730   -0.0330 cc        1 S14     -0.083000
      3 C3          2.3660   -1.0220    1.2050 cd        1 S14     -0.097000
      4 C4          1.5860   -0.3900    2.2300 cd        1 S14     -0.177000
      5 C5          0.2680   -0.0180    1.9720 cc        1 S14      0.038700
      6 N6         -0.2820   -0.2620    0.7420 na        1 S14      0.143000
      7 N7         -1.5280    0.0040    0.2880 nc        1 S14     -0.561100
      8 C8         -1.5190   -0.4540   -0.9970 cd        1 S14      0.561200
      9 N9         -0.2970   -1.0190   -1.4070 nd        1 S14     -0.339300
     10 C14         2.1620   -0.1410    3.5370 ca        1 S14      0.086000
     11 C15         3.1230   -1.0190    4.0770 ca        1 S14     -0.128000
     12 C16         3.6800   -0.7840    5.3280 ca        1 S14     -0.116500
     13 C17         3.2920    0.3370    6.0770 ca        1 S14     -0.273300
     14 C18         2.3320    1.2160    5.5490 ca        1 S14     -0.116500
     15 C19         1.7790    0.9830    4.2980 ca        1 S14     -0.128000
     16 C24         3.8900    0.5740    7.4230 c3        1 S14     -0.077400
     17 C25         4.7000    1.8980    7.5120 c3        1 S14      0.043500
     18 C26         5.8640    1.6690    8.5300 c         1 S14      0.606100
     19 N27         5.9530    2.4130    9.6700 n         1 S14     -0.397800
     20 C28         2.7600    0.6060    8.4410 c         1 S14      0.545100
     21 N30         5.3250    2.2510    6.1960 n4        1 S14     -0.829600
     22 O32         6.7380    0.8560    8.1590 o         1 S14     -0.578100
     23 O33         2.2480    1.6070    8.9200 o         1 S14     -0.409100
     24 N34         2.2030   -0.7380    8.8440 n4        1 S14     -0.573200
     25 C35         2.9430   -1.2490   10.0330 c3        1 S14      0.079600
     26 C39         0.7410   -0.6560    9.1260 c3        1 S14      0.079600
     27 C43         4.8320    3.0670   10.3320 c3        1 S14      0.014000
     28 C44         4.8160    2.5380   11.8030 c3        1 S14      0.156600
     29 C45         6.2690    2.0860   12.0580 c3        1 S14     -0.132400
     30 C46         6.9580    2.0480   10.6860 c3        1 S14      0.059000
     31 F53         3.9190    1.4880   11.9180 f         1 S14     -0.252300
     32 H2          2.4310   -1.7500   -0.8390 ha        1 S14      0.191000
     33 H3          3.4100   -1.2910    1.4270 ha        1 S14      0.145000
     34 H5         -0.3850    0.4590    2.7280 h4        1 S14      0.178000
     35 H8         -2.3890   -0.3930   -1.6690 h5        1 S14      0.107800
     36 H15         3.4280   -1.9130    3.5050 ha        1 S14      0.177500
     37 H16         4.4330   -1.4870    5.7230 ha        1 S14      0.146500
     38 H18         2.0030    2.0900    6.1350 ha        1 S14      0.146500
     39 H19         1.0360    1.6910    3.8910 ha        1 S14      0.177500
     40 H24         4.6030   -0.2730    7.6710 hc        1 S14      0.132700
     41 H25         4.0210    2.7550    7.7980 hx        1 S14      0.139700
     42 H301        6.0980    1.5930    6.0030 hn        1 S14      0.481800
     43 H302        4.6250    2.1850    5.4430 hn        1 S14      0.481800
     44 H351        4.0130   -1.4390    9.7540 hx        1 S14      0.119533
     45 H352        2.8910   -0.4890   10.8640 hx        1 S14      0.119533
     46 H353        2.4700   -2.2090   10.3770 hx        1 S14      0.119533
     47 H391        0.3670   -1.6780    9.4080 hx        1 S14      0.119533
     48 H392        0.5610    0.0600    9.9740 hx        1 S14      0.119533
     49 H393        0.2070   -0.2920    8.2080 hx        1 S14      0.119533
     50 H431        5.0310    4.1750   10.3420 h1        1 S14      0.086200
     51 H432        3.8480    2.8710    9.8340 h1        1 S14      0.086200
     52 H44         4.5020    3.3560   12.5090 h1        1 S14      0.114700
     53 H451        6.2940    1.0810   12.5480 hc        1 S14      0.100200
     54 H452        6.7840    2.8150   12.7320 hc        1 S14      0.100200
     55 H461        7.7840    2.8100   10.6270 h1        1 S14      0.099200
     56 H462        7.3940    1.0350   10.4670 h1        1 S14      0.099200
     57 H303        5.7050    3.2030    6.2400 hn        1 S14      0.481800
     58 H341        2.3460   -1.3870    8.0550 hn        1 S14      0.467800
@<TRIPOS>BOND
     1    1    2 1   
     2    1    6 1   
     3    1    9 2   
     4    2    3 2   
     5    2   32 1   
     6    3    4 1   
     7    3   33 1   
     8    4    5 2   
     9    4   10 1   
    10    5    6 1   
    11    5   34 1   
    12    6    7 1   
    13    7    8 2   
    14    8    9 1   
    15    8   35 1   
    16   10   11 ar  
    17   10   15 ar  
    18   11   12 ar  
    19   11   36 1   
    20   12   13 ar  
    21   12   37 1   
    22   13   14 ar  
    23   13   16 1   
    24   14   15 ar  
    25   14   38 1   
    26   15   39 1   
    27   16   17 1   
    28   16   20 1   
    29   16   40 1   
    30   17   18 1   
    31   17   21 1   
    32   17   41 1   
    33   18   19 1   
    34   18   22 2   
    35   19   27 1   
    36   19   30 1   
    37   20   23 2   
    38   20   24 1   
    39   21   42 1   
    40   21   43 1   
    41   21   57 1   
    42   24   25 1   
    43   24   26 1   
    44   24   58 1   
    45   25   44 1   
    46   25   45 1   
    47   25   46 1   
    48   26   47 1   
    49   26   48 1   
    50   26   49 1   
    51   27   28 1   
    52   27   50 1   
    53   27   51 1   
    54   28   29 1   
    55   28   31 1   
    56   28   52 1   
    57   29   30 1   
    58   29   53 1   
    59   29   54 1   
    60   30   55 1   
    61   30   56 1   
@<TRIPOS>SUBSTRUCTURE
     1 S14         1 TEMP              0 ****  ****    0 ROOT
