@<TRIPOS>MOLECULE
S17
   53    53     1     0     0
SMALL
bcc


@<TRIPOS>ATOM
      1 CD1         0.2120   -1.4110    0.0010 ca        1 S17     -0.133000
      2 CE1         1.5940   -1.5950    0.0040 ca        1 S17     -0.091500
      3 CZ          2.4320   -0.6190    0.5520 ca        1 S17     -0.009900
      4 BR1         4.2820   -0.8630    0.5610 br        1 S17     -0.015100
      5 CE2         1.8750    0.5530    1.0810 ca        1 S17     -0.091500
      6 CD2         0.4950    0.7330    1.0780 ca        1 S17     -0.133000
      7 CG         -0.3490   -0.2520    0.5470 ca        1 S17     -0.161300
      8 CB         -1.8170   -0.0270    0.5060 c3        1 S17     -0.051100
      9 CA         -2.5610   -0.6200    1.7180 c3        1 S17      0.075500
     10 C          -2.9120   -2.0870    1.4950 c         1 S17      0.621100
     11 O          -2.6300   -3.0170    2.2580 o         1 S17     -0.556000
     12 OAT        -3.6150   -2.2920    0.3650 os        1 S17     -0.390900
     13 CAA        -4.0090   -3.6480    0.0750 c3        1 S17      0.122700
     14 N          -1.7590   -0.4700    2.9860 n4        1 S17     -0.679800
     15 CAV        -2.6270   -0.4310    4.2290 c         1 S17      0.548100
     16 OAC        -3.3080    0.5730    4.3640 o         1 S17     -0.400100
     17 CAP        -2.5280   -1.6270    5.1330 c3        1 S17     -0.159400
     18 CAN        -3.5830   -1.5430    6.2210 c3        1 S17     -0.080400
     19 CAL        -3.5290   -2.7220    7.1710 c3        1 S17     -0.086400
     20 CAK        -2.4030   -2.6160    8.1790 c3        1 S17     -0.084400
     21 CAM        -2.6270   -3.4790    9.4090 c3        1 S17     -0.092400
     22 CAO        -2.6270   -4.9540    9.0640 c3        1 S17     -0.161400
     23 CAU        -2.4960   -5.8640   10.2430 c         1 S17      0.542100
     24 OAB        -1.8320   -6.8730   10.3780 o         1 S17     -0.372100
     25 NAR        -3.3430   -5.4930   11.4780 n4        1 S17     -0.467300
     26 OAE        -3.5570   -6.5190   12.3320 oh        1 S17     -0.346300
     27 HD1        -0.4350   -2.1750   -0.4590 ha        1 S17      0.143000
     28 HE1         2.0200   -2.5100   -0.4430 ha        1 S17      0.171500
     29 HE2         2.5270    1.3470    1.4840 ha        1 S17      0.171500
     30 HD2         0.0770    1.6850    1.4440 ha        1 S17      0.143000
     31 HBC1       -2.0350    1.0760    0.4630 hc        1 S17      0.110700
     32 HBC2       -2.2640   -0.4880   -0.4210 hc        1 S17      0.110700
     33 HA         -3.5330   -0.0500    1.8540 hx        1 S17      0.147700
     34 H          -1.2190    0.4070    2.9070 hn        1 S17      0.475300
     35 HAA1       -4.6770   -4.0230    0.8860 h1        1 S17      0.079033
     36 HAA2       -3.1010   -4.2900   -0.0200 h1        1 S17      0.079033
     37 HAA3       -4.5520   -3.5410   -0.8990 h1        1 S17      0.079033
     38 HAP1       -2.6640   -2.5680    4.5260 hc        1 S17      0.113700
     39 HAP2       -1.5000   -1.6510    5.5880 hc        1 S17      0.113700
     40 HAN1       -4.5990   -1.5130    5.7410 hc        1 S17      0.078700
     41 HAN2       -3.4630   -0.5830    6.7910 hc        1 S17      0.078700
     42 HAL1       -4.5120   -2.7630    7.7150 hc        1 S17      0.057200
     43 HAL2       -3.4310   -3.6770    6.5890 hc        1 S17      0.057200
     44 HAK1       -1.4300   -2.8970    7.6960 hc        1 S17      0.066700
     45 HAK2       -2.3060   -1.5510    8.5270 hc        1 S17      0.066700
     46 HAM1       -3.6040   -3.1900    9.8820 hc        1 S17      0.059200
     47 HAM2       -1.8070   -3.2580   10.1440 hc        1 S17      0.059200
     48 HAO1       -1.7570   -5.1920    8.3830 hc        1 S17      0.129700
     49 HAO2       -3.5700   -5.2310    8.5110 hc        1 S17      0.129700
     50 HAR        -2.8890   -4.7100   11.9880 hn        1 S17      0.483800
     51 HAE        -2.7520   -7.0940   12.3650 ho        1 S17      0.491000
     52 H2         -1.0980   -1.2560    3.0460 hn        1 S17      0.475300
     53 HAR2       -4.2890   -5.1860   11.1760 hn        1 S17      0.483800
@<TRIPOS>BOND
     1    1    2 ar  
     2    1    7 ar  
     3    1   27 1   
     4    2    3 ar  
     5    2   28 1   
     6    3    4 1   
     7    3    5 ar  
     8    5    6 ar  
     9    5   29 1   
    10    6    7 ar  
    11    6   30 1   
    12    7    8 1   
    13    8    9 1   
    14    8   31 1   
    15    8   32 1   
    16    9   10 1   
    17    9   14 1   
    18    9   33 1   
    19   10   11 2   
    20   10   12 1   
    21   12   13 1   
    22   13   35 1   
    23   13   36 1   
    24   13   37 1   
    25   14   15 1   
    26   14   34 1   
    27   14   52 1   
    28   15   16 2   
    29   15   17 1   
    30   17   18 1   
    31   17   38 1   
    32   17   39 1   
    33   18   19 1   
    34   18   40 1   
    35   18   41 1   
    36   19   20 1   
    37   19   42 1   
    38   19   43 1   
    39   20   21 1   
    40   20   44 1   
    41   20   45 1   
    42   21   22 1   
    43   21   46 1   
    44   21   47 1   
    45   22   23 1   
    46   22   48 1   
    47   22   49 1   
    48   23   24 2   
    49   23   25 1   
    50   25   26 1   
    51   25   50 1   
    52   25   53 1   
    53   26   51 1   
@<TRIPOS>SUBSTRUCTURE
     1 S17         1 TEMP              0 ****  ****    0 ROOT
