@<TRIPOS>MOLECULE
S17
   53    53     1     0     0
SMALL
bcc


@<TRIPOS>ATOM
      1 CD1        -0.0340   -0.9720   -0.3500 ca        1 S17     -0.133000
      2 CE1         1.3020   -1.2780   -0.6070 ca        1 S17     -0.091000
      3 CZ          2.3220   -0.5680    0.0370 ca        1 S17     -0.009900
      4 BR1         4.1110   -0.9760   -0.3020 br        1 S17     -0.015100
      5 CE2         1.9920    0.4610    0.9270 ca        1 S17     -0.091000
      6 CD2         0.6570    0.7630    1.1830 ca        1 S17     -0.133000
      7 CG         -0.3670    0.0420    0.5540 ca        1 S17     -0.162300
      8 CB         -1.7870    0.4040    0.8000 c3        1 S17     -0.050100
      9 CA         -2.4450   -0.4300    1.9150 c3        1 S17      0.075500
     10 C          -3.0090   -1.7400    1.3740 c         1 S17      0.619100
     11 O          -2.7520   -2.8670    1.8100 o         1 S17     -0.551000
     12 OAT        -3.8720   -1.5580    0.3560 os        1 S17     -0.392900
     13 CAA        -4.4680   -2.7410   -0.2140 c3        1 S17      0.122700
     14 N          -1.4790   -0.7110    3.0390 n4        1 S17     -0.679800
     15 CAV        -2.1740   -0.9390    4.3690 c         1 S17      0.550100
     16 OAC        -2.6950    0.0450    4.8660 o         1 S17     -0.407100
     17 CAP        -2.1160   -2.3420    4.8990 c3        1 S17     -0.160400
     18 CAN        -3.0180   -2.4870    6.1130 c3        1 S17     -0.081400
     19 CAL        -2.9830   -3.8990    6.6660 c3        1 S17     -0.085400
     20 CAK        -1.8730   -4.1240    7.6740 c3        1 S17     -0.085400
     21 CAM        -2.2400   -3.6910    9.0810 c3        1 S17     -0.083400
     22 CAO        -2.9730   -4.7980    9.8250 c3        1 S17     -0.150400
     23 CAU        -3.4150   -4.3110   11.1690 c         1 S17      0.545100
     24 OAB        -3.5720   -3.1840   11.5960 o         1 S17     -0.380100
     25 NAR        -3.7530   -5.4230   12.1900 n4        1 S17     -0.472300
     26 OAE        -4.6310   -5.0340   13.1410 oh        1 S17     -0.346300
     27 HD1        -0.8270   -1.5210   -0.8830 ha        1 S17      0.143000
     28 HE1         1.5470   -2.0730   -1.3320 ha        1 S17      0.171500
     29 HE2         2.7870    1.0510    1.4150 ha        1 S17      0.171500
     30 HD2         0.4150    1.6130    1.8410 ha        1 S17      0.143000
     31 HBC1       -1.8630    1.4910    1.0800 hc        1 S17      0.110200
     32 HBC2       -2.4000    0.2590   -0.1350 hc        1 S17      0.110200
     33 HA         -3.3110    0.1660    2.3440 hx        1 S17      0.145700
     34 H          -0.8430    0.0990    3.1080 hn        1 S17      0.475800
     35 HAA1       -3.6680   -3.4060   -0.6180 h1        1 S17      0.079367
     36 HAA2       -5.1150   -2.3200   -1.0260 h1        1 S17      0.079367
     37 HAA3       -5.0670   -3.2690    0.5650 h1        1 S17      0.079367
     38 HAP1       -2.4360   -3.0630    4.0900 hc        1 S17      0.117200
     39 HAP2       -1.0520   -2.5820    5.1730 hc        1 S17      0.117200
     40 HAN1       -4.0710   -2.2320    5.8150 hc        1 S17      0.071200
     41 HAN2       -2.7110   -1.7500    6.9020 hc        1 S17      0.071200
     42 HAL1       -2.8640   -4.6310    5.8220 hc        1 S17      0.061700
     43 HAL2       -3.9750   -4.1160    7.1460 hc        1 S17      0.061700
     44 HAK1       -0.9590   -3.5520    7.3570 hc        1 S17      0.063200
     45 HAK2       -1.5910   -5.2110    7.6750 hc        1 S17      0.063200
     46 HAM1       -2.8800   -2.7690    9.0480 hc        1 S17      0.076700
     47 HAM2       -1.3040   -3.4290    9.6450 hc        1 S17      0.076700
     48 HAO1       -3.8930   -5.1040    9.2490 hc        1 S17      0.112700
     49 HAO2       -2.3070   -5.6980    9.9220 hc        1 S17      0.112700
     50 HAR        -2.8820   -5.7640   12.6400 hn        1 S17      0.485300
     51 HAE        -4.4060   -4.1170   13.4390 ho        1 S17      0.489000
     52 H2         -0.9250   -1.5420    2.7890 hn        1 S17      0.475800
     53 HAR2       -4.2120   -6.2220   11.7070 hn        1 S17      0.485300
@<TRIPOS>BOND
     1    1    2 ar  
     2    1    7 ar  
     3    1   27 1   
     4    2    3 ar  
     5    2   28 1   
     6    3    4 1   
     7    3    5 ar  
     8    5    6 ar  
     9    5   29 1   
    10    6    7 ar  
    11    6   30 1   
    12    7    8 1   
    13    8    9 1   
    14    8   31 1   
    15    8   32 1   
    16    9   10 1   
    17    9   14 1   
    18    9   33 1   
    19   10   11 2   
    20   10   12 1   
    21   12   13 1   
    22   13   35 1   
    23   13   36 1   
    24   13   37 1   
    25   14   15 1   
    26   14   34 1   
    27   14   52 1   
    28   15   16 2   
    29   15   17 1   
    30   17   18 1   
    31   17   38 1   
    32   17   39 1   
    33   18   19 1   
    34   18   40 1   
    35   18   41 1   
    36   19   20 1   
    37   19   42 1   
    38   19   43 1   
    39   20   21 1   
    40   20   44 1   
    41   20   45 1   
    42   21   22 1   
    43   21   46 1   
    44   21   47 1   
    45   22   23 1   
    46   22   48 1   
    47   22   49 1   
    48   23   24 2   
    49   23   25 1   
    50   25   26 1   
    51   25   50 1   
    52   25   53 1   
    53   26   51 1   
@<TRIPOS>SUBSTRUCTURE
     1 S17         1 TEMP              0 ****  ****    0 ROOT
