@<TRIPOS>MOLECULE
S17
   53    53     1     0     0
SMALL
bcc


@<TRIPOS>ATOM
      1 CD1         0.0660   -1.4150   -0.0510 ca        1 S17     -0.133500
      2 CE1         1.4350   -1.6670   -0.1150 ca        1 S17     -0.091500
      3 CZ          2.3450   -0.7460    0.4150 ca        1 S17     -0.009900
      4 Br1         4.1790   -1.0810    0.3330 br        1 S17     -0.015100
      5 CE2         1.8720    0.4390    0.9940 ca        1 S17     -0.091500
      6 CD2         0.5040    0.6870    1.0580 ca        1 S17     -0.133500
      7 CG         -0.4110   -0.2430    0.5450 ca        1 S17     -0.161300
      8 CB         -1.8670    0.0550    0.5770 c3        1 S17     -0.051100
      9 CA         -2.5830   -0.5290    1.8090 c3        1 S17      0.075500
     10 C          -3.0190   -1.9710    1.5710 c         1 S17      0.621100
     11 O          -2.7490   -2.9330    2.2980 o         1 S17     -0.555000
     12 OAT        -3.7840   -2.1120    0.4710 os        1 S17     -0.391900
     13 CAA        -4.2600   -3.4400    0.1720 c3        1 S17      0.122700
     14 N          -1.7190   -0.4490    3.0410 ny        1 S17     -0.679800
     15 CAV        -2.5270   -0.4030    4.3240 c         1 S17      0.549100
     16 OAC        -3.1640    0.6220    4.5080 o         1 S17     -0.400100
     17 CAP        -2.4300   -1.6190    5.2000 c3        1 S17     -0.159400
     18 CAN        -3.4050   -1.5050    6.3580 c3        1 S17     -0.080400
     19 CAL        -3.3370   -2.6990    7.2890 c3        1 S17     -0.086400
     20 CAK        -2.0960   -2.6990    8.1590 c3        1 S17     -0.085400
     21 CAM        -2.2630   -3.5090    9.4310 c3        1 S17     -0.084400
     22 CAO        -2.4690   -4.9840    9.1370 c3        1 S17     -0.151400
     23 CAU        -2.2700   -5.8230   10.3580 c         1 S17      0.552100
     24 OAB        -1.3670   -6.5660   10.6800 o         1 S17     -0.360100
     25 NAR        -3.4080   -5.7450   11.4170 ny        1 S17     -0.477300
     26 OAE        -4.5780   -6.2050   10.9220 oh        1 S17     -0.353300
     27 HD1        -0.6390   -2.1350   -0.4970 ha        1 S17      0.143000
     28 HE1         1.7940   -2.5900   -0.6010 ha        1 S17      0.171500
     29 HE2         2.5810    1.1890    1.3840 ha        1 S17      0.171500
     30 HD2         0.1510    1.6490    1.4640 ha        1 S17      0.143000
     31 HBC1       -2.3770   -0.3610   -0.3380 hc        1 S17      0.110700
     32 HBC2       -2.0300    1.1690    0.5680 hc        1 S17      0.110700
     33 HA         -3.5190    0.0860    2.0020 hx        1 S17      0.147700
     34 H          -1.0940   -1.2670    3.0520 hn        1 S17      0.474800
     35 HAA1       -3.3920   -4.1240    0.0190 h1        1 S17      0.078700
     36 HAA2       -4.8420   -3.2820   -0.7720 h1        1 S17      0.078700
     37 HAA3       -4.9070   -3.8000    1.0060 h1        1 S17      0.078700
     38 HAP1       -2.6540   -2.5400    4.5870 hc        1 S17      0.113200
     39 HAP2       -1.3770   -1.7060    5.5860 hc        1 S17      0.113200
     40 HAN1       -4.4490   -1.4230    5.9500 hc        1 S17      0.078200
     41 HAN2       -3.2020   -0.5600    6.9300 hc        1 S17      0.078200
     42 HAL1       -3.3850   -3.6490    6.6950 hc        1 S17      0.057700
     43 HAL2       -4.2520   -2.6690    7.9430 hc        1 S17      0.057700
     44 HAK1       -1.8470   -1.6450    8.4620 hc        1 S17      0.064700
     45 HAK2       -1.2220   -3.0910    7.5760 hc        1 S17      0.064700
     46 HAM1       -3.1370   -3.1100   10.0120 hc        1 S17      0.064200
     47 HAM2       -1.3400   -3.3710   10.0570 hc        1 S17      0.064200
     48 HAO1       -1.7140   -5.3380    8.3760 hc        1 S17      0.122700
     49 HAO2       -3.4980   -5.1600    8.7150 hc        1 S17      0.122700
     50 HAR        -3.1330   -6.2450   12.2840 hn        1 S17      0.482300
     51 HAE        -4.5610   -7.1910   10.9210 ho        1 S17      0.482000
     52 H2         -1.1420    0.4030    2.9580 hn        1 S17      0.474800
     53 HAR2       -3.5860   -4.7460   11.6490 hn        1 S17      0.482300
@<TRIPOS>BOND
     1    1    2 ar  
     2    1    7 ar  
     3    1   27 1   
     4    2    3 ar  
     5    2   28 1   
     6    3    4 1   
     7    3    5 ar  
     8    5    6 ar  
     9    5   29 1   
    10    6    7 ar  
    11    6   30 1   
    12    7    8 1   
    13    8    9 1   
    14    8   31 1   
    15    8   32 1   
    16    9   10 1   
    17    9   14 1   
    18    9   33 1   
    19   10   11 2   
    20   10   12 1   
    21   12   13 1   
    22   13   35 1   
    23   13   36 1   
    24   13   37 1   
    25   14   15 1   
    26   14   34 1   
    27   14   52 1   
    28   15   16 2   
    29   15   17 1   
    30   17   18 1   
    31   17   38 1   
    32   17   39 1   
    33   18   19 1   
    34   18   40 1   
    35   18   41 1   
    36   19   20 1   
    37   19   42 1   
    38   19   43 1   
    39   20   21 1   
    40   20   44 1   
    41   20   45 1   
    42   21   22 1   
    43   21   46 1   
    44   21   47 1   
    45   22   23 1   
    46   22   48 1   
    47   22   49 1   
    48   23   24 2   
    49   23   25 1   
    50   25   26 1   
    51   25   50 1   
    52   25   53 1   
    53   26   51 1   
@<TRIPOS>SUBSTRUCTURE
     1 S17         1 TEMP              0 ****  ****    0 ROOT
