@<TRIPOS>MOLECULE
S17
   51    51     1     0     0
SMALL
bcc


@<TRIPOS>ATOM
      1 CD1        -7.6490   -4.5060   34.1500 ca        1 S17     -0.124500
      2 CE1        -7.5830   -3.2710   34.7920 ca        1 S17     -0.102000
      3 CZ         -7.6810   -3.2010   36.1850 ca        1 S17     -0.024900
      4 BR1        -7.5930   -1.5440   37.0510 br        1 S17     -0.084100
      5 CE2        -7.8470   -4.3730   36.9290 ca        1 S17     -0.102000
      6 CD2        -7.9110   -5.6060   36.2830 ca        1 S17     -0.124500
      7 CG         -7.8090   -5.6840   34.8890 ca        1 S17     -0.081300
      8 CB         -7.9040   -7.0000   34.2020 c3        1 S17     -0.042100
      9 CA         -6.5720   -7.7740   34.1350 c3        1 S17      0.063700
     10 C          -5.6600   -7.1050   33.1070 c         1 S17      0.601100
     11 O          -4.5850   -6.5310   33.2780 o         1 S17     -0.536000
     12 OAT        -6.1540   -7.2030   31.8360 os        1 S17     -0.438900
     13 CAA        -5.3520   -6.6460   30.7920 c3        1 S17      0.124700
     14 N          -5.9340   -7.9150   35.4160 n         1 S17     -0.559900
     15 CAV        -5.3450   -9.1110   35.8100 c         1 S17      0.659100
     16 OAC        -5.5350  -10.1590   35.1650 o         1 S17     -0.598100
     17 CAP        -4.5270   -9.0720   37.0880 c3        1 S17     -0.149400
     18 CAN        -3.8690  -10.4120   37.3460 c3        1 S17     -0.075400
     19 CAL        -3.1020  -10.4240   38.6510 c3        1 S17     -0.082400
     20 CAK        -3.9840  -10.6230   39.8670 c3        1 S17     -0.078400
     21 CAM        -4.4100  -12.0620   40.0730 c3        1 S17     -0.079400
     22 CAO        -3.2960  -12.9030   40.6600 c3        1 S17     -0.159400
     23 CAU        -3.7820  -14.2840   41.0350 c         1 S17      0.589100
     24 OAB        -3.7920  -14.6870   42.2090 o         1 S17     -0.560100
     25 NAR        -4.0900  -15.1820   39.9650 n         1 S17     -0.354400
     26 OAE        -4.8470  -16.2260   40.3100 oh        1 S17     -0.438100
     27 HD1        -7.5720   -4.5540   33.0530 ha        1 S17      0.141000
     28 HE1        -7.4530   -2.3550   34.1940 ha        1 S17      0.149000
     29 HE2        -7.9310   -4.3300   38.0260 ha        1 S17      0.149000
     30 HD2        -8.0520   -6.5240   36.8730 ha        1 S17      0.141000
     31 HBC1       -8.6530   -7.6450   34.7350 hc        1 S17      0.074700
     32 HBC2       -8.2600   -6.8620   33.1440 hc        1 S17      0.074700
     33 HA         -6.8000   -8.8130   33.7330 h1        1 S17      0.124700
     34 H          -5.6400   -7.0700   35.8510 hn        1 S17      0.320500
     35 HAA1       -5.9390   -6.8620   29.8660 h1        1 S17      0.052700
     36 HAA2       -5.2290   -5.5480   30.9540 h1        1 S17      0.052700
     37 HAA3       -4.3540   -7.1450   30.7720 h1        1 S17      0.052700
     38 HAP1       -3.7440   -8.2730   37.0070 hc        1 S17      0.068200
     39 HAP2       -5.2050   -8.8040   37.9410 hc        1 S17      0.068200
     40 HAN1       -4.6520  -11.2160   37.3430 hc        1 S17      0.060200
     41 HAN2       -3.1700  -10.6390   36.4980 hc        1 S17      0.060200
     42 HAL1       -2.3360  -11.2430   38.6110 hc        1 S17      0.044700
     43 HAL2       -2.5420   -9.4570   38.7610 hc        1 S17      0.044700
     44 HAK1       -3.4350  -10.2660   40.7790 hc        1 S17      0.045200
     45 HAK2       -4.9040   -9.9870   39.7660 hc        1 S17      0.045200
     46 HAM1       -5.2900  -12.0820   40.7710 hc        1 S17      0.048200
     47 HAM2       -4.7470  -12.4960   39.0950 hc        1 S17      0.048200
     48 HAO1       -2.4460  -12.9900   39.9320 hc        1 S17      0.078700
     49 HAO2       -2.8990  -12.4180   41.5920 hc        1 S17      0.078700
     50 HAR        -4.5440  -14.7190   39.1850 hn        1 S17      0.298500
     51 HAE        -4.2700  -16.8100   40.8420 ho        1 S17      0.435000
@<TRIPOS>BOND
     1    1    2 ar  
     2    1    7 ar  
     3    1   27 1   
     4    2    3 ar  
     5    2   28 1   
     6    3    4 1   
     7    3    5 ar  
     8    5    6 ar  
     9    5   29 1   
    10    6    7 ar  
    11    6   30 1   
    12    7    8 1   
    13    8    9 1   
    14    8   31 1   
    15    8   32 1   
    16    9   10 1   
    17    9   14 1   
    18    9   33 1   
    19   10   11 2   
    20   10   12 1   
    21   12   13 1   
    22   13   35 1   
    23   13   36 1   
    24   13   37 1   
    25   14   15 1   
    26   14   34 1   
    27   15   16 2   
    28   15   17 1   
    29   17   18 1   
    30   17   38 1   
    31   17   39 1   
    32   18   19 1   
    33   18   40 1   
    34   18   41 1   
    35   19   20 1   
    36   19   42 1   
    37   19   43 1   
    38   20   21 1   
    39   20   44 1   
    40   20   45 1   
    41   21   22 1   
    42   21   46 1   
    43   21   47 1   
    44   22   23 1   
    45   22   48 1   
    46   22   49 1   
    47   23   24 2   
    48   23   25 1   
    49   25   26 1   
    50   25   50 1   
    51   26   51 1   
@<TRIPOS>SUBSTRUCTURE
     1 S17         1 TEMP              0 ****  ****    0 ROOT
