@<TRIPOS>MOLECULE
S19
   49    51     1     0     0
SMALL
bcc


@<TRIPOS>ATOM
      1 C1          0.0430    1.2890    0.1000 c3        1 S19     -0.074800
      2 C2          1.4590    0.8620    0.0710 ca        1 S19     -0.022300
      3 C3          1.9720    0.0480    1.0910 ca        1 S19     -0.121000
      4 C4          3.3050   -0.3460    1.0890 ca        1 S19     -0.101500
      5 C5          4.1560    0.0800    0.0470 ca        1 S19      0.043600
      6 N6          5.5340   -0.2860    0.0990 nu        1 S19     -0.642300
      7 C7          6.2190   -0.9030   -0.8880 ca        1 S19      0.808200
      8 N8          5.5510   -1.2210   -2.0680 nb        1 S19     -0.775000
      9 C9          6.2160   -1.9070   -3.0280 ca        1 S19      0.931900
     10 N10         5.4820   -2.3110   -4.1600 nu        1 S19     -0.848900
     11 C11         6.1040   -2.3260   -5.4700 c3        1 S19      0.199500
     12 C12         5.2780   -1.5950   -6.5450 c3        1 S19     -0.138400
     13 C13         4.0130   -2.3460   -6.9130 c3        1 S19      0.105400
     14 O14         4.3130   -3.6810   -7.3180 os        1 S19     -0.360600
     15 C15         4.9430   -4.4390   -6.3100 c3        1 S19      0.112400
     16 C16         6.3090   -3.7870   -5.9870 c3        1 S19      0.058500
     17 N17         7.1000   -4.6140   -5.0270 nz        1 S19     -0.823600
     18 N18         7.5690   -2.3270   -2.9360 nb        1 S19     -0.819000
     19 C19         8.2120   -1.9580   -1.8440 ca        1 S19      0.555200
     20 C20         7.6460   -1.2200   -0.7640 ca        1 S19     -0.569200
     21 C21         8.3870   -0.8170    0.3890 c         1 S19      0.596700
     22 N22         9.9090   -0.9000    0.3240 nz        1 S19     -0.758400
     23 O23         8.0070   -0.3740    1.4710 o         1 S19     -0.465100
     24 C24         3.6490    0.8950   -0.9810 ca        1 S19     -0.101500
     25 C25         2.3110    1.2770   -0.9600 ca        1 S19     -0.121000
     26 H1         -0.6120    0.4750    0.4990 hc        1 S19      0.067033
     27 H1A        -0.0680    2.1840    0.7660 hc        1 S19      0.067033
     28 H1B        -0.3180    1.5680   -0.9210 hc        1 S19      0.067033
     29 H3          1.3100   -0.2840    1.9080 ha        1 S19      0.159500
     30 H4          3.6820   -0.9810    1.9060 ha        1 S19      0.143500
     31 HN6         5.9870   -0.1000    0.9750 hn        1 S19      0.485800
     32 HN10        4.5210   -2.0130   -4.1630 hn        1 S19      0.465800
     33 H11         7.1210   -1.8280   -5.4340 h1        1 S19      0.089700
     34 H12         5.0140   -0.5620   -6.1940 hc        1 S19      0.095200
     35 H12A        5.9260   -1.4860   -7.4570 hc        1 S19      0.095200
     36 H13         3.5270   -1.8990   -7.8250 h1        1 S19      0.088700
     37 H13A        3.2780   -2.3610   -6.0650 h1        1 S19      0.088700
     38 H15         4.3030   -4.5020   -5.3910 h1        1 S19      0.083700
     39 H15A        5.0720   -5.4580   -6.7690 h1        1 S19      0.083700
     40 H16         6.9070   -3.7170   -6.9480 hx        1 S19      0.132700
     41 HN17        7.9820   -4.1400   -4.8060 hn        1 S19      0.464467
     42 HN1A        7.2970   -5.5300   -5.4450 hn        1 S19      0.464467
     43 H19         9.2670   -2.2960   -1.8090 h4        1 S19      0.014100
     44 HN22       10.3000   -0.4640    1.1730 hn        1 S19      0.469133
     45 HN2A       10.2130   -1.8750    0.2880 hn        1 S19      0.469133
     46 H24         4.2970    1.2460   -1.7980 ha        1 S19      0.143500
     47 H25         1.9200    1.9230   -1.7620 ha        1 S19      0.159500
     48 H173        6.5710   -4.7510   -4.1600 hn        1 S19      0.464467
     49 H223       10.2580   -0.4040   -0.4990 hn        1 S19      0.469133
@<TRIPOS>BOND
     1    1    2 1   
     2    1   26 1   
     3    1   27 1   
     4    1   28 1   
     5    2    3 ar  
     6    2   25 ar  
     7    3    4 ar  
     8    3   29 1   
     9    4    5 ar  
    10    4   30 1   
    11    5    6 1   
    12    5   24 ar  
    13    6    7 1   
    14    6   31 1   
    15    7    8 ar  
    16    7   20 ar  
    17    8    9 ar  
    18    9   10 1   
    19    9   18 ar  
    20   10   11 1   
    21   10   32 1   
    22   11   12 1   
    23   11   16 1   
    24   11   33 1   
    25   12   13 1   
    26   12   34 1   
    27   12   35 1   
    28   13   14 1   
    29   13   36 1   
    30   13   37 1   
    31   14   15 1   
    32   15   16 1   
    33   15   38 1   
    34   15   39 1   
    35   16   17 1   
    36   16   40 1   
    37   17   41 1   
    38   17   42 1   
    39   17   48 1   
    40   18   19 ar  
    41   19   20 ar  
    42   19   43 1   
    43   20   21 1   
    44   21   22 1   
    45   21   23 2   
    46   22   44 1   
    47   22   45 1   
    48   22   49 1   
    49   24   25 ar  
    50   24   46 1   
    51   25   47 1   
@<TRIPOS>SUBSTRUCTURE
     1 S19         1 TEMP              0 ****  ****    0 ROOT
