@<TRIPOS>MOLECULE
S19
   49    51     1     0     0
SMALL
bcc


@<TRIPOS>ATOM
      1 C1          0.0790    1.4170    0.0350 c3        1 S19     -0.074800
      2 C2          1.4880    0.9670    0.0180 ca        1 S19     -0.022300
      3 C3          1.9860    0.1630    1.0540 ca        1 S19     -0.121000
      4 C4          3.3120   -0.2500    1.0640 ca        1 S19     -0.101500
      5 C5          4.1730    0.1430    0.0160 ca        1 S19      0.043600
      6 N6          5.5450   -0.2430    0.0790 nh        1 S19     -0.642300
      7 C7          6.2220   -0.8880   -0.8940 ca        1 S19      0.808200
      8 N8          5.5530   -1.2160   -2.0710 nb        1 S19     -0.775000
      9 C9          6.2090   -1.9300   -3.0160 ca        1 S19      0.931900
     10 N10         5.4730   -2.3420   -4.1430 nh        1 S19     -0.848900
     11 C11         6.0990   -2.3910   -5.4510 c3        1 S19      0.199500
     12 C12         5.2880   -1.6650   -6.5420 c3        1 S19     -0.138400
     13 C13         4.0110   -2.4020   -6.9000 c3        1 S19      0.105400
     14 O14         4.2910   -3.7480   -7.2800 os        1 S19     -0.360600
     15 C15         4.9050   -4.4990   -6.2570 c3        1 S19      0.112400
     16 C16         6.2800   -3.8630   -5.9410 c3        1 S19      0.058500
     17 N17         7.0550   -4.6860   -4.9650 n4        1 S19     -0.823600
     18 N18         7.5560   -2.3700   -2.9130 nb        1 S19     -0.819000
     19 C19         8.2010   -1.9920   -1.8250 ca        1 S19      0.555200
     20 C20         7.6440   -1.2260   -0.7610 ca        1 S19     -0.569200
     21 C21         8.3880   -0.8140    0.3880 c         1 S19      0.596700
     22 N22         9.9080   -0.9230    0.3280 n4        1 S19     -0.758400
     23 O23         8.0120   -0.3460    1.4600 o         1 S19     -0.465100
     24 C24         3.6820    0.9480   -1.0280 ca        1 S19     -0.101500
     25 C25         2.3490    1.3500   -1.0170 ca        1 S19     -0.121000
     26 H1         -0.0190    2.3290    0.6800 hc        1 S19      0.067033
     27 H1A        -0.5890    0.6230    0.4520 hc        1 S19      0.067033
     28 H1B        -0.2760    1.6770   -0.9930 hc        1 S19      0.067033
     29 H3          1.3160   -0.1430    1.8750 ha        1 S19      0.159500
     30 H4          3.6770   -0.8770    1.8930 ha        1 S19      0.143500
     31 HN6         5.9980   -0.0490    0.9530 hn        1 S19      0.485800
     32 HN10        4.5170   -2.0290   -4.1550 hn        1 S19      0.465800
     33 H11         7.1230   -1.9090   -5.4200 h1        1 S19      0.089700
     34 H12         5.0400   -0.6220   -6.2100 hc        1 S19      0.095200
     35 H12A        5.9400   -1.5830   -7.4530 hc        1 S19      0.095200
     36 H13         3.2740   -2.3900   -6.0550 h1        1 S19      0.088700
     37 H13A        3.5360   -1.9630   -7.8220 h1        1 S19      0.088700
     38 H15         4.2620   -4.5350   -5.3390 h1        1 S19      0.083700
     39 H15A        5.0190   -5.5280   -6.6980 h1        1 S19      0.083700
     40 H16         6.8820   -3.8200   -6.9010 hx        1 S19      0.132700
     41 HN17        7.9440   -4.2230   -4.7480 hn        1 S19      0.464467
     42 HN1A        7.2390   -5.6120   -5.3650 hn        1 S19      0.464467
     43 H19         9.2510   -2.3460   -1.7810 h4        1 S19      0.014100
     44 HN22       10.3040   -0.4770    1.1700 hn        1 S19      0.469133
     45 HN2A       10.2680   -0.4470   -0.5020 hn        1 S19      0.469133
     46 H24         4.3370    1.2740   -1.8490 ha        1 S19      0.143500
     47 H25         1.9710    1.9890   -1.8320 ha        1 S19      0.159500
     48 H173        6.5210   -4.7990   -4.0960 hn        1 S19      0.464467
     49 H223       10.1970   -1.9030    0.3110 hn        1 S19      0.469133
@<TRIPOS>BOND
     1    1    2 1   
     2    1   26 1   
     3    1   27 1   
     4    1   28 1   
     5    2    3 ar  
     6    2   25 ar  
     7    3    4 ar  
     8    3   29 1   
     9    4    5 ar  
    10    4   30 1   
    11    5    6 1   
    12    5   24 ar  
    13    6    7 1   
    14    6   31 1   
    15    7    8 ar  
    16    7   20 ar  
    17    8    9 ar  
    18    9   10 1   
    19    9   18 ar  
    20   10   11 1   
    21   10   32 1   
    22   11   12 1   
    23   11   16 1   
    24   11   33 1   
    25   12   13 1   
    26   12   34 1   
    27   12   35 1   
    28   13   14 1   
    29   13   36 1   
    30   13   37 1   
    31   14   15 1   
    32   15   16 1   
    33   15   38 1   
    34   15   39 1   
    35   16   17 1   
    36   16   40 1   
    37   17   41 1   
    38   17   42 1   
    39   17   48 1   
    40   18   19 ar  
    41   19   20 ar  
    42   19   43 1   
    43   20   21 1   
    44   21   22 1   
    45   21   23 2   
    46   22   44 1   
    47   22   45 1   
    48   22   49 1   
    49   24   25 ar  
    50   24   46 1   
    51   25   47 1   
@<TRIPOS>SUBSTRUCTURE
     1 S19         1 TEMP              0 ****  ****    0 ROOT
