@<TRIPOS>MOLECULE
S19
   47    49     1     0     0
SMALL
bcc


@<TRIPOS>ATOM
      1 C1         -4.0470    4.9500   -0.0440 c3        1 S19     -0.050800
      2 C2         -3.6580    3.5230    0.0180 ca        1 S19     -0.088300
      3 C3         -4.3260    2.5700   -0.7580 ca        1 S19     -0.118500
      4 C4         -3.9520    1.2330   -0.7230 ca        1 S19     -0.134000
      5 C5         -2.8900    0.8100    0.1080 ca        1 S19      0.133600
      6 N6         -2.5790   -0.5660    0.1860 nh        1 S19     -0.729300
      7 C7         -1.3040   -1.0910    0.0290 ca        1 S19      0.774200
      8 N8         -0.2270   -0.2510   -0.0590 nb        1 S19     -0.821000
      9 C9          1.0300   -0.8260   -0.1440 ca        1 S19      0.929900
     10 N10         2.1090    0.0540   -0.1350 nh        1 S19     -0.832900
     11 C11         3.4430   -0.3680   -0.5080 c3        1 S19      0.234500
     12 C12         4.2420   -0.9430    0.6740 c3        1 S19     -0.119400
     13 C13         4.6300    0.1340    1.6670 c3        1 S19      0.123400
     14 O14         5.3580    1.1870    1.0420 os        1 S19     -0.415600
     15 C15         4.6350    1.8180   -0.0030 c3        1 S19      0.129400
     16 C16         4.2890    0.8010   -1.1110 c3        1 S19      0.118500
     17 N17         3.6220    1.4390   -2.2280 n3        1 S19     -0.920800
     18 N18         1.2750   -2.2030   -0.1900 nb        1 S19     -0.791000
     19 C19         0.1990   -2.9870   -0.1120 ca        1 S19      0.516200
     20 C20        -1.1240   -2.5240    0.0110 ca        1 S19     -0.509200
     21 C21        -2.2580   -3.4650    0.0710 c         1 S19      0.704700
     22 N22        -2.0800   -4.6530    0.7410 n         1 S19     -0.670000
     23 O23        -3.3650   -3.2410   -0.4730 o         1 S19     -0.647100
     24 C24        -2.2250    1.7700    0.8980 ca        1 S19     -0.134000
     25 C25        -2.6080    3.1060    0.8420 ca        1 S19     -0.118500
     26 H1         -3.4760    5.4670   -0.8560 hc        1 S19      0.043033
     27 H1A        -5.1380    5.0580   -0.2620 hc        1 S19      0.043033
     28 H1B        -3.8260    5.4680    0.9220 hc        1 S19      0.043033
     29 H3         -5.1570    2.8830   -1.4090 ha        1 S19      0.132500
     30 H4         -4.4950    0.5050   -1.3470 ha        1 S19      0.144000
     31 HN6        -3.3300   -1.1850   -0.0630 hn        1 S19      0.471800
     32 HN10        1.8970    1.0230   -0.2620 hn        1 S19      0.458800
     33 H11         3.3770   -1.1780   -1.2970 h1        1 S19      0.065700
     34 H12         3.6490   -1.7360    1.1960 hc        1 S19      0.065700
     35 H12A        5.1660   -1.4210    0.2570 hc        1 S19      0.065700
     36 H13         3.7230    0.5560    2.1760 h1        1 S19      0.054700
     37 H13A        5.3450   -0.2640    2.4360 h1        1 S19      0.054700
     38 H15         3.7100    2.3040    0.4050 h1        1 S19      0.055200
     39 H15A        5.3390    2.6040   -0.3860 h1        1 S19      0.055200
     40 H16         5.2670    0.3160   -1.4240 h1        1 S19      0.036700
     41 HN17        4.1830    2.1820   -2.5940 hn        1 S19      0.360800
     42 HN1A        3.4290    0.7730   -2.9480 hn        1 S19      0.360800
     43 H19         0.4160   -4.0720   -0.1720 h4        1 S19      0.023100
     44 HN22       -1.2670   -4.8210    1.2740 hn        1 S19      0.312000
     45 HN2A       -2.8390   -5.2840    0.8120 hn        1 S19      0.312000
     46 H24        -1.3990    1.4750    1.5630 ha        1 S19      0.144000
     47 H25        -2.0770    3.8450    1.4620 ha        1 S19      0.132500
@<TRIPOS>BOND
     1    1    2 1   
     2    1   26 1   
     3    1   27 1   
     4    1   28 1   
     5    2    3 ar  
     6    2   25 ar  
     7    3    4 ar  
     8    3   29 1   
     9    4    5 ar  
    10    4   30 1   
    11    5    6 1   
    12    5   24 ar  
    13    6    7 1   
    14    6   31 1   
    15    7    8 ar  
    16    7   20 ar  
    17    8    9 ar  
    18    9   10 1   
    19    9   18 ar  
    20   10   11 1   
    21   10   32 1   
    22   11   12 1   
    23   11   16 1   
    24   11   33 1   
    25   12   13 1   
    26   12   34 1   
    27   12   35 1   
    28   13   14 1   
    29   13   36 1   
    30   13   37 1   
    31   14   15 1   
    32   15   16 1   
    33   15   38 1   
    34   15   39 1   
    35   16   17 1   
    36   16   40 1   
    37   17   41 1   
    38   17   42 1   
    39   18   19 ar  
    40   19   20 ar  
    41   19   43 1   
    42   20   21 1   
    43   21   22 1   
    44   21   23 2   
    45   22   44 1   
    46   22   45 1   
    47   24   25 ar  
    48   24   46 1   
    49   25   47 1   
@<TRIPOS>SUBSTRUCTURE
     1 S19         1 TEMP              0 ****  ****    0 ROOT
