@<TRIPOS>MOLECULE
S19
   51    53     1     0     0
SMALL
bcc


@<TRIPOS>ATOM
      1 C1          0.8780    0.8610    2.3260 c3        1 S19     -0.112800
      2 C2          1.9960    0.7780    1.3690 ca        1 S19      0.077700
      3 C3          3.2030    1.4600    1.6170 ca        1 S19     -0.111000
      4 C4          4.2480    1.4260    0.7070 ca        1 S19     -0.087000
      5 C5          4.0920    0.6940   -0.4920 ca        1 S19     -0.166400
      6 N6          5.1200    0.8070   -1.5340 n4        1 S19     -0.617100
      7 C7          5.8380   -0.4700   -1.8040 ca        1 S19      0.661200
      8 N8          5.4140   -1.1710   -2.8980 nb        1 S19     -0.667000
      9 C9          6.0500   -2.3530   -3.1760 ca        1 S19      0.813900
     10 N10         5.5520   -3.1370   -4.3600 n4        1 S19     -0.767700
     11 C11         6.6090   -3.3250   -5.4430 c3        1 S19      0.121500
     12 C12         6.9290   -1.9730   -6.1110 c3        1 S19     -0.152400
     13 C13         5.7850   -1.4710   -6.9800 c3        1 S19      0.087400
     14 O14         5.3870   -2.4490   -7.9310 os        1 S19     -0.312600
     15 C15         4.9660   -3.6670   -7.3670 c3        1 S19      0.102400
     16 C16         6.1810   -4.2690   -6.6050 c3        1 S19      0.022500
     17 N17         6.0170   -5.7170   -6.3000 n4        1 S19     -0.844600
     18 N18         7.0800   -2.8970   -2.4460 nb        1 S19     -0.624000
     19 C19         7.4860   -2.1930   -1.3740 ca        1 S19      0.535200
     20 C20         6.9090   -0.9540   -0.9820 ca        1 S19     -0.346200
     21 C21         7.4380   -0.1620    0.1490 c         1 S19      0.564700
     22 N22         8.2040   -0.8330    1.2430 n4        1 S19     -0.741400
     23 O23         7.3020    1.0500    0.2670 o         1 S19     -0.364100
     24 C24         2.8960   -0.0090   -0.7530 ca        1 S19     -0.087000
     25 C25         1.8690    0.0370    0.1770 ca        1 S19     -0.111000
     26 H1          0.2450    1.7610    2.0850 hc        1 S19      0.106700
     27 H1A         1.2430    0.9800    3.3790 hc        1 S19      0.106700
     28 H1B         0.2170   -0.0420    2.2730 hc        1 S19      0.106700
     29 H3          3.3080    2.0580    2.5440 ha        1 S19      0.201500
     30 H4          5.1620    2.0110    0.9130 ha        1 S19      0.152500
     31 HN6         4.6450    1.1320   -2.4020 hn        1 S19      0.507300
     32 HN10        4.7420   -2.6350   -4.7770 hn        1 S19      0.491800
     33 H11         7.5340   -3.7350   -4.9320 hx        1 S19      0.144700
     34 H12         7.1990   -1.2020   -5.3450 hc        1 S19      0.120700
     35 H12A        7.8470   -2.1220   -6.7530 hc        1 S19      0.120700
     36 H13         4.9040   -1.1460   -6.3650 h1        1 S19      0.107700
     37 H13A        6.1240   -0.6060   -7.6290 h1        1 S19      0.107700
     38 H15         4.6750   -4.2920   -8.2640 h1        1 S19      0.106200
     39 H15A        4.0840   -3.5400   -6.6890 h1        1 S19      0.106200
     40 H16         7.0660   -4.2100   -7.3370 hx        1 S19      0.193700
     41 HN17        5.1570   -5.9160   -5.7790 hn        1 S19      0.487133
     42 HN1A        5.9560   -6.2310   -7.2030 hn        1 S19      0.487133
     43 H19         8.3340   -2.6710   -0.8280 h4        1 S19      0.104100
     44 HN22        8.3790   -0.1430    2.0080 hn        1 S19      0.509800
     45 HN2A        9.1240   -1.1600    0.9090 hn        1 S19      0.509800
     46 H24         2.7510   -0.5660   -1.6920 ha        1 S19      0.152500
     47 H25         0.9210   -0.4970   -0.0280 ha        1 S19      0.201500
     48 H62         5.8150    1.5280   -1.2540 hn        1 S19      0.507300
     49 H102        5.2320   -4.0480   -4.0020 hn        1 S19      0.491800
     50 H173        6.8280   -6.0890   -5.7860 hn        1 S19      0.487133
     51 H223        7.6810   -1.6280    1.6400 hn        1 S19      0.509800
@<TRIPOS>BOND
     1    1    2 1   
     2    1   26 1   
     3    1   27 1   
     4    1   28 1   
     5    2    3 ar  
     6    2   25 ar  
     7    3    4 ar  
     8    3   29 1   
     9    4    5 ar  
    10    4   30 1   
    11    5    6 1   
    12    5   24 ar  
    13    6    7 1   
    14    6   31 1   
    15    6   48 1   
    16    7    8 ar  
    17    7   20 ar  
    18    8    9 ar  
    19    9   10 1   
    20    9   18 ar  
    21   10   11 1   
    22   10   32 1   
    23   10   49 1   
    24   11   12 1   
    25   11   16 1   
    26   11   33 1   
    27   12   13 1   
    28   12   34 1   
    29   12   35 1   
    30   13   14 1   
    31   13   36 1   
    32   13   37 1   
    33   14   15 1   
    34   15   16 1   
    35   15   38 1   
    36   15   39 1   
    37   16   17 1   
    38   16   40 1   
    39   17   41 1   
    40   17   42 1   
    41   17   50 1   
    42   18   19 ar  
    43   19   20 ar  
    44   19   43 1   
    45   20   21 1   
    46   21   22 1   
    47   21   23 2   
    48   22   44 1   
    49   22   45 1   
    50   22   51 1   
    51   24   25 ar  
    52   24   46 1   
    53   25   47 1   
@<TRIPOS>SUBSTRUCTURE
     1 S19         1 TEMP              0 ****  ****    0 ROOT
