@<TRIPOS>MOLECULE
S19
   47    45     1     0     0
SMALL
bcc


@<TRIPOS>ATOM
      1 C1         -3.1410    5.7530    0.1130 c3        1 S19     -0.176000
      2 C2         -2.3330    4.6470    0.6870 c2        1 S19     -0.081000
      3 C3         -2.9160    3.4260    0.9340 c1        1 S19     -0.122000
      4 C4         -2.1410    2.3670    1.4630 c1        1 S19     -0.113000
      5 C5         -0.7970    2.5620    1.7310 c1        1 S19      0.052000
      6 N6         -0.0040    1.4890    2.3240 n2        1 S19     -0.251000
      7 C7          0.6940    0.6240    1.5110 c2        1 S19      0.253000
      8 N8          0.0510   -0.2050    0.7230 n1        1 S19     -0.290000
      9 C9          0.7420   -1.0990   -0.0360 c1        1 S19      0.220000
     10 N10         0.0300   -2.0730   -0.8460 n3        1 S19     -0.249000
     11 C11         0.7990   -3.1840   -1.5490 c3        1 S19      0.014000
     12 C12         0.9050   -2.8620   -2.9760 c3        1 S19     -0.198000
     13 C13        -0.4410   -2.9380   -3.6900 c3        1 S19     -0.030000
     14 O14        -1.1260   -4.1990   -3.4490 os        1 S19     -0.270000
     15 C15        -1.2340   -4.5210   -2.0430 c3        1 S19     -0.027000
     16 C16         0.1130   -4.4460   -1.3190 c3        1 S19     -0.089000
     17 N17        -0.1260   -4.6100    0.1540 n3        1 S19     -0.348000
     18 N18         2.1050   -1.1330    0.0230 n1        1 S19     -0.258000
     19 C19         2.7440   -0.3140    0.8020 c1        1 S19      0.049000
     20 C20         2.0470    0.5880    1.5680 c2        1 S19     -0.351000
     21 C21         2.7940    1.5030    2.5630 c2        1 S19      0.378000
     22 N22         4.2120    1.5360    2.5780 n         1 S19     -0.431000
     23 O23         2.2120    2.1930    3.2360 o         1 S19     -0.407000
     24 C24        -0.2070    3.8010    1.4800 c2        1 S19     -0.156000
     25 C25        -0.9700    4.8420    0.9590 c2        1 S19     -0.116000
     26 H1         -4.0010    5.7950    0.5670 hc        1 S19      0.082667
     27 H1A        -2.6610    6.6080    0.2360 hc        1 S19      0.082667
     28 H1B        -3.2820    5.5940   -0.8300 hc        1 S19      0.082667
     29 H3         -3.9230    3.2820    0.7320 ha        1 S19      0.132000
     30 H4         -2.5660    1.4750    1.6440 ha        1 S19      0.150000
     31 HN6         0.0250    1.3910    3.2090 hn        1 S19      0.267000
     32 HN10       -0.9150   -1.9930   -0.9710 hn        1 S19      0.222000
     33 H11         1.7170   -3.2400   -1.1630 h1        1 S19      0.130000
     34 H12         1.2540   -1.9890   -3.0670 hc        1 S19      0.105500
     35 H12A        1.5360   -3.5100   -3.4070 hc        1 S19      0.105500
     36 H13        -0.2890   -2.8320   -4.6980 h1        1 S19      0.091500
     37 H13A       -1.0350   -2.1730   -3.3610 h1        1 S19      0.091500
     38 H15        -1.8860   -3.8700   -1.6000 h1        1 S19      0.094500
     39 H15A       -1.6060   -5.4770   -1.9480 h1        1 S19      0.094500
     40 H16         0.6810   -5.1750   -1.6290 h1        1 S19      0.071000
     41 HN17        0.6140   -4.9710    0.5450 hn        1 S19      0.155500
     42 HN1A       -0.8660   -5.1820    0.2920 hn        1 S19      0.155500
     43 H19         3.6690   -0.3390    0.8410 ha        1 S19      0.159000
     44 HN22        4.6550    0.8100    2.6260 hn        1 S19      0.225500
     45 HN2A        4.6750    2.3890    2.5910 hn        1 S19      0.225500
     46 H24         0.7450    3.9370    1.6700 ha        1 S19      0.139000
     47 H25        -0.5520    5.7190    0.7820 ha        1 S19      0.133000
@<TRIPOS>BOND
     1    1    2 1   
     2    1   26 1   
     3    1   27 1   
     4    1   28 1   
     5    2    3 1   
     6    2   25 1   
     7    3   29 1   
     8    4    5 1   
     9    4   30 1   
    10    5   24 1   
    11    6    7 1   
    12    6   31 1   
    13    7    8 1   
    14    7   20 1   
    15    9   10 1   
    16    9   18 1   
    17   10   11 1   
    18   10   32 1   
    19   11   12 1   
    20   11   16 1   
    21   11   33 1   
    22   12   13 1   
    23   12   34 1   
    24   12   35 1   
    25   13   14 1   
    26   13   36 1   
    27   13   37 1   
    28   14   15 1   
    29   15   16 1   
    30   15   38 1   
    31   15   39 1   
    32   16   17 1   
    33   16   40 1   
    34   17   41 1   
    35   17   42 1   
    36   19   20 1   
    37   19   43 1   
    38   20   21 1   
    39   21   22 1   
    40   21   23 1   
    41   22   44 1   
    42   22   45 1   
    43   24   25 1   
    44   24   46 1   
    45   25   47 1   
@<TRIPOS>SUBSTRUCTURE
     1 S19         1 TEMP              0 ****  ****    0 ROOT
