@<TRIPOS>MOLECULE
S1H
   64    63     1     0     0
SMALL
bcc


@<TRIPOS>ATOM
      1 N           2.2580    0.8590   -7.5330 n3        1 S1H     -0.875800
      2 CA          1.3990    0.6000   -6.3870 c3        1 S1H     -0.004500
      3 C           2.1610    0.4700   -5.0280 c         1 S1H      0.884600
      4 O           3.4060    0.6530   -5.0160 o         1 S1H     -0.837300
      5 CB          0.5080   -0.6400   -6.5820 c3        1 S1H      0.193400
      6 OG         -0.8330   -0.2380   -6.7990 os        1 S1H     -0.562500
      7 OXT         1.4690    0.2030   -4.0000 o         1 S1H     -0.837300
      8 C1         -1.6000    0.3700   -4.3730 c3        1 S1H     -0.424600
      9 C2         -2.0160   -0.2060   -3.0390 c3        1 S1H     -0.023400
     10 C3         -1.2140    0.4110   -1.9110 c3        1 S1H     -0.089400
     11 C4         -1.5790   -0.2070   -0.5790 c3        1 S1H     -0.073400
     12 C5         -0.7690    0.4050    0.5440 c3        1 S1H     -0.080400
     13 C6         -1.1180   -0.2180    1.8780 c3        1 S1H     -0.077400
     14 C7         -0.3070    0.3940    3.0000 c3        1 S1H     -0.079400
     15 C8         -0.6530   -0.2290    4.3350 c3        1 S1H     -0.078400
     16 C9          0.1590    0.3840    5.4550 c3        1 S1H     -0.079400
     17 C10        -0.1880   -0.2390    6.7910 c3        1 S1H     -0.078400
     18 C11         0.6260    0.3730    7.9110 c3        1 S1H     -0.079400
     19 C12         0.2790   -0.2490    9.2470 c3        1 S1H     -0.078400
     20 C13         1.0920    0.3630   10.3670 c3        1 S1H     -0.079400
     21 C14         0.7450   -0.2590   11.7020 c3        1 S1H     -0.079400
     22 C15         1.5580    0.3530   12.8230 c3        1 S1H     -0.080400
     23 C16         1.2160   -0.2630   14.1550 c3        1 S1H     -0.092100
     24 S1         -2.0380   -0.5480   -5.7000 s6        1 S1H      1.584500
     25 O1S        -1.9860   -1.9160   -5.4560 o         1 S1H     -0.681300
     26 O2S        -3.1720   -0.0310   -6.3190 o         1 S1H     -0.681300
     27 H           2.8780    1.6100   -7.2770 hn        1 S1H      0.334300
     28 H2          2.8390    0.0530   -7.6850 hn        1 S1H      0.334300
     29 HA          0.7210    1.4990   -6.2850 h1        1 S1H      0.058700
     30 HB2         0.5580   -1.2990   -5.6700 h1        1 S1H      0.053700
     31 HB3         0.7900   -1.2380   -7.4910 h1        1 S1H      0.053700
     32 H11        -1.9820    1.4220   -4.4470 h1        1 S1H      0.165700
     33 H12        -0.4570    0.4940   -4.3280 h1        1 S1H      0.165700
     34 H21        -1.8480   -1.3180   -3.0440 hc        1 S1H      0.039200
     35 H22        -3.1110   -0.0270   -2.8700 hc        1 S1H      0.039200
     36 H31        -1.4010    1.5160   -1.8810 hc        1 S1H      0.068200
     37 H32        -0.1160    0.2660   -2.1200 hc        1 S1H      0.068200
     38 H41        -1.3940   -1.3130   -0.6160 hc        1 S1H      0.030200
     39 H42        -2.6730   -0.0610   -0.3780 hc        1 S1H      0.030200
     40 H51        -0.9570    1.5100    0.5840 hc        1 S1H      0.045200
     41 H52         0.3240    0.2630    0.3340 hc        1 S1H      0.045200
     42 H61        -0.9290   -1.3230    1.8370 hc        1 S1H      0.034700
     43 H62        -2.2120   -0.0780    2.0860 hc        1 S1H      0.034700
     44 H71        -0.4950    1.4990    3.0400 hc        1 S1H      0.040700
     45 H72         0.7870    0.2530    2.7910 hc        1 S1H      0.040700
     46 H81        -0.4650   -1.3340    4.2940 hc        1 S1H      0.036700
     47 H82        -1.7470   -0.0890    4.5430 hc        1 S1H      0.036700
     48 H91        -0.0290    1.4890    5.4950 hc        1 S1H      0.039700
     49 H92         1.2520    0.2420    5.2470 hc        1 S1H      0.039700
     50 H101        0.0000   -1.3440    6.7500 hc        1 S1H      0.037700
     51 H102       -1.2810   -0.0980    6.9990 hc        1 S1H      0.037700
     52 H111        0.4380    1.4790    7.9510 hc        1 S1H      0.039700
     53 H112        1.7190    0.2310    7.7030 hc        1 S1H      0.039700
     54 H121        0.4660   -1.3540    9.2060 hc        1 S1H      0.038200
     55 H122       -0.8150   -0.1070    9.4550 hc        1 S1H      0.038200
     56 H131        0.9050    1.4690   10.4060 hc        1 S1H      0.039200
     57 H132        2.1850    0.2210   10.1580 hc        1 S1H      0.039200
     58 H141        0.9320   -1.3640   11.6620 hc        1 S1H      0.038700
     59 H142       -0.3480   -0.1160   11.9110 hc        1 S1H      0.038700
     60 H151        1.3710    1.4590   12.8600 hc        1 S1H      0.038200
     61 H152        2.6510    0.2110   12.6120 hc        1 S1H      0.038200
     62 H161        1.8270    0.2020   14.9670 hc        1 S1H      0.031033
     63 H162        0.1360   -0.1100   14.3950 hc        1 S1H      0.031033
     64 H163        1.4200   -1.3610   14.1460 hc        1 S1H      0.031033
@<TRIPOS>BOND
     1    1    2 1   
     2    1   27 1   
     3    1   28 1   
     4    2    3 1   
     5    2    5 1   
     6    2   29 1   
     7    3    4 1   
     8    3    7 1   
     9    5    6 1   
    10    5   30 1   
    11    5   31 1   
    12    6   24 1   
    13    8    9 1   
    14    8   24 1   
    15    8   32 1   
    16    8   33 1   
    17    9   10 1   
    18    9   34 1   
    19    9   35 1   
    20   10   11 1   
    21   10   36 1   
    22   10   37 1   
    23   11   12 1   
    24   11   38 1   
    25   11   39 1   
    26   12   13 1   
    27   12   40 1   
    28   12   41 1   
    29   13   14 1   
    30   13   42 1   
    31   13   43 1   
    32   14   15 1   
    33   14   44 1   
    34   14   45 1   
    35   15   16 1   
    36   15   46 1   
    37   15   47 1   
    38   16   17 1   
    39   16   48 1   
    40   16   49 1   
    41   17   18 1   
    42   17   50 1   
    43   17   51 1   
    44   18   19 1   
    45   18   52 1   
    46   18   53 1   
    47   19   20 1   
    48   19   54 1   
    49   19   55 1   
    50   20   21 1   
    51   20   56 1   
    52   20   57 1   
    53   21   22 1   
    54   21   58 1   
    55   21   59 1   
    56   22   23 1   
    57   22   60 1   
    58   22   61 1   
    59   23   62 1   
    60   23   63 1   
    61   23   64 1   
    62   24   25 2   
    63   24   26 2   
@<TRIPOS>SUBSTRUCTURE
     1 S1H         1 TEMP              0 ****  ****    0 ROOT
