@<TRIPOS>MOLECULE
S1P
   61    59     1     0     0
SMALL
bcc


@<TRIPOS>ATOM
      1 C1         -3.4550   -7.1260    1.4690 c3        1 S1P      0.060000
      2 O1         -3.9110   -8.4580    1.4280 os        1 S1P     -0.731000
      3 C2         -2.0850   -7.0820    2.1060 c3        1 S1P     -0.095000
      4 N2         -2.2050   -7.3040    3.5060 n3        1 S1P     -0.361000
      5 C3         -1.4590   -5.7280    1.8630 c3        1 S1P      0.054000
      6 O3         -0.1410   -5.8970    1.3970 oh        1 S1P     -0.375000
      7 C4         -1.4410   -4.9420    3.1540 c2        1 S1P     -0.140000
      8 C5         -0.9040   -3.7060    3.1840 c1        1 S1P     -0.239000
      9 C6         -0.3210   -3.1050    1.9240 c2        1 S1P     -0.116000
     10 C7          0.1920   -1.7130    2.2200 c3        1 S1P     -0.154000
     11 C8          0.6390   -1.0560    0.9330 c3        1 S1P     -0.158000
     12 C9          1.0890    0.3600    1.2190 c3        1 S1P     -0.158000
     13 C10         1.3960    1.0650   -0.0830 c3        1 S1P     -0.158000
     14 C11         1.6040    2.5400    0.1790 c3        1 S1P     -0.158000
     15 C12         2.0200    3.2270   -1.1040 c3        1 S1P     -0.158000
     16 C13         1.8420    4.7220   -0.9570 c3        1 S1P     -0.158000
     17 C14         2.2730    5.4090   -2.2340 c3        1 S1P     -0.158000
     18 C15         1.8020    6.8460   -2.2170 c3        1 S1P     -0.158000
     19 C16         2.2220    7.5300   -3.4990 c3        1 S1P     -0.158000
     20 C17         1.5410    8.8770   -3.5990 c3        1 S1P     -0.159000
     21 C18         1.8220    9.4850   -4.9560 c3        1 S1P     -0.209000
     22 P22        -5.3280   -8.7490    0.7920 p5        1 S1P      1.548500
     23 O23        -5.7870  -10.1300    1.1970 o         1 S1P     -0.929500
     24 O24        -6.3210   -7.7240    1.2840 o         1 S1P     -0.929500
     25 O25        -5.2300   -8.6730   -0.7130 o         1 S1P     -0.929500
     26 H1         -4.0770   -6.5830    1.9960 h1        1 S1P      0.030000
     27 H1A        -3.4030   -6.7710    0.5570 h1        1 S1P      0.030000
     28 H2         -1.5200   -7.7770    1.7130 h1        1 S1P      0.052000
     29 HN2        -2.9760   -7.7680    3.6760 hn        1 S1P      0.171000
     30 HN2A       -1.4860   -7.7890    3.8010 hn        1 S1P      0.171000
     31 H3         -1.9820   -5.2430    1.1940 h1        1 S1P      0.097000
     32 HO3        -0.1410   -6.4570    0.7060 ho        1 S1P      0.204000
     33 H4         -1.8170   -5.3300    3.9670 ha        1 S1P      0.214000
     34 H5         -0.8920   -3.1990    4.0170 ha        1 S1P      0.102000
     35 H6         -1.0130   -3.0580    1.2340 ha        1 S1P      0.082000
     36 H6A         0.4170   -3.6640    1.6070 ha        1 S1P      0.082000
     37 H7         -0.5230   -1.1820    2.6260 hc        1 S1P      0.071500
     38 H7A         0.9480   -1.7690    2.8380 hc        1 S1P      0.071500
     39 H8         -0.1060   -1.0390    0.2990 hc        1 S1P      0.075500
     40 H8A         1.3820   -1.5630    0.5490 hc        1 S1P      0.075500
     41 H9          1.8930    0.3400    1.7760 hc        1 S1P      0.075500
     42 H9A         0.3790    0.8390    1.6900 hc        1 S1P      0.075500
     43 H10         0.6480    0.9460   -0.7020 hc        1 S1P      0.076500
     44 H10A        2.2070    0.6860   -0.4760 hc        1 S1P      0.076500
     45 H11         2.3030    2.6570    0.8520 hc        1 S1P      0.077000
     46 H11A        0.7690    2.9350    0.5030 hc        1 S1P      0.077000
     47 H12         2.9600    3.0270   -1.2900 hc        1 S1P      0.077000
     48 H12A        1.4660    2.9030   -1.8420 hc        1 S1P      0.077000
     49 H13         2.3890    5.0440   -0.2130 hc        1 S1P      0.077500
     50 H13A        0.9010    4.9220   -0.7800 hc        1 S1P      0.077500
     51 H14         1.8810    4.9460   -3.0010 hc        1 S1P      0.078000
     52 H14A        3.2490    5.3860   -2.3030 hc        1 S1P      0.078000
     53 H15         0.8270    6.8690   -2.1390 hc        1 S1P      0.078000
     54 H15A        2.2000    7.3110   -1.4540 hc        1 S1P      0.078000
     55 H16         1.9640    6.9770   -4.2630 hc        1 S1P      0.078000
     56 H16A        3.1920    7.6550   -3.5000 hc        1 S1P      0.078000
     57 H17         0.5760    8.7640   -3.4850 hc        1 S1P      0.077000
     58 H17A        1.8850    9.4690   -2.9000 hc        1 S1P      0.077000
     59 H18         1.6650    8.8140   -5.6530 hc        1 S1P      0.069333
     60 H18A        2.7540    9.7840   -4.9930 hc        1 S1P      0.069333
     61 H18B        1.2270   10.2510   -5.1000 hc        1 S1P      0.069333
@<TRIPOS>BOND
     1    1    2 1   
     2    1    3 1   
     3    1   26 1   
     4    1   27 1   
     5    2   22 1   
     6    3    4 1   
     7    3    5 1   
     8    3   28 1   
     9    4   29 1   
    10    4   30 1   
    11    5    6 1   
    12    5    7 1   
    13    5   31 1   
    14    6   32 1   
    15    7    8 1   
    16    7   33 1   
    17    8   34 1   
    18    9   10 1   
    19    9   35 1   
    20    9   36 1   
    21   10   11 1   
    22   10   37 1   
    23   10   38 1   
    24   11   12 1   
    25   11   39 1   
    26   11   40 1   
    27   12   13 1   
    28   12   41 1   
    29   12   42 1   
    30   13   14 1   
    31   13   43 1   
    32   13   44 1   
    33   14   15 1   
    34   14   45 1   
    35   14   46 1   
    36   15   16 1   
    37   15   47 1   
    38   15   48 1   
    39   16   17 1   
    40   16   49 1   
    41   16   50 1   
    42   17   18 1   
    43   17   51 1   
    44   17   52 1   
    45   18   19 1   
    46   18   53 1   
    47   18   54 1   
    48   19   20 1   
    49   19   55 1   
    50   19   56 1   
    51   20   21 1   
    52   20   57 1   
    53   20   58 1   
    54   21   59 1   
    55   21   60 1   
    56   21   61 1   
    57   22   23 1   
    58   22   24 1   
    59   22   25 1   
@<TRIPOS>SUBSTRUCTURE
     1 S1P         1 TEMP              0 ****  ****    0 ROOT
