@<TRIPOS>MOLECULE
S1P
   62    61     1     0     0
SMALL
bcc


@<TRIPOS>ATOM
      1 C1          1.2440   -1.1370    0.0740 c3        1 S1P      0.157400
      2 O1          0.9180   -1.3710    1.4070 os        1 S1P     -0.577200
      3 C2          2.0180    0.2010   -0.0630 c3        1 S1P      0.146500
      4 N2          1.3460    1.3660    0.4850 n3        1 S1P     -0.902800
      5 C3          2.3410    0.3970   -1.5710 c3        1 S1P      0.169300
      6 O3          3.1590   -0.7080   -1.9480 oh        1 S1P     -0.597800
      7 C4          2.9710    1.7230   -1.8420 c2        1 S1P     -0.163200
      8 C5          4.2680    2.0390   -1.8750 c2        1 S1P     -0.182200
      9 C6          5.4150    1.1410   -1.6010 c3        1 S1P     -0.058200
     10 C7          6.2180    0.8680   -2.8590 c3        1 S1P     -0.070400
     11 C8          7.4350    0.0210   -2.5550 c3        1 S1P     -0.081400
     12 C9          8.2350   -0.2640   -3.8080 c3        1 S1P     -0.078400
     13 C10         9.4520   -1.1100   -3.5040 c3        1 S1P     -0.079400
     14 C11        10.2520   -1.3950   -4.7570 c3        1 S1P     -0.078400
     15 C12        11.4690   -2.2420   -4.4520 c3        1 S1P     -0.079400
     16 C13        12.2690   -2.5270   -5.7050 c3        1 S1P     -0.078400
     17 C14        13.4860   -3.3740   -5.3990 c3        1 S1P     -0.079400
     18 C15        14.2860   -3.6580   -6.6520 c3        1 S1P     -0.078400
     19 C16        15.5030   -4.5050   -6.3470 c3        1 S1P     -0.079400
     20 C17        16.3040   -4.7910   -7.5990 c3        1 S1P     -0.080400
     21 C18        17.5170   -5.6340   -7.3000 c3        1 S1P     -0.092100
     22 P22        -0.6940   -1.4970    1.7680 p5        1 S1P      1.421800
     23 O23        -0.8140   -1.8960    3.1830 o         1 S1P     -0.829500
     24 O24        -1.3770   -2.0780    0.5980 o         1 S1P     -0.829500
     25 O25        -0.9480    0.1250    1.8010 oh        1 S1P     -0.794400
     26 H1          1.9250   -1.9590   -0.2840 h1        1 S1P      0.041700
     27 H1A         0.3150   -1.1200   -0.5620 h1        1 S1P      0.041700
     28 H2          3.0000    0.0860    0.4810 h1        1 S1P      0.061700
     29 HN2        -0.9530    0.4620    2.6890 ho        1 S1P      0.425000
     30 HN2A        1.3030    1.2640    1.4830 hn        1 S1P      0.356800
     31 H3          1.3810    0.3310   -2.1650 h1        1 S1P      0.038700
     32 HO3         3.5110   -0.5020   -2.8210 ho        1 S1P      0.389000
     33 H4          2.2220    2.5220   -1.9970 ha        1 S1P      0.125000
     34 H5          4.5590    3.0790   -2.1050 ha        1 S1P      0.103000
     35 H6          6.0780    1.6340   -0.8390 hc        1 S1P      0.058700
     36 H6A         5.0670    0.1700   -1.1540 hc        1 S1P      0.058700
     37 H7          5.5700    0.3390   -3.6070 hc        1 S1P      0.032700
     38 H7A         6.5380    1.8370   -3.3230 hc        1 S1P      0.032700
     39 H8          8.0840    0.5490   -1.8070 hc        1 S1P      0.042700
     40 H8A         7.1110   -0.9460   -2.0870 hc        1 S1P      0.042700
     41 H9          7.5860   -0.7930   -4.5550 hc        1 S1P      0.036200
     42 H9A         8.5560    0.7030   -4.2780 hc        1 S1P      0.036200
     43 H10        10.1000   -0.5820   -2.7560 hc        1 S1P      0.040200
     44 H10A        9.1290   -2.0770   -3.0360 hc        1 S1P      0.040200
     45 H11        10.5740   -0.4280   -5.2260 hc        1 S1P      0.037700
     46 H11A        9.6030   -1.9240   -5.5040 hc        1 S1P      0.037700
     47 H12        11.1460   -3.2090   -3.9840 hc        1 S1P      0.040200
     48 H12A       12.1160   -1.7130   -3.7040 hc        1 S1P      0.040200
     49 H13        12.5920   -1.5600   -6.1730 hc        1 S1P      0.038700
     50 H13A       11.6210   -3.0550   -6.4520 hc        1 S1P      0.038700
     51 H14        13.1630   -4.3410   -4.9320 hc        1 S1P      0.039700
     52 H14A       14.1330   -2.8450   -4.6510 hc        1 S1P      0.039700
     53 H15        14.6090   -2.6910   -7.1200 hc        1 S1P      0.038700
     54 H15A       13.6380   -4.1870   -7.4000 hc        1 S1P      0.038700
     55 H16        15.1800   -5.4730   -5.8790 hc        1 S1P      0.039200
     56 H16A       16.1510   -3.9770   -5.5990 hc        1 S1P      0.039200
     57 H17        15.6540   -5.3180   -8.3470 hc        1 S1P      0.038200
     58 H17A       16.6250   -3.8220   -8.0660 hc        1 S1P      0.038200
     59 H18        18.0930   -5.8330   -8.2360 hc        1 S1P      0.031367
     60 H18A       18.1890   -5.1150   -6.5750 hc        1 S1P      0.031367
     61 H18B       17.2150   -6.6140   -6.8560 hc        1 S1P      0.031367
     62 H23         0.3980    1.3990    0.1520 hn        1 S1P      0.356800
@<TRIPOS>BOND
     1    1    2 1   
     2    1    3 1   
     3    1   26 1   
     4    1   27 1   
     5    2   22 1   
     6    3    4 1   
     7    3    5 1   
     8    3   28 1   
     9    4   30 1   
    10    4   62 1   
    11    5    6 1   
    12    5    7 1   
    13    5   31 1   
    14    6   32 1   
    15    7    8 2   
    16    7   33 1   
    17    8    9 1   
    18    8   34 1   
    19    9   10 1   
    20    9   35 1   
    21    9   36 1   
    22   10   11 1   
    23   10   37 1   
    24   10   38 1   
    25   11   12 1   
    26   11   39 1   
    27   11   40 1   
    28   12   13 1   
    29   12   41 1   
    30   12   42 1   
    31   13   14 1   
    32   13   43 1   
    33   13   44 1   
    34   14   15 1   
    35   14   45 1   
    36   14   46 1   
    37   15   16 1   
    38   15   47 1   
    39   15   48 1   
    40   16   17 1   
    41   16   49 1   
    42   16   50 1   
    43   17   18 1   
    44   17   51 1   
    45   17   52 1   
    46   18   19 1   
    47   18   53 1   
    48   18   54 1   
    49   19   20 1   
    50   19   55 1   
    51   19   56 1   
    52   20   21 1   
    53   20   57 1   
    54   20   58 1   
    55   21   59 1   
    56   21   60 1   
    57   21   61 1   
    58   22   23 1   
    59   22   24 1   
    60   22   25 1   
    61   25   29 1   
@<TRIPOS>SUBSTRUCTURE
     1 S1P         1 TEMP              0 ****  ****    0 ROOT
