@<TRIPOS>MOLECULE
S1P
   61    60     1     0     0
SMALL
bcc


@<TRIPOS>ATOM
      1 C1         -6.3430   -0.0540   -0.5190 c3        1 S1P      0.205400
      2 O1         -7.1350   -0.9450    0.1450 os        1 S1P     -0.557200
      3 C2         -4.9650    0.1690    0.1900 c3        1 S1P      0.102500
      4 N2         -5.0200    0.1600    1.6450 n3        1 S1P     -0.926800
      5 C3         -4.3500    1.4960   -0.3360 c3        1 S1P      0.164300
      6 O3         -4.2310    1.4870   -1.7600 oh        1 S1P     -0.647800
      7 C4         -2.9980    1.7510    0.2440 c2        1 S1P     -0.096200
      8 C5         -1.8870    1.9790   -0.4630 c2        1 S1P     -0.244200
      9 C6         -0.5670    2.2540    0.1540 c3        1 S1P     -0.027200
     10 C7          0.5110    1.3570   -0.4240 c3        1 S1P     -0.077400
     11 C8          1.8620    1.6520    0.1920 c3        1 S1P     -0.078400
     12 C9          2.9380    0.7560   -0.3840 c3        1 S1P     -0.079400
     13 C10         4.2890    1.0490    0.2320 c3        1 S1P     -0.078400
     14 C11         5.3640    0.1530   -0.3450 c3        1 S1P     -0.079400
     15 C12         6.7150    0.4460    0.2710 c3        1 S1P     -0.078400
     16 C13         7.7890   -0.4510   -0.3060 c3        1 S1P     -0.079400
     17 C14         9.1410   -0.1580    0.3100 c3        1 S1P     -0.078400
     18 C15        10.2150   -1.0540   -0.2680 c3        1 S1P     -0.079400
     19 C16        11.5660   -0.7620    0.3480 c3        1 S1P     -0.079400
     20 C17        12.6410   -1.6580   -0.2290 c3        1 S1P     -0.080400
     21 C18        13.9880   -1.3710    0.3820 c3        1 S1P     -0.091100
     22 P22        -8.5730   -0.1990    0.8230 p5        1 S1P      1.313900
     23 O23        -9.1280    0.5320   -0.3690 o         1 S1P     -0.929500
     24 O24        -9.3560   -1.3690    1.3390 o         1 S1P     -0.929500
     25 O25        -7.8780    0.6730    1.8410 o         1 S1P     -0.929500
     26 H1         -6.1000   -0.4580   -1.5520 h1        1 S1P     -0.015800
     27 H1A        -6.8600    0.9420   -0.6340 h1        1 S1P     -0.015800
     28 H2         -4.2740   -0.6650   -0.1270 h1        1 S1P      0.016700
     29 HN2        -5.7190    0.8310    1.9450 hn        1 S1P      0.377300
     30 HN2A       -5.3780   -0.7410    1.9170 hn        1 S1P      0.377300
     31 H3         -5.0300    2.3520   -0.0460 h1        1 S1P      0.055700
     32 HO3        -5.0880    1.2060   -2.1030 ho        1 S1P      0.421000
     33 H4         -2.9860    1.7400    1.3480 ha        1 S1P      0.135000
     34 H5         -1.9070    1.9760   -1.5640 ha        1 S1P      0.127000
     35 H6         -0.2890    3.3280   -0.0310 hc        1 S1P      0.025700
     36 H6A        -0.6100    2.1120    1.2670 hc        1 S1P      0.025700
     37 H7          0.2370    0.2850   -0.2420 hc        1 S1P      0.042200
     38 H7A         0.5640    1.5010   -1.5350 hc        1 S1P      0.042200
     39 H8          2.1310    2.7260    0.0140 hc        1 S1P      0.032700
     40 H8A         1.8070    1.5050    1.3030 hc        1 S1P      0.032700
     41 H9          2.6670   -0.3170   -0.2050 hc        1 S1P      0.039200
     42 H9A         2.9920    0.9020   -1.4950 hc        1 S1P      0.039200
     43 H10         4.5590    2.1230    0.0540 hc        1 S1P      0.036200
     44 H10A        4.2340    0.9020    1.3430 hc        1 S1P      0.036200
     45 H11         5.0930   -0.9210   -0.1660 hc        1 S1P      0.039200
     46 H11A        5.4180    0.2990   -1.4560 hc        1 S1P      0.039200
     47 H12         6.9850    1.5200    0.0930 hc        1 S1P      0.037200
     48 H12A        6.6600    0.2990    1.3820 hc        1 S1P      0.037200
     49 H13         7.5190   -1.5240   -0.1280 hc        1 S1P      0.039200
     50 H13A        7.8430   -0.3040   -1.4170 hc        1 S1P      0.039200
     51 H14         9.4110    0.9160    0.1320 hc        1 S1P      0.038200
     52 H14A        9.0860   -0.3040    1.4210 hc        1 S1P      0.038200
     53 H15         9.9440   -2.1280   -0.0890 hc        1 S1P      0.039200
     54 H15A       10.2680   -0.9080   -1.3790 hc        1 S1P      0.039200
     55 H16        11.8360    0.3120    0.1700 hc        1 S1P      0.038200
     56 H16A       11.5120   -0.9090    1.4590 hc        1 S1P      0.038200
     57 H17        12.3680   -2.7320   -0.0510 hc        1 S1P      0.038200
     58 H17A       12.6920   -1.5110   -1.3400 hc        1 S1P      0.038200
     59 H18        14.2890   -0.3120    0.1930 hc        1 S1P      0.030033
     60 H18A       13.9630   -1.5360    1.4860 hc        1 S1P      0.030033
     61 H18B       14.7660   -2.0410   -0.0570 hc        1 S1P      0.030033
@<TRIPOS>BOND
     1    1    2 1   
     2    1    3 1   
     3    1   26 1   
     4    1   27 1   
     5    2   22 1   
     6    3    4 1   
     7    3    5 1   
     8    3   28 1   
     9    4   29 1   
    10    4   30 1   
    11    5    6 1   
    12    5    7 1   
    13    5   31 1   
    14    6   32 1   
    15    7    8 2   
    16    7   33 1   
    17    8    9 1   
    18    8   34 1   
    19    9   10 1   
    20    9   35 1   
    21    9   36 1   
    22   10   11 1   
    23   10   37 1   
    24   10   38 1   
    25   11   12 1   
    26   11   39 1   
    27   11   40 1   
    28   12   13 1   
    29   12   41 1   
    30   12   42 1   
    31   13   14 1   
    32   13   43 1   
    33   13   44 1   
    34   14   15 1   
    35   14   45 1   
    36   14   46 1   
    37   15   16 1   
    38   15   47 1   
    39   15   48 1   
    40   16   17 1   
    41   16   49 1   
    42   16   50 1   
    43   17   18 1   
    44   17   51 1   
    45   17   52 1   
    46   18   19 1   
    47   18   53 1   
    48   18   54 1   
    49   19   20 1   
    50   19   55 1   
    51   19   56 1   
    52   20   21 1   
    53   20   57 1   
    54   20   58 1   
    55   21   59 1   
    56   21   60 1   
    57   21   61 1   
    58   22   23 1   
    59   22   24 1   
    60   22   25 1   
@<TRIPOS>SUBSTRUCTURE
     1 S1P         1 TEMP              0 ****  ****    0 ROOT
