@<TRIPOS>MOLECULE
S1P
   62    61     1     0     0
SMALL
bcc


@<TRIPOS>ATOM
      1 C1          0.6480    0.1450   -1.0630 c3        1 S1P      0.154400
      2 O1         -0.2140   -0.1950   -0.0270 os        1 S1P     -0.576200
      3 C2          1.9830    0.6850   -0.4830 c3        1 S1P      0.111500
      4 N2          1.8700    1.9270    0.2600 n8        1 S1P     -0.897800
      5 C3          2.9970    0.8170   -1.6510 c3        1 S1P      0.170300
      6 O3          3.1490   -0.4130   -2.3450 oh        1 S1P     -0.605800
      7 C4          4.3040    1.3660   -1.1750 c2        1 S1P     -0.143200
      8 C5          5.3280    0.7230   -0.6100 c2        1 S1P     -0.187200
      9 C6          5.4140   -0.7200   -0.2840 c3        1 S1P     -0.040200
     10 C7          6.0030   -1.5420   -1.4150 c3        1 S1P     -0.081400
     11 C8          7.4760   -1.2590   -1.6150 c3        1 S1P     -0.075400
     12 C9          8.0380   -2.0630   -2.7680 c3        1 S1P     -0.079400
     13 C10         9.5130   -1.7870   -2.9650 c3        1 S1P     -0.078400
     14 C11        10.0740   -2.5890   -4.1190 c3        1 S1P     -0.079400
     15 C12        11.5500   -2.3140   -4.3150 c3        1 S1P     -0.078400
     16 C13        12.1110   -3.1170   -5.4680 c3        1 S1P     -0.079400
     17 C14        13.5870   -2.8430   -5.6640 c3        1 S1P     -0.078400
     18 C15        14.1480   -3.6460   -6.8170 c3        1 S1P     -0.079400
     19 C16        15.6230   -3.3730   -7.0120 c3        1 S1P     -0.079400
     20 C17        16.1860   -4.1760   -8.1660 c3        1 S1P     -0.080400
     21 C18        17.6550   -3.9060   -8.3640 c3        1 S1P     -0.092100
     22 P22        -1.6490    0.6320    0.0540 p5        1 S1P      1.421800
     23 O23        -2.4720    0.0100    1.1070 o         1 S1P     -0.828500
     24 O24        -2.0390    0.9810   -1.3250 o         1 S1P     -0.828500
     25 O25        -1.0050    1.9490    0.7910 oh        1 S1P     -0.794400
     26 H1          0.8790   -0.7840   -1.6580 h1        1 S1P      0.040200
     27 H1A         0.1750    0.9070   -1.7430 h1        1 S1P      0.040200
     28 H2          2.3810   -0.0970    0.2290 h1        1 S1P      0.050700
     29 HN2        -1.1710    1.9450    1.7270 ho        1 S1P      0.426000
     30 HN2A        1.3770    1.7450    1.1170 hn        1 S1P      0.357300
     31 H3          2.5730    1.5060   -2.4400 h1        1 S1P      0.072700
     32 HO3         3.2140   -1.1170   -1.6890 ho        1 S1P      0.398000
     33 H4          4.3700    2.4620   -1.3020 ha        1 S1P      0.119000
     34 H5          6.2270    1.2990   -0.3280 ha        1 S1P      0.104000
     35 H6          6.0480   -0.8490    0.6360 hc        1 S1P      0.039700
     36 H6A         4.3950   -1.1210   -0.0310 hc        1 S1P      0.039700
     37 H7          5.8620   -2.6310   -1.1880 hc        1 S1P      0.047200
     38 H7A         5.4410   -1.3200   -2.3630 hc        1 S1P      0.047200
     39 H8          8.0390   -1.5050   -0.6760 hc        1 S1P      0.037700
     40 H8A         7.6210   -0.1640   -1.8120 hc        1 S1P      0.037700
     41 H9          7.4790   -1.8110   -3.7080 hc        1 S1P      0.040200
     42 H9A         7.8820   -3.1570   -2.5760 hc        1 S1P      0.040200
     43 H10         9.6670   -0.6920   -3.1580 hc        1 S1P      0.037700
     44 H10A       10.0710   -2.0380   -2.0250 hc        1 S1P      0.037700
     45 H11         9.5170   -2.3360   -5.0590 hc        1 S1P      0.039200
     46 H11A        9.9180   -3.6830   -3.9270 hc        1 S1P      0.039200
     47 H12        11.7060   -1.2200   -4.5070 hc        1 S1P      0.038200
     48 H12A       12.1070   -2.5670   -3.3740 hc        1 S1P      0.038200
     49 H13        11.9540   -4.2110   -5.2770 hc        1 S1P      0.039200
     50 H13A       11.5540   -2.8640   -6.4090 hc        1 S1P      0.039200
     51 H14        14.1440   -3.0960   -4.7230 hc        1 S1P      0.038200
     52 H14A       13.7430   -1.7490   -5.8560 hc        1 S1P      0.038200
     53 H15        13.9900   -4.7400   -6.6250 hc        1 S1P      0.039200
     54 H15A       13.5910   -3.3930   -7.7580 hc        1 S1P      0.039200
     55 H16        16.1800   -3.6250   -6.0720 hc        1 S1P      0.038700
     56 H16A       15.7810   -2.2790   -7.2050 hc        1 S1P      0.038700
     57 H17        15.6260   -3.9230   -9.1050 hc        1 S1P      0.038200
     58 H17A       16.0260   -5.2700   -7.9720 hc        1 S1P      0.038200
     59 H18        17.8310   -2.8250   -8.5830 hc        1 S1P      0.031033
     60 H18A       18.0490   -4.5080   -9.2180 hc        1 S1P      0.031033
     61 H18B       18.2320   -4.1750   -7.4470 hc        1 S1P      0.031033
     62 H23         1.3170    2.5840   -0.2620 hn        1 S1P      0.357300
@<TRIPOS>BOND
     1    1    2 1   
     2    1    3 1   
     3    1   26 1   
     4    1   27 1   
     5    2   22 1   
     6    3    4 1   
     7    3    5 1   
     8    3   28 1   
     9    4   30 1   
    10    4   62 1   
    11    5    6 1   
    12    5    7 1   
    13    5   31 1   
    14    6   32 1   
    15    7    8 2   
    16    7   33 1   
    17    8    9 1   
    18    8   34 1   
    19    9   10 1   
    20    9   35 1   
    21    9   36 1   
    22   10   11 1   
    23   10   37 1   
    24   10   38 1   
    25   11   12 1   
    26   11   39 1   
    27   11   40 1   
    28   12   13 1   
    29   12   41 1   
    30   12   42 1   
    31   13   14 1   
    32   13   43 1   
    33   13   44 1   
    34   14   15 1   
    35   14   45 1   
    36   14   46 1   
    37   15   16 1   
    38   15   47 1   
    39   15   48 1   
    40   16   17 1   
    41   16   49 1   
    42   16   50 1   
    43   17   18 1   
    44   17   51 1   
    45   17   52 1   
    46   18   19 1   
    47   18   53 1   
    48   18   54 1   
    49   19   20 1   
    50   19   55 1   
    51   19   56 1   
    52   20   21 1   
    53   20   57 1   
    54   20   58 1   
    55   21   59 1   
    56   21   60 1   
    57   21   61 1   
    58   22   23 1   
    59   22   24 1   
    60   22   25 1   
    61   25   29 1   
@<TRIPOS>SUBSTRUCTURE
     1 S1P         1 TEMP              0 ****  ****    0 ROOT
