@<TRIPOS>MOLECULE
S1T
   49    50     1     0     0
SMALL
bcc


@<TRIPOS>ATOM
      1 N1'         0.0000    0.0000    0.0000 nb        1 S1T     -0.675000
      2 C2'         1.3180    0.0000    0.0000 ca        1 S1T      0.487300
      3 CM2         2.0510    0.0010   -1.3170 c3        1 S1T     -0.006400
      4 N3'         2.0120    0.0000    1.1200 nb        1 S1T     -0.628000
      5 C4'         1.3980   -0.0010    2.2990 ca        1 S1T      0.391200
      6 N4'         2.1310    0.0000    3.4750 nv        1 S1T     -0.636500
      7 C5'         0.0020   -0.0010    2.3350 ca        1 S1T     -0.421900
      8 C6'        -0.6830   -0.0010    1.1360 ca        1 S1T      0.473200
      9 C7'        -0.7370   -0.0010    3.6480 c3        1 S1T      0.135200
     10 C3         -2.2180   -0.1200    3.3900 cc        1 S1T     -0.073300
     11 C2         -2.8420   -1.2970    3.3240 cd        1 S1T     -0.067400
     12 S1         -4.5540   -1.0400    3.0110 ss        1 S1T     -0.281800
     13 C5         -4.3170    0.7030    2.9870 cd        1 S1T      0.096600
     14 C4         -3.0330    0.9850    3.2100 cc        1 S1T     -0.156300
     15 CM4        -2.5080    2.3960    3.2570 c3        1 S1T      0.074200
     16 C6         -5.4030    1.7240    2.7570 c3        1 S1T      0.018900
     17 C7         -5.5190    2.0150    1.2600 c3        1 S1T      0.308400
     18 O7         -6.5480    2.9820    1.0410 os        1 S1T     -0.503200
     19 PA         -6.9440    3.5260   -0.4220 p5        1 S1T      0.919800
     20 O1A        -7.2750    2.3820   -1.3000 o         1 S1T     -0.691500
     21 O2A        -5.7040    4.3410   -1.0460 o         1 S1T     -0.691500
     22 O3A        -8.2210    4.4990   -0.3040 os        1 S1T     -0.475800
     23 PB         -9.3280    5.0210   -1.3500 p5        1 S1T      0.808900
     24 O1B        -9.8060    3.8870   -2.1720 o         1 S1T     -0.667833
     25 O2B       -10.5680    5.6590   -0.5450 o         1 S1T     -0.667833
     26 O3B        -8.6780    6.1410   -2.3080 o         1 S1T     -0.667833
     27 CP1        -2.1820   -2.6410    3.4910 c3        1 S1T      0.288400
     28 CP2        -2.0450   -3.3160    2.1240 c3        1 S1T     -0.033100
     29 OP1        -2.9780   -3.4600    4.3480 oh        1 S1T     -0.585800
     30 HP1        -2.4400   -3.8090    5.0390 ho        1 S1T      0.366000
     31 H1         -1.2000   -2.5090    3.9280 h1        1 S1T      0.004700
     32 H61        -5.1580    2.6370    3.2850 hc        1 S1T      0.019200
     33 H62        -6.3460    1.3370    3.1240 hc        1 S1T      0.019200
     34 H71        -5.7640    1.1010    0.7320 h1        1 S1T     -0.019300
     35 H72        -4.5760    2.4020    0.8930 h1        1 S1T     -0.019300
     36 HM41       -3.2760    3.0540    3.6460 hc        1 S1T      0.012033
     37 HM42       -2.2330    2.7130    2.2590 hc        1 S1T      0.012033
     38 HM43       -1.6390    2.4370    3.9020 hc        1 S1T      0.012033
     39 H7'1       -0.4060   -0.8400    4.2490 hc        1 S1T      0.006200
     40 H7'2       -0.5350    0.9230    4.1760 hc        1 S1T      0.006200
     41 H6'        -1.7540   -0.1670    1.1240 h4        1 S1T      0.001100
     42 HM21        2.9080   -0.6600   -1.2540 hc        1 S1T     -0.006633
     43 HM22        2.3870    1.0060   -1.5430 hc        1 S1T     -0.006633
     44 HM23        1.3870   -0.3430   -2.1000 hc        1 S1T     -0.006633
     45 H4'1        2.4760   -0.8610    3.8500 hn        1 S1T      0.242300
     46 H4'2        2.3680    0.8670    3.9160 hn        1 S1T      0.242300
     47 HP21       -2.4200   -2.6520    1.3540 hc        1 S1T      0.015033
     48 HP22       -2.6160   -4.2360    2.1170 hc        1 S1T      0.015033
     49 HP23       -1.0020   -3.5370    1.9330 hc        1 S1T      0.015033
@<TRIPOS>BOND
     1    1    2 ar  
     2    1    8 ar  
     3    2    3 1   
     4    2    4 ar  
     5    3   42 1   
     6    3   43 1   
     7    3   44 1   
     8    4    5 ar  
     9    5    6 1   
    10    5    7 ar  
    11    6   45 1   
    12    6   46 1   
    13    7    8 ar  
    14    7    9 1   
    15    8   41 1   
    16    9   10 1   
    17    9   39 1   
    18    9   40 1   
    19   10   11 2   
    20   10   14 1   
    21   11   12 1   
    22   11   27 1   
    23   12   13 1   
    24   13   14 2   
    25   13   16 1   
    26   14   15 1   
    27   15   36 1   
    28   15   37 1   
    29   15   38 1   
    30   16   17 1   
    31   16   32 1   
    32   16   33 1   
    33   17   18 1   
    34   17   34 1   
    35   17   35 1   
    36   18   19 1   
    37   19   20 1   
    38   19   21 1   
    39   19   22 1   
    40   22   23 1   
    41   23   24 1   
    42   23   25 1   
    43   23   26 1   
    44   27   28 1   
    45   27   29 1   
    46   27   31 1   
    47   28   47 1   
    48   28   48 1   
    49   28   49 1   
    50   29   30 1   
@<TRIPOS>SUBSTRUCTURE
     1 S1T         1 TEMP              0 ****  ****    0 ROOT
