@<TRIPOS>MOLECULE
S1Y
   51    52     1     0     0
SMALL
bcc


@<TRIPOS>ATOM
      1 S1         -6.0610   -0.0640   -0.3850 s6        1 S1Y      1.531700
      2 O2         -6.4840   -1.1590   -1.1850 o         1 S1Y     -0.742867
      3 O3         -6.3570    1.1920   -0.9860 o         1 S1Y     -0.742867
      4 O4         -6.4790   -0.1250    0.9730 o         1 S1Y     -0.742867
      5 N5         -4.3580   -0.1720   -0.3620 n3        1 S1Y     -0.897100
      6 C6         -3.5490    0.3930    0.6510 c3        1 S1Y      0.272500
      7 C7         -3.0410    1.8310    0.3400 c3        1 S1Y     -0.133400
      8 C8         -1.5880    1.6780   -0.1130 c3        1 S1Y      0.071000
      9 N9         -1.1370    0.3400    0.2530 n         1 S1Y     -0.437800
     10 C10        -2.2070   -0.3830    0.9510 c3        1 S1Y     -0.051300
     11 C11        -2.3020   -1.8390    0.5260 c         1 S1Y      0.607900
     12 O12        -2.4750   -2.7360    1.3480 o         1 S1Y     -0.530100
     13 C13         0.1930    0.1230    0.6710 c         1 S1Y      0.732100
     14 O14         0.4800   -0.8190    1.4490 o         1 S1Y     -0.636100
     15 N15         1.2120    0.9730    0.1760 n         1 S1Y     -0.538900
     16 C16         2.5830    0.4870    0.1980 c3        1 S1Y      0.088700
     17 C17         2.9820   -0.2680   -1.0850 c3        1 S1Y     -0.093400
     18 C18         3.9580   -1.3910   -0.8250 c3        1 S1Y     -0.068400
     19 C19         5.0510   -1.0920    0.1980 c3        1 S1Y      0.175800
     20 N20         5.6070    0.2520    0.1090 n3        1 S1Y     -0.749600
     21 C21         7.0510    0.2870    0.2750 c3        1 S1Y      0.180800
     22 C22         7.7890   -0.1590   -1.0090 c3        1 S1Y      0.150800
     23 N23         9.2240   -0.1280   -0.8470 n3        1 S1Y     -0.917800
     24 C24         4.9110    1.2090    0.9570 c3        1 S1Y      0.184800
     25 C25         3.5540    1.6590    0.4230 c3        1 S1Y     -0.078400
     26 HN5        -3.8710   -0.4390   -1.1770 hn        1 S1Y      0.396800
     27 H6         -4.1560    0.4100    1.6040 h1        1 S1Y      0.094700
     28 H7         -3.6600    2.3250   -0.4480 hc        1 S1Y      0.065700
     29 H7A        -3.0950    2.4500    1.2680 hc        1 S1Y      0.065700
     30 H8         -1.5060    1.7730   -1.2320 h1        1 S1Y      0.036200
     31 H8A        -0.9540    2.4810    0.3530 h1        1 S1Y      0.036200
     32 H10        -2.0230   -0.3570    2.0660 h1        1 S1Y      0.073700
     33 H11        -2.2180   -2.0430   -0.5630 h4        1 S1Y      0.001200
     34 HN15        0.9870    1.5140   -0.6300 hn        1 S1Y      0.285500
     35 H16         2.6670   -0.2230    1.0770 h1        1 S1Y      0.093700
     36 H17         2.0720   -0.7100   -1.5740 hc        1 S1Y      0.045200
     37 H17A        3.4270    0.4560   -1.8170 hc        1 S1Y      0.045200
     38 H18         3.3990   -2.2910   -0.4530 hc        1 S1Y      0.042200
     39 H18A        4.4370   -1.6710   -1.8010 hc        1 S1Y      0.042200
     40 H19         4.6320   -1.2850    1.2320 h1        1 S1Y      0.030200
     41 H19A        5.8720   -1.8510    0.0410 h1        1 S1Y      0.030200
     42 H21         7.3730    1.3410    0.5070 h1        1 S1Y      0.032700
     43 H21A        7.3860   -0.3640    1.1360 h1        1 S1Y      0.032700
     44 H22         7.4140   -1.1810   -1.3130 h1        1 S1Y      0.034200
     45 H22A        7.5270    0.5520   -1.8430 h1        1 S1Y      0.034200
     46 HN23        9.5090   -0.6780   -0.0610 hn        1 S1Y      0.345300
     47 HN2A        9.6700   -0.4820   -1.6700 hn        1 S1Y      0.345300
     48 H24         4.7630    0.7980    2.0010 h1        1 S1Y      0.029700
     49 H24A        5.5460    2.1370    1.0520 h1        1 S1Y      0.029700
     50 H25         3.6890    2.2270   -0.5330 hc        1 S1Y      0.049700
     51 H25A        3.1290    2.3680    1.1830 hc        1 S1Y      0.049700
@<TRIPOS>BOND
     1    1    2 1   
     2    1    3 1   
     3    1    4 1   
     4    1    5 1   
     5    5    6 1   
     6    5   26 1   
     7    6    7 1   
     8    6   10 1   
     9    6   27 1   
    10    7    8 1   
    11    7   28 1   
    12    7   29 1   
    13    8    9 1   
    14    8   30 1   
    15    8   31 1   
    16    9   10 1   
    17    9   13 1   
    18   10   11 1   
    19   10   32 1   
    20   11   12 2   
    21   11   33 1   
    22   13   14 2   
    23   13   15 1   
    24   15   16 1   
    25   15   34 1   
    26   16   17 1   
    27   16   25 1   
    28   16   35 1   
    29   17   18 1   
    30   17   36 1   
    31   17   37 1   
    32   18   19 1   
    33   18   38 1   
    34   18   39 1   
    35   19   20 1   
    36   19   40 1   
    37   19   41 1   
    38   20   21 1   
    39   20   24 1   
    40   21   22 1   
    41   21   42 1   
    42   21   43 1   
    43   22   23 1   
    44   22   44 1   
    45   22   45 1   
    46   23   46 1   
    47   23   47 1   
    48   24   25 1   
    49   24   48 1   
    50   24   49 1   
    51   25   50 1   
    52   25   51 1   
@<TRIPOS>SUBSTRUCTURE
     1 S1Y         1 TEMP              0 ****  ****    0 ROOT
