@<TRIPOS>MOLECULE
S1Y
   54    54     1     0     0
SMALL
bcc


@<TRIPOS>ATOM
      1 S1          0.2300    1.8050   -3.4690 s4        1 S1Y      1.839000
      2 O2         -0.6300    2.8170   -3.8190 o         1 S1Y     -0.585400
      3 O3          1.4400    2.1380   -2.9820 o         1 S1Y     -0.585400
      4 O4         -0.1510    0.5420   -3.7460 o         1 S1Y     -0.705200
      5 N5         -0.6520    1.4980   -1.1210 n3        1 S1Y     -1.001800
      6 C6         -2.0520    1.6960   -0.7610 c3        1 S1Y      0.157500
      7 C7         -3.0090    1.0750   -1.8050 c3        1 S1Y     -0.101400
      8 C8         -3.4760    2.2430   -2.6850 c3        1 S1Y      0.052000
      9 N9         -3.3020    3.4640   -1.9010 n         1 S1Y     -0.409800
     10 C10        -2.4930    3.2030   -0.7020 c3        1 S1Y     -0.052300
     11 C11        -1.3260    4.1450   -0.4590 c         1 S1Y      0.573900
     12 O12        -0.9930    4.9990   -1.2820 o         1 S1Y     -0.544100
     13 C13        -3.1950    4.7320   -2.4900 c         1 S1Y      0.666100
     14 O14        -3.7160    5.7510   -2.0460 o         1 S1Y     -0.435100
     15 N15        -2.4240    4.8960   -3.8070 n4        1 S1Y     -0.676800
     16 C16        -2.6100    6.2470   -4.4470 c3        1 S1Y      0.141500
     17 C17        -1.7020    7.2960   -3.7860 c3        1 S1Y     -0.087400
     18 C18        -2.3440    8.6630   -3.7480 c3        1 S1Y     -0.078400
     19 C19        -3.1010    9.0870   -5.0050 c3        1 S1Y      0.161800
     20 N20        -2.4820    8.6620   -6.2560 n3        1 S1Y     -0.757600
     21 C21        -2.5070    9.6790   -7.2880 c3        1 S1Y      0.171800
     22 C22        -1.2920   10.6300   -7.1240 c3        1 S1Y      0.083800
     23 N23        -1.2790   11.7040   -8.1570 n4        1 S1Y     -0.836600
     24 C24        -2.9380    7.3550   -6.7110 c3        1 S1Y      0.185800
     25 C25        -2.3300    6.1740   -5.9520 c3        1 S1Y     -0.102400
     26 HN5        -0.0460    1.9710   -0.4730 hn        1 S1Y      0.399300
     27 H6         -2.2670    1.2480    0.2550 h1        1 S1Y      0.088700
     28 H7         -3.8800    0.6120   -1.2750 hc        1 S1Y      0.101700
     29 H7A        -2.5240    0.2840   -2.4310 hc        1 S1Y      0.101700
     30 H8         -4.5720    2.1520   -2.9260 h1        1 S1Y      0.076700
     31 H8A        -2.8890    2.2430   -3.6450 h1        1 S1Y      0.076700
     32 H10        -3.2040    3.3230    0.1750 h1        1 S1Y      0.134700
     33 H11        -0.8150    4.0170    0.5200 h4        1 S1Y      0.061200
     34 HN15       -1.4220    4.7600   -3.5720 hn        1 S1Y      0.475800
     35 H16        -3.6930    6.5310   -4.2800 hx        1 S1Y      0.109700
     36 H17        -0.7280    7.3430   -4.3420 hc        1 S1Y      0.078700
     37 H17A       -1.4630    7.0020   -2.7240 hc        1 S1Y      0.078700
     38 H18        -3.0760    8.7080   -2.8960 hc        1 S1Y      0.071700
     39 H18A       -1.5350    9.4120   -3.5320 hc        1 S1Y      0.071700
     40 H19        -4.1610    8.6970   -4.9370 h1        1 S1Y      0.049200
     41 H19A       -3.1750   10.2130   -4.9830 h1        1 S1Y      0.049200
     42 H21        -3.4540   10.2960   -7.2560 h1        1 S1Y      0.060200
     43 H21A       -2.4450    9.2000   -8.3070 h1        1 S1Y      0.060200
     44 H22        -1.3190   11.1260   -6.1110 hx        1 S1Y      0.121200
     45 H22A       -0.3310   10.0470   -7.2170 hx        1 S1Y      0.121200
     46 HN23       -2.1330   12.2700   -8.0970 hn        1 S1Y      0.467133
     47 HN2A       -0.4660   12.3150   -8.0120 hn        1 S1Y      0.467133
     48 H24        -2.6490    7.2150   -7.7940 h1        1 S1Y      0.058700
     49 H24A       -4.0650    7.2760   -6.6490 h1        1 S1Y      0.058700
     50 H25        -2.7850    5.2500   -6.4020 hc        1 S1Y      0.073200
     51 H25A       -1.2230    6.1320   -6.1310 hc        1 S1Y      0.073200
     52 H52        -0.4490    0.5100   -1.0840 hn        1 S1Y      0.399300
     53 H152       -2.6760    4.1550   -4.4680 hn        1 S1Y      0.475800
     54 H233       -1.2240   11.2970   -9.0970 hn        1 S1Y      0.467133
@<TRIPOS>BOND
     1    1    2 1   
     2    1    3 1   
     3    1    4 2   
     4    5    6 1   
     5    5   26 1   
     6    5   52 1   
     7    6    7 1   
     8    6   10 1   
     9    6   27 1   
    10    7    8 1   
    11    7   28 1   
    12    7   29 1   
    13    8    9 1   
    14    8   30 1   
    15    8   31 1   
    16    9   10 1   
    17    9   13 1   
    18   10   11 1   
    19   10   32 1   
    20   11   12 2   
    21   11   33 1   
    22   13   14 2   
    23   13   15 1   
    24   15   16 1   
    25   15   34 1   
    26   15   53 1   
    27   16   17 1   
    28   16   25 1   
    29   16   35 1   
    30   17   18 1   
    31   17   36 1   
    32   17   37 1   
    33   18   19 1   
    34   18   38 1   
    35   18   39 1   
    36   19   20 1   
    37   19   40 1   
    38   19   41 1   
    39   20   21 1   
    40   20   24 1   
    41   21   22 1   
    42   21   42 1   
    43   21   43 1   
    44   22   23 1   
    45   22   44 1   
    46   22   45 1   
    47   23   46 1   
    48   23   47 1   
    49   23   54 1   
    50   24   25 1   
    51   24   48 1   
    52   24   49 1   
    53   25   50 1   
    54   25   51 1   
@<TRIPOS>SUBSTRUCTURE
     1 S1Y         1 TEMP              0 ****  ****    0 ROOT
