@<TRIPOS>MOLECULE
S1Y
   54    54     1     0     0
SMALL
bcc


@<TRIPOS>ATOM
      1 S1          0.6130    2.2430   -2.2320 s4        1 S1Y      1.839000
      2 O2         -0.1130    3.2270   -2.8560 o         1 S1Y     -0.585067
      3 O3          1.3640    2.5770   -1.1660 o         1 S1Y     -0.585067
      4 O4          0.6140    1.0210   -2.8030 o         1 S1Y     -0.704867
      5 N5         -1.2390    1.4600   -0.6970 n3        1 S1Y     -1.001800
      6 C6         -2.6480    1.4600   -1.0770 c3        1 S1Y      0.158500
      7 C7         -2.8570    0.9320   -2.5150 c3        1 S1Y     -0.101400
      8 C8         -3.0120    2.1790   -3.3950 c3        1 S1Y      0.052000
      9 N9         -3.4480    3.2670   -2.5220 n         1 S1Y     -0.408800
     10 C10        -3.3030    2.8880   -1.1080 c3        1 S1Y     -0.053300
     11 C11        -2.5730    3.8800   -0.2170 c         1 S1Y      0.571900
     12 O12        -1.9990    4.8690   -0.6760 o         1 S1Y     -0.538100
     13 C13        -3.2690    4.6190   -2.8460 c         1 S1Y      0.665100
     14 O14        -4.0890    5.5040   -2.6160 o         1 S1Y     -0.441100
     15 N15        -1.9950    5.0670   -3.5730 n4        1 S1Y     -0.673800
     16 C16        -2.0900    6.4410   -4.1770 c3        1 S1Y      0.136500
     17 C17        -0.6960    6.9710   -4.5400 c3        1 S1Y     -0.091400
     18 C18        -0.5890    8.4680   -4.3550 c3        1 S1Y     -0.079400
     19 C19        -1.8080    9.2880   -4.7740 c3        1 S1Y      0.160800
     20 N20        -2.4570    8.8260   -5.9970 n3        1 S1Y     -0.755600
     21 C21        -2.8730    9.9080   -6.8690 c3        1 S1Y      0.169800
     22 C22        -1.6950   10.3350   -7.7830 c3        1 S1Y      0.083800
     23 N23        -2.0750   11.4450   -8.7020 n4        1 S1Y     -0.836600
     24 C24        -3.5080    7.8440   -5.7550 c3        1 S1Y      0.182800
     25 C25        -2.9970    6.4440   -5.4120 c3        1 S1Y     -0.097400
     26 HN5        -0.9180    0.5040   -0.6580 hn        1 S1Y      0.399300
     27 H6         -3.2540    0.8330   -0.3570 h1        1 S1Y      0.088700
     28 H7         -3.7880    0.3110   -2.5460 hc        1 S1Y      0.101700
     29 H7A        -2.0070    0.3000   -2.8790 hc        1 S1Y      0.101700
     30 H8         -2.0360    2.3880   -3.9150 h1        1 S1Y      0.075200
     31 H8A        -3.8150    2.0280   -4.1700 h1        1 S1Y      0.075200
     32 H10        -4.3620    2.7960   -0.7080 h1        1 S1Y      0.133700
     33 H11        -2.6110    3.6520    0.8700 h4        1 S1Y      0.062200
     34 HN15       -1.7180    4.3880   -4.2870 hn        1 S1Y      0.477800
     35 H16        -2.5490    7.0990   -3.3750 hx        1 S1Y      0.121700
     36 H17         0.1030    6.4940   -3.9060 hc        1 S1Y      0.071200
     37 H17A       -0.4670    6.7030   -5.6060 hc        1 S1Y      0.071200
     38 H18         0.3090    8.8170   -4.9320 hc        1 S1Y      0.069700
     39 H18A       -0.3990    8.7010   -3.2720 hc        1 S1Y      0.069700
     40 H19        -2.5460    9.3040   -3.9160 h1        1 S1Y      0.051200
     41 H19A       -1.4560   10.3520   -4.9100 h1        1 S1Y      0.051200
     42 H21        -3.7250    9.5690   -7.5260 h1        1 S1Y      0.061200
     43 H21A       -3.2260   10.8120   -6.2900 h1        1 S1Y      0.061200
     44 H22        -0.8240   10.6880   -7.1590 hx        1 S1Y      0.120700
     45 H22A       -1.3590    9.4620   -8.4140 hx        1 S1Y      0.120700
     46 HN23       -1.2710   11.7040   -9.2850 hn        1 S1Y      0.467133
     47 HN2A       -2.3750   12.2680   -8.1660 hn        1 S1Y      0.467133
     48 H24        -4.1960    8.1840   -4.9240 h1        1 S1Y      0.062200
     49 H24A       -4.1320    7.7310   -6.6880 h1        1 S1Y      0.062200
     50 H25        -3.9130    5.8180   -5.2240 hc        1 S1Y      0.073200
     51 H25A       -2.4510    6.0080   -6.2890 hc        1 S1Y      0.073200
     52 H52        -1.1150    1.8740    0.2110 hn        1 S1Y      0.399300
     53 H152       -1.2460    5.0620   -2.8520 hn        1 S1Y      0.477800
     54 H233       -2.8470   11.1560   -9.3130 hn        1 S1Y      0.467133
@<TRIPOS>BOND
     1    1    2 1   
     2    1    3 1   
     3    1    4 2   
     4    5    6 1   
     5    5   26 1   
     6    5   52 1   
     7    6    7 1   
     8    6   10 1   
     9    6   27 1   
    10    7    8 1   
    11    7   28 1   
    12    7   29 1   
    13    8    9 1   
    14    8   30 1   
    15    8   31 1   
    16    9   10 1   
    17    9   13 1   
    18   10   11 1   
    19   10   32 1   
    20   11   12 2   
    21   11   33 1   
    22   13   14 2   
    23   13   15 1   
    24   15   16 1   
    25   15   34 1   
    26   15   53 1   
    27   16   17 1   
    28   16   25 1   
    29   16   35 1   
    30   17   18 1   
    31   17   36 1   
    32   17   37 1   
    33   18   19 1   
    34   18   38 1   
    35   18   39 1   
    36   19   20 1   
    37   19   40 1   
    38   19   41 1   
    39   20   21 1   
    40   20   24 1   
    41   21   22 1   
    42   21   42 1   
    43   21   43 1   
    44   22   23 1   
    45   22   44 1   
    46   22   45 1   
    47   23   46 1   
    48   23   47 1   
    49   23   54 1   
    50   24   25 1   
    51   24   48 1   
    52   24   49 1   
    53   25   50 1   
    54   25   51 1   
@<TRIPOS>SUBSTRUCTURE
     1 S1Y         1 TEMP              0 ****  ****    0 ROOT
