@<TRIPOS>MOLECULE
S1Y
   54    54     1     0     0
SMALL
bcc


@<TRIPOS>ATOM
      1 S1          0.5950    2.4980   -2.6920 s4        1 S1Y      1.842000
      2 O2         -0.3650    3.2970   -3.2770 o         1 S1Y     -0.591067
      3 O3          1.5220    3.0900   -1.9160 o         1 S1Y     -0.591067
      4 O4          0.6580    1.2200   -3.1210 o         1 S1Y     -0.710867
      5 N5         -0.7380    1.8000   -0.7510 n8        1 S1Y     -1.008800
      6 C6         -2.1860    1.6310   -0.7750 c3        1 S1Y      0.156500
      7 C7         -2.6710    0.9440   -2.0740 c3        1 S1Y     -0.110400
      8 C8         -3.0980    2.0890   -3.0080 c3        1 S1Y      0.049000
      9 N9         -3.1880    3.3170   -2.2080 n         1 S1Y     -0.387800
     10 C10        -3.0050    2.9680   -0.7880 c3        1 S1Y     -0.053300
     11 C11        -2.5470    4.0630    0.1640 c         1 S1Y      0.567900
     12 O12        -1.6450    3.8850    0.9740 o         1 S1Y     -0.475100
     13 C13        -2.8030    4.5560   -2.6790 c         1 S1Y      0.662100
     14 O14        -2.7070    5.5970   -2.0160 o         1 S1Y     -0.523100
     15 N15        -2.6170    4.7320   -4.1880 ny        1 S1Y     -0.663800
     16 C16        -2.6270    6.1820   -4.6150 c3        1 S1Y      0.144500
     17 C17        -1.2510    6.8270   -4.4010 c3        1 S1Y     -0.083400
     18 C18        -1.3590    8.2870   -4.0220 c3        1 S1Y     -0.079400
     19 C19        -2.4020    9.1050   -4.7820 c3        1 S1Y      0.160800
     20 N20        -2.5350    8.7550   -6.1920 n3        1 S1Y     -0.757600
     21 C21        -2.6810    9.9070   -7.0610 c3        1 S1Y      0.170800
     22 C22        -1.2860   10.4780   -7.4260 c3        1 S1Y      0.084800
     23 N23        -1.3840   11.6750   -8.3090 nz        1 S1Y     -0.836600
     24 C24        -3.5230    7.7130   -6.4360 c3        1 S1Y      0.185800
     25 C25        -3.0500    6.3000   -6.0840 c3        1 S1Y     -0.105400
     26 HN5        -0.4650    2.3950    0.0170 hn        1 S1Y      0.412300
     27 H6         -2.5310    1.0400    0.1240 h1        1 S1Y      0.095700
     28 H7         -3.5440    0.2840   -1.8390 hc        1 S1Y      0.100700
     29 H7A        -1.8810    0.3150   -2.5570 hc        1 S1Y      0.100700
     30 H8         -2.3480    2.1770   -3.8410 h1        1 S1Y      0.076200
     31 H8A        -4.1170    1.8930   -3.4420 h1        1 S1Y      0.076200
     32 H10        -4.0510    2.6940   -0.4260 h1        1 S1Y      0.121700
     33 H11        -3.1410    5.0040    0.1180 h4        1 S1Y      0.058200
     34 HN15       -1.6940    4.3180   -4.4180 hn        1 S1Y      0.473800
     35 H16        -3.3910    6.7020   -3.9590 hx        1 S1Y      0.117700
     36 H17        -0.6930    6.3050   -3.5740 hc        1 S1Y      0.076700
     37 H17A       -0.6410    6.7160   -5.3370 hc        1 S1Y      0.076700
     38 H18        -0.3460    8.7490   -4.1670 hc        1 S1Y      0.074200
     39 H18A       -1.6110    8.3700   -2.9290 hc        1 S1Y      0.074200
     40 H19        -3.3970    9.0010   -4.2540 h1        1 S1Y      0.050200
     41 H19A       -2.1030   10.1890   -4.6870 h1        1 S1Y      0.050200
     42 H21        -3.2920   10.7280   -6.5800 h1        1 S1Y      0.061200
     43 H21A       -3.2010    9.6080   -8.0160 h1        1 S1Y      0.061200
     44 H22        -0.7310   10.7830   -6.4920 hx        1 S1Y      0.121200
     45 H22A       -0.6780    9.6960   -7.9680 hx        1 S1Y      0.121200
     46 HN23       -0.4430   12.0260   -8.5230 hn        1 S1Y      0.467800
     47 HN2A       -1.8550   11.4340   -9.1880 hn        1 S1Y      0.467800
     48 H24        -3.7810    7.6910   -7.5350 h1        1 S1Y      0.060700
     49 H24A       -4.4790    7.9190   -5.8670 h1        1 S1Y      0.060700
     50 H25        -3.9160    5.6200   -6.3120 hc        1 S1Y      0.073200
     51 H25A       -2.1970    6.0060   -6.7510 hc        1 S1Y      0.073200
     52 H52        -0.3180    0.8920   -0.6120 hn        1 S1Y      0.412300
     53 H152       -3.3450    4.2200   -4.6920 hn        1 S1Y      0.473800
     54 H233       -1.9170   12.4190   -7.8460 hn        1 S1Y      0.467800
@<TRIPOS>BOND
     1    1    2 1   
     2    1    3 1   
     3    1    4 2   
     4    5    6 1   
     5    5   26 1   
     6    5   52 1   
     7    6    7 1   
     8    6   10 1   
     9    6   27 1   
    10    7    8 1   
    11    7   28 1   
    12    7   29 1   
    13    8    9 1   
    14    8   30 1   
    15    8   31 1   
    16    9   10 1   
    17    9   13 1   
    18   10   11 1   
    19   10   32 1   
    20   11   12 2   
    21   11   33 1   
    22   13   14 2   
    23   13   15 1   
    24   15   16 1   
    25   15   34 1   
    26   15   53 1   
    27   16   17 1   
    28   16   25 1   
    29   16   35 1   
    30   17   18 1   
    31   17   36 1   
    32   17   37 1   
    33   18   19 1   
    34   18   38 1   
    35   18   39 1   
    36   19   20 1   
    37   19   40 1   
    38   19   41 1   
    39   20   21 1   
    40   20   24 1   
    41   21   22 1   
    42   21   42 1   
    43   21   43 1   
    44   22   23 1   
    45   22   44 1   
    46   22   45 1   
    47   23   46 1   
    48   23   47 1   
    49   23   54 1   
    50   24   25 1   
    51   24   48 1   
    52   24   49 1   
    53   25   50 1   
    54   25   51 1   
@<TRIPOS>SUBSTRUCTURE
     1 S1Y         1 TEMP              0 ****  ****    0 ROOT
