@<TRIPOS>MOLECULE
S20
   55    54     1     0     0
SMALL
bcc


@<TRIPOS>ATOM
      1 C1         -1.1830    0.9710   -1.0940 c2        1 S20     -0.166000
      2 C2         -0.1010    0.4340   -1.9670 c3        1 S20     -0.056000
      3 C3          1.1970    1.1540   -1.8320 c2        1 S20      0.086000
      4 C4          1.4800    2.0930   -0.8920 c2        1 S20     -0.276000
      5 C5          2.6830    2.8040   -0.7370 c1        1 S20      0.178000
      6 C6         -2.0500    0.2180   -0.4110 c2        1 S20     -0.176000
      7 N11         3.8080    2.7960   -1.4190 n2        1 S20     -0.054000
      8 C12         6.1620    2.3010   -5.4910 c2        1 S20     -0.057000
      9 N12         5.5810    1.4410   -6.2250 n2        1 S20     -0.176000
     10 C13         7.0050    2.0720   -4.2840 cx        1 S20     -0.172000
     11 C14         6.8830    2.9980   -3.1440 cu        1 S20      0.035000
     12 C15         6.1880    3.4910   -2.1180 c2        1 S20     -0.114000
     13 C16         4.9070    3.0590   -1.7950 c1        1 S20      0.183000
     14 C19         0.1540   -1.0280   -1.7620 c2        1 S20     -0.211000
     15 N21        -5.5890   -0.8800    2.2830 n2        1 S20     -0.297000
     16 C22        -7.8370   -0.1800    3.5820 c1        1 S20      0.074000
     17 N22        -7.6220   -1.1240    4.3980 n3        1 S20     -0.066000
     18 C23        -8.1180    0.7840    2.7420 c2        1 S20      0.034000
     19 C24        -7.1630    1.7130    2.1540 c2        1 S20     -0.068000
     20 C25        -5.9720    1.4040    1.6090 c2        1 S20     -0.089000
     21 C26        -5.3520    0.0750    1.4520 c2        1 S20      0.047000
     22 C28        -4.4450   -0.0130    0.2430 c3        1 S20     -0.213000
     23 C29        -3.1490    0.7840    0.4330 c3        1 S20      0.059000
     24 O29        -3.3710    2.1650    0.1960 oh        1 S20     -0.322000
     25 H1         -1.2610    2.0740   -1.0800 ha        1 S20      0.142000
     26 H3          0.7260    2.3770   -0.1260 ha        1 S20      0.205000
     27 H4          1.9560    0.8490   -2.5800 ha        1 S20      0.145000
     28 H5         -1.9850   -0.8840   -0.4090 ha        1 S20      0.146000
     29 HN12        6.8080   -1.5050   -5.0030 ha        1 S20      0.001500
     30 HN1A        6.5500   -1.0430   -4.5800 ha        1 S20      0.001500
     31 H13         6.0520    3.3700   -5.7800 h4        1 S20      0.161000
     32 H15         6.6090    4.2890   -1.4680 ha        1 S20      0.208000
     33 H17         7.1920    0.9960   -4.0580 hc        1 S20      0.167000
     34 H17A        9.0600    2.6860   -3.5190 hc        1 S20      0.173000
     35 H17B        8.2740    3.9430   -4.5990 hc        1 S20      0.173000
     36 H19         0.3910   -1.3140   -0.7240 ha        1 S20      0.141000
     37 H19A        0.2760   -2.9960   -2.5590 ha        1 S20      0.135500
     38 HN22       -7.5970   -0.9620    5.3940 hn        1 S20      0.292500
     39 HN2A       -7.4180   -2.0590    4.0760 hn        1 S20      0.292500
     40 H23        -9.1920    0.9670    2.4940 ha        1 S20      0.224000
     41 H25        -5.3510    2.2220    1.1810 ha        1 S20      0.190000
     42 H28        -2.8260    0.7490    1.5170 h1        1 S20      0.138000
     43 H28A       -4.1930   -1.0850    0.0250 hc        1 S20      0.118500
     44 H29        -5.0000    0.3860   -0.6480 hc        1 S20      0.118500
     45 HO29       -3.5570    2.2790   -0.7450 ho        1 S20      0.211000
     46 C18         0.0910   -1.9270   -2.7410 c2        1 S20     -0.159000
     47 H18        -0.1510   -1.6710   -3.7830 ha        1 S20      0.135500
     48 H18A       -0.4420    0.6020   -3.0410 hc        1 S20      0.148000
     49 H123        5.6940    0.4740   -5.9960 hn        1 S20      0.155000
     50 H223       -5.1100   -1.7400    2.1080 hn        1 S20      0.167000
     51 C27        -7.6590    3.1190    2.1520 c3        1 S20     -0.201000
     52 C17         8.1060    3.0630   -3.9430 cx        1 S20     -0.150000
     53 H27        -7.9530    3.4320    3.1860 hc        1 S20      0.113000
     54 H27A       -8.5540    3.2110    1.4860 hc        1 S20      0.113000
     55 H27B       -6.8720    3.8230    1.7850 hc        1 S20      0.113000
@<TRIPOS>BOND
     1    1    2 1   
     2    1    6 1   
     3    1   25 1   
     4    2    3 1   
     5    2   14 1   
     6    2   48 1   
     7    3    4 1   
     8    3   27 1   
     9    4    5 1   
    10    4   26 1   
    11    5    7 1   
    12    6   23 1   
    13    6   28 1   
    14    7   13 1   
    15    8    9 1   
    16    8   10 1   
    17    8   31 1   
    18    9   49 1   
    19   10   11 1   
    20   10   33 1   
    21   10   52 1   
    22   11   12 1   
    23   11   52 1   
    24   12   13 1   
    25   12   32 1   
    26   14   36 1   
    27   14   46 1   
    28   15   21 1   
    29   15   50 1   
    30   16   17 1   
    31   16   18 1   
    32   17   38 1   
    33   17   39 1   
    34   18   19 1   
    35   18   40 1   
    36   19   20 1   
    37   19   51 1   
    38   20   21 1   
    39   20   41 1   
    40   21   22 1   
    41   22   23 1   
    42   22   43 1   
    43   22   44 1   
    44   23   24 1   
    45   23   42 1   
    46   24   45 1   
    47   29   30 1   
    48   34   52 1   
    49   35   52 1   
    50   37   46 1   
    51   46   47 1   
    52   51   53 1   
    53   51   54 1   
    54   51   55 1   
@<TRIPOS>SUBSTRUCTURE
     1 S20         1 TEMP              0 ****  ****    0 ROOT
