@<TRIPOS>MOLECULE
S20
   53    77     1     0     0
SMALL
bcc


@<TRIPOS>ATOM
      1 C1          0.0000    0.0000    0.0000 c2        1 S20     -0.277000
      2 C2          1.3820    0.0000    0.0000 c3        1 S20     -0.259000
      3 C3          2.0730    0.0000    1.1980 c3        1 S20     -0.003000
      4 C4          1.3820    0.0000    2.3950 c2        1 S20     -0.063000
      5 C5         -0.0010    0.0010    2.3940 c2        1 S20     -0.100000
      6 C6         -0.6910    0.0000    1.1970 c3        1 S20     -0.097000
      7 N11         4.2850    0.7830   -3.1460 n2        1 S20     -0.366000
      8 C12         4.9800    0.7560   -4.2720 DU        1 S20      0.042000
      9 N12         6.1760    0.0500   -4.3260 n8        1 S20     -0.261000
     10 C13         4.5240    1.4280   -5.4020 c2        1 S20     -0.518000
     11 C14         3.3330    2.1270   -5.3340 DU        1 S20     -0.154000
     12 C15         2.6340    2.1300   -4.1340 c2        1 S20     -0.398000
     13 C16         3.1450    1.4420   -3.0510 c3        1 S20      0.108000
     14 C19         2.1360    0.0000   -1.3050 c3        1 S20     -0.265000
     15 N21        -4.7820    0.9100    0.1380 n2        1 S20     -0.305000
     16 C22        -6.0960    0.8980   -0.0120 c3        1 S20      0.124000
     17 N22        -6.6550    0.3190   -1.1450 n8        1 S20     -0.235000
     18 C23        -6.9240    1.4620    0.9550 c2        1 S20     -0.258000
     19 C24        -6.3540    2.0330    2.0770 c3        1 S20      0.099000
     20 C25        -4.9710    2.0250    2.1960 c2        1 S20     -0.317000
     21 C26        -4.2110    1.4490    1.1990 DU        1 S20      0.589000
     22 C28        -2.7080    1.4370    1.3230 DU        1 S20      0.170000
     23 C29        -2.1990   -0.0000    1.1970 DU        1 S20      0.308000
     24 O29        -2.6750   -0.7730    2.2990 oh        1 S20     -0.299000
     25 H1         -0.9450    0.2900    0.4420 DU        1 S20      0.357000
     26 H3          2.3340    0.4420    0.2440 DU        1 S20      0.331000
     27 H4          1.5710    0.3720    1.3950 DU        1 S20      0.067000
     28 H5         -0.1750    0.0010    1.3250 ha        1 S20     -0.099000
     29 HN12        5.6970    0.0420   -3.4470 DU        1 S20      0.283500
     30 HN1A        5.6910    0.0440   -3.4510 DU        1 S20      0.283500
     31 H13         3.9860    1.2760   -4.4740 DU        1 S20      0.200000
     32 H15         3.4510    1.4280   -4.2450 DU        1 S20      0.119000
     33 H17         3.6460    2.3960   -6.0420 DU        1 S20      0.270000
     34 H17A        3.7150    2.2870   -6.4520 DU        1 S20      0.270000
     35 H17B        2.3640    2.7900   -5.5490 DU        1 S20      0.281000
     36 H19         2.3760    0.6940   -2.1020 DU        1 S20      0.189500
     37 H19A        2.1070    0.6080   -2.2010 DU        1 S20      0.189500
     38 HN22       -5.8260    0.5370   -1.6600 DU        1 S20      0.207000
     39 HN2A       -5.6640    0.2610   -1.2650 DU        1 S20      0.207000
     40 H23        -5.8950    1.2230    0.7180 DU        1 S20      0.029000
     41 H25        -5.3950    1.7590    1.2360 DU        1 S20      0.141000
     42 H28        -3.5630    1.0070    0.8150 DU        1 S20      0.041000
     43 H28A       -3.7590    1.3580    1.0690 DU        1 S20     -0.686000
     44 H29        -2.8430    0.6940    1.7230 DU        1 S20     -0.146000
     45 HO29       -2.5800    0.0260    1.8070 DU        1 S20      0.278000
     46 C27        -7.2160    2.6540    3.1470 c3        1 S20     -0.102000
     47 C18         2.3920    1.4420   -1.7470 DU        1 S20     -0.287000
     48 C17         2.8050    2.8680   -6.5350 c2        1 S20     -0.152000
     49 H18         3.3010    1.3070   -1.1750 ha        1 S20      0.123000
     50 H18A        2.1050    2.1880   -1.0170 ha        1 S20      0.123000
     51 H27        -7.2790    1.7110    3.6760 hc        1 S20      0.071667
     52 H27A       -8.2930    2.5470    3.1000 hc        1 S20      0.071667
     53 H27B       -6.7650    2.9900    4.0730 hc        1 S20      0.071667
@<TRIPOS>BOND
     1    1    2 1   
     2    1    6 1   
     3    1   25 1   
     4    2    3 1   
     5    2   14 1   
     6    2   26 1   
     7    3    4 1   
     8    3   26 1   
     9    3   27 1   
    10    4    5 1   
    11    4   27 1   
    12    5    6 1   
    13    5   28 1   
    14    6   23 1   
    15    6   25 1   
    16    7    8 1   
    17    7   13 1   
    18    8    9 1   
    19    8   10 1   
    20    8   29 1   
    21    8   30 1   
    22    8   31 1   
    23    9   29 1   
    24    9   30 1   
    25   10   11 1   
    26   10   31 1   
    27   11   12 1   
    28   11   32 1   
    29   11   33 1   
    30   11   34 1   
    31   11   35 1   
    32   12   13 1   
    33   12   32 1   
    34   13   32 1   
    35   13   47 1   
    36   14   36 1   
    37   14   37 1   
    38   14   47 1   
    39   15   16 1   
    40   15   21 1   
    41   16   17 1   
    42   16   18 1   
    43   16   40 1   
    44   17   38 1   
    45   17   39 1   
    46   18   19 1   
    47   18   40 1   
    48   19   20 1   
    49   19   41 1   
    50   19   46 1   
    51   20   21 1   
    52   20   41 1   
    53   21   22 1   
    54   21   41 1   
    55   21   42 1   
    56   22   23 1   
    57   22   42 1   
    58   22   43 1   
    59   22   44 1   
    60   23   24 1   
    61   23   44 1   
    62   23   45 1   
    63   24   45 1   
    64   31   32 1   
    65   33   34 1   
    66   33   48 1   
    67   34   48 1   
    68   35   48 1   
    69   36   47 1   
    70   37   47 1   
    71   38   39 1   
    72   42   43 1   
    73   46   51 1   
    74   46   52 1   
    75   46   53 1   
    76   47   49 1   
    77   47   50 1   
@<TRIPOS>SUBSTRUCTURE
     1 S20         1 TEMP              0 ****  ****    0 ROOT
