@<TRIPOS>MOLECULE
S20
   53    55     1     0     0
SMALL
bcc


@<TRIPOS>ATOM
      1 C1         -0.0900    2.7770   -1.8390 c2        1 S20     -0.213000
      2 C2          0.5040    1.5810   -1.8780 c2        1 S20     -0.123400
      3 C3          0.2560    0.5100   -0.8640 c3        1 S20      0.056900
      4 C4         -0.9210    0.6920   -0.0720 c1        1 S20     -0.209100
      5 C5         -1.9050    0.8200    0.6060 cg        1 S20     -0.069300
      6 C6         -3.0280    0.9680    1.3860 ce        1 S20     -0.357900
      7 N11         3.7220   -0.3290   -4.3000 nb        1 S20     -0.729000
      8 C12         4.6650   -0.5230   -5.2740 ca        1 S20      0.629200
      9 N12         4.5920   -1.6800   -6.0710 nh        1 S20     -0.922500
     10 C13         5.7610    0.3730   -5.4580 ca        1 S20     -0.302300
     11 C14         5.8900    1.4640   -4.6010 ca        1 S20     -0.007300
     12 C15         4.9360    1.6520   -3.5940 ca        1 S20     -0.291300
     13 C16         3.8730    0.7340   -3.4790 ca        1 S20      0.452600
     14 C19         1.4750    1.2190   -2.9520 c3        1 S20     -0.040200
     15 N21        -5.2830    0.8260    2.0210 nh        1 S20     -0.176100
     16 C22        -4.3940    0.5620    0.8320 c3        1 S20      0.369400
     17 N22        -4.5210   -0.7810    0.3260 n3        1 S20     -0.932800
     18 C23        -4.5870    1.3590    3.0430 cf        1 S20      0.293600
     19 C24        -5.4970    1.6320    4.1740 cf        1 S20     -0.166800
     20 C25        -6.7430    1.2160    3.7970 c2        1 S20     -0.159200
     21 C26        -6.6970    0.6360    2.3780 c3        1 S20      0.036200
     22 C28        -7.6960    1.3080    1.4540 c3        1 S20     -0.092100
     23 C29        -3.1000    1.4830    2.7000 cf        1 S20      0.510000
     24 O29        -2.2850    1.9420    3.5120 o         1 S20     -0.633300
     25 H1          0.1120    3.5590   -2.5820 ha        1 S20      0.116500
     26 H3          0.1960   -0.4850   -1.3930 hc        1 S20      0.058700
     27 H4          1.1520    0.4630   -0.1770 hc        1 S20      0.058700
     28 H5         -0.8160    3.0430   -1.0580 ha        1 S20      0.116500
     29 HN12        3.7260   -2.1730   -6.0350 hn        1 S20      0.398300
     30 HN1A        4.9340   -1.5430   -6.9950 hn        1 S20      0.398300
     31 H13         6.4980    0.1990   -6.2530 ha        1 S20      0.140000
     32 H15         5.0120    2.5030   -2.9050 ha        1 S20      0.143000
     33 H17         6.6970    3.4540   -4.5340 hc        1 S20      0.048700
     34 H17A        7.4580    2.3650   -5.7710 hc        1 S20      0.048700
     35 H17B        7.8300    2.1390   -4.0110 hc        1 S20      0.048700
     36 H19         1.1040    0.3050   -3.4900 hc        1 S20      0.052700
     37 H19A        1.5400    2.0460   -3.7080 hc        1 S20      0.052700
     38 HN22       -4.4440   -0.7930   -0.6700 hn        1 S20      0.385300
     39 HN2A       -3.8490   -1.3970    0.7380 hn        1 S20      0.385300
     40 H23        -4.7450    1.3000    0.0440 h2        1 S20      0.081700
     41 H25        -6.8950   -0.4770    2.4080 h1        1 S20      0.116700
     42 H28        -7.6080    0.8950    0.4200 hc        1 S20      0.060033
     43 H28A       -8.7250    1.1060    1.8380 hc        1 S20      0.060033
     44 H29        -7.5370    2.4130    1.4160 hc        1 S20      0.060033
     45 HO29       -7.6760    1.2540    4.3550 ha        1 S20      0.171000
     46 C27        -5.0390    2.2400    5.4250 c3        1 S20     -0.060900
     47 C18         2.8580    0.9470   -2.3880 c3        1 S20     -0.128700
     48 C17         7.0250    2.4050   -4.7420 c3        1 S20     -0.060800
     49 H18         3.1820    1.8120   -1.7510 hc        1 S20      0.058700
     50 H18A        2.8240    0.0370   -1.7290 hc        1 S20      0.058700
     51 H27        -5.4950    3.2550    5.5540 hc        1 S20      0.070033
     52 H27A       -5.3340    1.6090    6.3010 hc        1 S20      0.070033
     53 H27B       -3.9230    2.3500    5.4180 hc        1 S20      0.070033
@<TRIPOS>BOND
     1    1    2 2   
     2    1   25 1   
     3    1   28 1   
     4    2    3 1   
     5    2   14 1   
     6    3    4 1   
     7    3   26 1   
     8    3   27 1   
     9    4    5 3   
    10    5    6 1   
    11    6   16 1   
    12    6   23 2   
    13    7    8 ar  
    14    7   13 ar  
    15    8    9 1   
    16    8   10 ar  
    17    9   29 1   
    18    9   30 1   
    19   10   11 ar  
    20   10   31 1   
    21   11   12 ar  
    22   11   48 1   
    23   12   13 ar  
    24   12   32 1   
    25   13   47 1   
    26   14   36 1   
    27   14   37 1   
    28   14   47 1   
    29   15   16 1   
    30   15   18 2   
    31   15   21 1   
    32   16   17 1   
    33   16   40 1   
    34   17   38 1   
    35   17   39 1   
    36   18   19 1   
    37   18   23 1   
    38   19   20 2   
    39   19   46 1   
    40   20   21 1   
    41   20   45 1   
    42   21   22 1   
    43   21   41 1   
    44   22   42 1   
    45   22   43 1   
    46   22   44 1   
    47   23   24 1   
    48   33   48 1   
    49   34   48 1   
    50   35   48 1   
    51   46   51 1   
    52   46   52 1   
    53   46   53 1   
    54   47   49 1   
    55   47   50 1   
@<TRIPOS>SUBSTRUCTURE
     1 S20         1 TEMP              0 ****  ****    0 ROOT
