@<TRIPOS>MOLECULE
S21
   24    24     1     0     0
SMALL
bcc


@<TRIPOS>ATOM
      1 C1         -1.8550   -1.4970   -0.0850 ca        1 S21     -0.095500
      2 C2         -3.2160   -1.2120    0.0020 ca        1 S21     -0.077500
      3 C3         -3.6330    0.1280   -0.0150 ca        1 S21     -0.149200
      4 C4         -2.7030    1.1740   -0.1210 ca        1 S21     -0.077500
      5 C5         -1.3460    0.8700   -0.2000 ca        1 S21     -0.095500
      6 C6         -0.9160   -0.4610   -0.1780 ca        1 S21     -0.136600
      7 C7          0.5200   -0.8140   -0.2650 c         1 S21      0.586700
      8 O8          0.9010   -1.8990   -0.7100 o         1 S21     -0.485100
      9 C9          1.4830    0.2400    0.2180 c3        1 S21     -0.280400
     10 C10         2.8210   -0.3110    0.5970 c         1 S21      0.557100
     11 O11         3.0310   -1.2230    1.3820 o         1 S21     -0.419100
     12 C12         4.0300    0.4290   -0.0770 c3        1 S21      0.529900
     13 N13        -5.0860    0.4460    0.0770 no        1 S21      0.310200
     14 F1C         3.9960    0.3910   -1.4460 f         1 S21     -0.223300
     15 O1N        -5.8720   -0.4570    0.1670 o         1 S21     -0.197500
     16 F2C         4.0740    1.7650    0.2380 f         1 S21     -0.223300
     17 O2N        -5.4280    1.5980    0.0580 o         1 S21     -0.197500
     18 F3C         5.2540   -0.0660    0.2730 f         1 S21     -0.223300
     19 H1         -1.5080   -2.5450   -0.0860 ha        1 S21      0.160500
     20 H2         -3.9550   -2.0280    0.0790 ha        1 S21      0.179000
     21 H4         -3.0440    2.2240   -0.1410 ha        1 S21      0.179000
     22 H5         -0.6190    1.6930   -0.2890 ha        1 S21      0.160500
     23 H9          1.6010    1.0060   -0.5980 hc        1 S21      0.109700
     24 H9A         1.0570    0.7560    1.1230 hc        1 S21      0.109700
@<TRIPOS>BOND
     1    1    2 ar  
     2    1    6 ar  
     3    1   19 1   
     4    2    3 ar  
     5    2   20 1   
     6    3    4 ar  
     7    3   13 1   
     8    4    5 ar  
     9    4   21 1   
    10    5    6 ar  
    11    5   22 1   
    12    6    7 1   
    13    7    8 2   
    14    7    9 1   
    15    9   10 1   
    16    9   23 1   
    17    9   24 1   
    18   10   11 2   
    19   10   12 1   
    20   12   14 1   
    21   12   16 1   
    22   12   18 1   
    23   13   15 1   
    24   13   17 1   
@<TRIPOS>SUBSTRUCTURE
     1 S21         1 TEMP              0 ****  ****    0 ROOT
