@<TRIPOS>MOLECULE
S21
   24    24     1     0     0
SMALL
bcc


@<TRIPOS>ATOM
      1 C1         -0.0540   -0.0950    0.0290 ca        1 S21     -0.095500
      2 C2          1.3360   -0.0130   -0.0160 ca        1 S21     -0.077500
      3 C3          2.0590   -0.0300    1.1870 ca        1 S21     -0.149200
      4 C4          1.4020   -0.1310    2.4240 ca        1 S21     -0.077500
      5 C5          0.0120   -0.2040    2.4490 ca        1 S21     -0.095500
      6 C6         -0.7220   -0.1830    1.2580 ca        1 S21     -0.136600
      7 C7         -2.2010   -0.2650    1.2540 c         1 S21      0.586700
      8 O8         -2.8290   -0.7110    0.2920 o         1 S21     -0.485100
      9 C9         -2.8850    0.2250    2.5040 c3        1 S21     -0.280400
     10 C10        -4.3140    0.6100    2.2840 c         1 S21      0.557100
     11 O11        -4.7290    1.3920    1.4430 o         1 S21     -0.419100
     12 C12        -5.3160   -0.0510    3.2950 c3        1 S21      0.529900
     13 N13         3.5460    0.0570    1.1520 no        1 S21      0.310200
     14 F1C        -5.3000   -1.4210    3.2580 f         1 S21     -0.223300
     15 O1N         4.0960    0.1430    0.0880 o         1 S21     -0.197500
     16 F2C        -5.0400    0.2700    4.6000 f         1 S21     -0.223300
     17 O2N         4.1500    0.0390    2.1900 o         1 S21     -0.197500
     18 F3C        -6.6200    0.3050    3.1020 f         1 S21     -0.223300
     19 H1         -0.6380   -0.0970   -0.9070 ha        1 S21      0.160500
     20 H2          1.8620    0.0600   -0.9840 ha        1 S21      0.179000
     21 H4          1.9820   -0.1510    3.3630 ha        1 S21      0.179000
     22 H5         -0.5000   -0.2900    3.4210 ha        1 S21      0.160500
     23 H9         -2.8220   -0.5890    3.2800 hc        1 S21      0.109700
     24 H9A        -2.3450    1.1290    2.9030 hc        1 S21      0.109700
@<TRIPOS>BOND
     1    1    2 ar  
     2    1    6 ar  
     3    1   19 1   
     4    2    3 ar  
     5    2   20 1   
     6    3    4 ar  
     7    3   13 1   
     8    4    5 ar  
     9    4   21 1   
    10    5    6 ar  
    11    5   22 1   
    12    6    7 1   
    13    7    8 2   
    14    7    9 1   
    15    9   10 1   
    16    9   23 1   
    17    9   24 1   
    18   10   11 2   
    19   10   12 1   
    20   12   14 1   
    21   12   16 1   
    22   12   18 1   
    23   13   15 1   
    24   13   17 1   
@<TRIPOS>SUBSTRUCTURE
     1 S21         1 TEMP              0 ****  ****    0 ROOT
