@<TRIPOS>MOLECULE
S21
   24    24     1     0     0
SMALL
bcc


@<TRIPOS>ATOM
      1 C1         -0.0510    0.0850    0.0310 ca        1 S21     -0.095500
      2 C2          1.3390   -0.0010   -0.0120 ca        1 S21     -0.077500
      3 C3          2.0600    0.0170    1.1910 ca        1 S21     -0.149200
      4 C4          1.4020    0.1220    2.4270 ca        1 S21     -0.077500
      5 C5          0.0110    0.2000    2.4510 ca        1 S21     -0.095500
      6 C6         -0.7200    0.1780    1.2580 ca        1 S21     -0.136600
      7 C7         -2.1990    0.2630    1.2520 c         1 S21      0.586700
      8 O8         -2.8250    0.7070    0.2870 o         1 S21     -0.485100
      9 C9         -2.8870   -0.2190    2.5030 c3        1 S21     -0.280400
     10 C10        -4.3170   -0.5980    2.2830 c         1 S21      0.557100
     11 O11        -4.7350   -1.3840    1.4480 o         1 S21     -0.419100
     12 C12        -5.3170    0.0770    3.2860 c3        1 S21      0.529900
     13 N13         3.5470   -0.0740    1.1590 no        1 S21      0.310200
     14 F1C        -6.6240   -0.2720    3.0920 f         1 S21     -0.223300
     15 O1N         4.0990   -0.1640    0.0960 o         1 S21     -0.197500
     16 F2C        -5.0470   -0.2360    4.5950 f         1 S21     -0.223300
     17 O2N         4.1500   -0.0560    2.1980 o         1 S21     -0.197500
     18 F3C        -5.2930    1.4460    3.2390 f         1 S21     -0.223300
     19 H1         -0.6340    0.0860   -0.9060 ha        1 S21      0.160500
     20 H2          1.8660   -0.0780   -0.9800 ha        1 S21      0.179000
     21 H4          1.9800    0.1420    3.3670 ha        1 S21      0.179000
     22 H5         -0.5020    0.2880    3.4210 ha        1 S21      0.160500
     23 H9         -2.3510   -1.1240    2.9050 hc        1 S21      0.109700
     24 H9A        -2.8210    0.5970    3.2760 hc        1 S21      0.109700
@<TRIPOS>BOND
     1    1    2 ar  
     2    1    6 ar  
     3    1   19 1   
     4    2    3 ar  
     5    2   20 1   
     6    3    4 ar  
     7    3   13 1   
     8    4    5 ar  
     9    4   21 1   
    10    5    6 ar  
    11    5   22 1   
    12    6    7 1   
    13    7    8 2   
    14    7    9 1   
    15    9   10 1   
    16    9   23 1   
    17    9   24 1   
    18   10   11 2   
    19   10   12 1   
    20   12   14 1   
    21   12   16 1   
    22   12   18 1   
    23   13   15 1   
    24   13   17 1   
@<TRIPOS>SUBSTRUCTURE
     1 S21         1 TEMP              0 ****  ****    0 ROOT
