@<TRIPOS>MOLECULE
S21
   24    21     1     0     0
SMALL
bcc


@<TRIPOS>ATOM
      1 C1          1.0850   -0.0110   -1.7690 c1        1 S21     -0.025500
      2 C2          2.4700    0.0300   -1.7660 c1        1 S21     -0.019500
      3 C3          3.1640   -0.0830   -0.5720 c1        1 S21     -0.158300
      4 C4          2.4720   -0.2360    0.6200 c1        1 S21     -0.035500
      5 C5          1.0870   -0.2760    0.6160 c1        1 S21     -0.035500
      6 C6          0.3930   -0.1640   -0.5780 cg        1 S21     -0.085200
      7 C7         -1.1190   -0.1550   -0.5760 c         1 S21      0.535300
      8 O8         -1.7270   -0.0140   -1.6180 o         1 S21     -0.485100
      9 C9         -1.8740   -0.2930    0.7270 c3        1 S21     -0.280400
     10 C10        -3.3570   -0.1360    0.4700 c         1 S21      0.557100
     11 O11        -3.8640   -0.6620   -0.5000 o         1 S21     -0.419100
     12 C12        -4.2120    0.6550    1.4360 c3        1 S21      0.529900
     13 N13         4.5820   -0.0440   -0.5680 no        1 S21      0.319300
     14 F1C        -5.1630    1.3090    0.7570 f         1 S21     -0.223300
     15 O1N         5.2010   -0.3970    0.4250 o         1 S21     -0.197500
     16 F2C        -4.7840   -0.1800    2.3130 f         1 S21     -0.223300
     17 O2N         5.2560    0.3920   -1.6730 o         1 S21     -0.197500
     18 F3C        -3.4460    1.5360    2.0920 f         1 S21     -0.223300
     19 H1          0.5960    0.0690   -2.6110 ha        1 S21      0.114500
     20 H2          2.9570    0.1370   -2.6050 ha        1 S21      0.122500
     21 H4          2.9610   -0.3150    1.4610 ha        1 S21      0.106000
     22 H5          0.6000   -0.3840    1.4550 ha        1 S21      0.106000
     23 H9         -1.5760    0.3980    1.3520 hc        1 S21      0.109700
     24 H9A        -1.7020   -1.1760    1.1120 hc        1 S21      0.109700
@<TRIPOS>BOND
     1    1    6 3   
     2    1   19 1   
     3    2    3 3   
     4    2   20 1   
     5    3   13 1   
     6    4    5 3   
     7    4   21 1   
     8    5   22 1   
     9    6    7 1   
    10    7    8 2   
    11    7    9 1   
    12    9   10 1   
    13    9   23 1   
    14    9   24 1   
    15   10   11 2   
    16   10   12 1   
    17   12   14 1   
    18   12   16 1   
    19   12   18 1   
    20   13   15 1   
    21   13   17 1   
@<TRIPOS>SUBSTRUCTURE
     1 S21         1 TEMP              0 ****  ****    0 ROOT
