@<TRIPOS>MOLECULE
S21
   24    24     1     0     0
SMALL
bcc


@<TRIPOS>ATOM
      1 C1         -0.0530   -0.0920    0.0280 ca        1 S21     -0.095500
      2 C2          1.3370   -0.0070   -0.0160 ca        1 S21     -0.077500
      3 C3          2.0590   -0.0270    1.1870 ca        1 S21     -0.149200
      4 C4          1.4020   -0.1350    2.4230 ca        1 S21     -0.077500
      5 C5          0.0120   -0.2120    2.4480 ca        1 S21     -0.095500
      6 C6         -0.7210   -0.1880    1.2560 ca        1 S21     -0.136600
      7 C7         -2.2000   -0.2730    1.2530 c         1 S21      0.585700
      8 O8         -2.8270   -0.7210    0.2900 o         1 S21     -0.485100
      9 C9         -2.8860    0.2150    2.5020 c3        1 S21     -0.280400
     10 C10        -4.3130    0.6050    2.2800 c         1 S21      0.557100
     11 O11        -4.7260    1.3810    1.4320 o         1 S21     -0.419100
     12 C12        -5.3160   -0.0410    3.2990 c3        1 S21      0.528900
     13 N13         3.5460    0.0640    1.1530 no        1 S21      0.310200
     14 F1C        -5.3100   -1.4110    3.2720 f         1 S21     -0.223300
     15 O1N         4.0960    0.1560    0.0900 o         1 S21     -0.197500
     16 F2C        -5.0340    0.2880    4.6010 f         1 S21     -0.223300
     17 O2N         4.1500    0.0430    2.1920 o         1 S21     -0.197500
     18 F3C        -6.6190    0.3230    3.1070 f         1 S21     -0.223300
     19 H1         -0.6370   -0.0910   -0.9080 ha        1 S21      0.160500
     20 H2          1.8620    0.0720   -0.9840 ha        1 S21      0.179000
     21 H4          1.9810   -0.1580    3.3630 ha        1 S21      0.179000
     22 H5         -0.5010   -0.3030    3.4190 ha        1 S21      0.160500
     23 H9         -2.8270   -0.6010    3.2750 hc        1 S21      0.109700
     24 H9A        -2.3440    1.1160    2.9050 hc        1 S21      0.109700
@<TRIPOS>BOND
     1    1    2 ar  
     2    1    6 ar  
     3    1   19 1   
     4    2    3 ar  
     5    2   20 1   
     6    3    4 ar  
     7    3   13 1   
     8    4    5 ar  
     9    4   21 1   
    10    5    6 ar  
    11    5   22 1   
    12    6    7 1   
    13    7    8 2   
    14    7    9 1   
    15    9   10 1   
    16    9   23 1   
    17    9   24 1   
    18   10   11 2   
    19   10   12 1   
    20   12   14 1   
    21   12   16 1   
    22   12   18 1   
    23   13   15 1   
    24   13   17 1   
@<TRIPOS>SUBSTRUCTURE
     1 S21         1 TEMP              0 ****  ****    0 ROOT
