@<TRIPOS>MOLECULE
S22
   71    75     1     0     0
SMALL
bcc


@<TRIPOS>ATOM
      1 CAT         0.4560    0.3950   -0.0750 c3        1 S22      0.189800
      2 CAU         1.8980    0.8480    0.1400 c3        1 S22     -0.098900
      3 CAV         2.3450    0.5440    1.5650 c3        1 S22      0.141100
      4 OAY         3.6510    1.0870    1.7070 oh        1 S22     -0.596800
      5 CAW         1.3760    1.1630    2.5660 c3        1 S22     -0.098900
      6 CAX        -0.0540    0.7080    2.2830 c3        1 S22      0.189800
      7 NAS        -0.4600    0.9550    0.9060 nh        1 S22     -0.638000
      8 CAN        -1.8430    0.7660    0.6470 ca        1 S22      0.155600
      9 CAO        -2.7850    1.5460    1.3580 ca        1 S22     -0.213000
     10 CAP        -4.1440    1.4480    1.0700 ca        1 S22      0.110100
     11 OAQ        -5.1130    2.1710    1.7480 os        1 S22     -0.347900
     12 CAR        -4.6520    3.2300    2.5770 c3        1 S22      0.119700
     13 CAM        -2.3240   -0.1140   -0.3430 ca        1 S22     -0.200000
     14 CAL        -3.6820   -0.2130   -0.6220 ca        1 S22     -0.060000
     15 CAK        -4.6320    0.5560    0.0700 ca        1 S22      0.075600
     16 NAJ        -6.0200    0.3830   -0.1560 nh        1 S22     -0.690300
     17 CAA        -6.5910    0.6760   -1.4200 ca        1 S22      0.669200
     18 CAB        -8.0310    0.7250   -1.4690 ca        1 S22     -0.354300
     19 NAF        -5.7940    0.8290   -2.5100 nb        1 S22     -0.734000
     20 CAE        -6.4600    1.0130   -3.6860 ca        1 S22      0.478800
     21 NAI        -5.8920    1.1880   -4.9560 na        1 S22     -0.291100
     22 CAH        -6.9300    1.3570   -5.8810 cc        1 S22     -0.117100
     23 CAG        -8.1640    1.2790   -5.2440 cd        1 S22     -0.162200
     24 CAD        -7.9020    1.0580   -3.8450 ca        1 S22     -0.272100
     25 CAC        -8.6960    0.9010   -2.6860 ca        1 S22      0.249600
     26 NAZ       -10.0900    1.0210   -2.7890 nh        1 S22     -0.656000
     27 CBA       -10.9980    0.2440   -2.0710 ca        1 S22      0.293600
     28 CBF       -10.5880   -0.9100   -1.3520 ca        1 S22     -0.212000
     29 CBE       -11.5010   -1.6480   -0.6210 ca        1 S22     -0.035000
     30 CBD       -12.8510   -1.2760   -0.5860 ca        1 S22     -0.191000
     31 CBC       -13.2620   -0.1630   -1.2960 ca        1 S22     -0.008000
     32 CBB       -12.3690    0.6240   -2.0480 ca        1 S22     -0.445500
     33 SBG       -13.0240    1.9290   -2.8640 sy        1 S22      1.372300
     34 OBH       -12.3640    2.1060   -4.0980 o         1 S22     -0.662300
     35 OBI       -14.4240    1.8180   -2.9200 o         1 S22     -0.662300
     36 CBJ       -12.5870    3.2320   -1.8120 c3        1 S22     -0.265900
     37 CBL       -12.8170    4.5510   -2.5170 c3        1 S22     -0.074600
     38 CBK       -13.3510    3.2000   -0.5100 c3        1 S22     -0.074600
     39 HAT         0.4320   -0.7360   -0.0620 h1        1 S22      0.038950
     40 HATA        0.1210    0.7390   -1.0950 h1        1 S22      0.038950
     41 HAU         2.0000    1.9470   -0.0520 hc        1 S22      0.060450
     42 HAUA        2.5580    0.3100   -0.5870 hc        1 S22      0.060450
     43 HAV         2.3920   -0.5720    1.7230 h1        1 S22      0.031700
     44 HOAY        3.9050    0.9650    2.6290 ho        1 S22      0.399000
     45 HAW         1.6480    0.8540    3.6070 hc        1 S22      0.060450
     46 HAWA        1.4500    2.2790    2.5060 hc        1 S22      0.060450
     47 HAX        -0.7510    1.2670    2.9670 h1        1 S22      0.038950
     48 HAXA       -0.1350   -0.3910    2.5360 h1        1 S22      0.038950
     49 HAO        -2.4390    2.2530    2.1260 ha        1 S22      0.143000
     50 HAR        -5.5970    3.7370    2.8990 h1        1 S22      0.045367
     51 HARA       -4.0010    3.9340    2.0030 h1        1 S22      0.045367
     52 HARB       -4.1060    2.8220    3.4620 h1        1 S22      0.045367
     53 HAM        -1.6310   -0.7450   -0.9190 ha        1 S22      0.136000
     54 HAL        -4.0130   -0.9130   -1.4050 ha        1 S22      0.153000
     55 HNAJ       -6.5750    0.7500    0.5950 hn        1 S22      0.422800
     56 HAB        -8.6030    0.6280   -0.5350 ha        1 S22      0.151000
     57 HNAI       -4.9260    1.2400   -5.1460 hn        1 S22      0.309700
     58 HAH        -6.7010    1.5170   -6.9360 h4        1 S22      0.170000
     59 HAG        -9.1430    1.3690   -5.7070 ha        1 S22      0.166000
     60 HNAZ      -10.4150    1.4030   -3.6610 hn        1 S22      0.475800
     61 HBF        -9.5370   -1.2370   -1.3920 ha        1 S22      0.159000
     62 HBE       -11.1650   -2.5430   -0.0720 ha        1 S22      0.139000
     63 HBD       -13.5730   -1.8690   -0.0080 ha        1 S22      0.144000
     64 HBC       -14.3320    0.1220   -1.2890 ha        1 S22      0.161000
     65 HBJ       -11.4890    3.1700   -1.5660 h1        1 S22      0.115700
     66 HBL       -12.2520    4.5820   -3.4810 hc        1 S22      0.051033
     67 HBLA      -13.9060    4.6960   -2.7280 hc        1 S22      0.051033
     68 HBLB      -12.4710    5.3980   -1.8770 hc        1 S22      0.051033
     69 HBK       -13.1370    2.2520    0.0440 hc        1 S22      0.051033
     70 HBKA      -14.4510    3.2650   -0.7030 hc        1 S22      0.051033
     71 HBKB      -13.0560    4.0610    0.1370 hc        1 S22      0.051033
@<TRIPOS>BOND
     1    1    2 1   
     2    1    7 1   
     3    1   39 1   
     4    1   40 1   
     5    2    3 1   
     6    2   41 1   
     7    2   42 1   
     8    3    4 1   
     9    3    5 1   
    10    3   43 1   
    11    4   44 1   
    12    5    6 1   
    13    5   45 1   
    14    5   46 1   
    15    6    7 1   
    16    6   47 1   
    17    6   48 1   
    18    7    8 1   
    19    8    9 ar  
    20    8   13 ar  
    21    9   10 ar  
    22    9   49 1   
    23   10   11 1   
    24   10   15 ar  
    25   11   12 1   
    26   12   50 1   
    27   12   51 1   
    28   12   52 1   
    29   13   14 ar  
    30   13   53 1   
    31   14   15 ar  
    32   14   54 1   
    33   15   16 1   
    34   16   17 1   
    35   16   55 1   
    36   17   18 ar  
    37   17   19 ar  
    38   18   25 ar  
    39   18   56 1   
    40   19   20 ar  
    41   20   21 1   
    42   20   24 ar  
    43   21   22 1   
    44   21   57 1   
    45   22   23 2   
    46   22   58 1   
    47   23   24 1   
    48   23   59 1   
    49   24   25 ar  
    50   25   26 1   
    51   26   27 1   
    52   26   60 1   
    53   27   28 ar  
    54   27   32 ar  
    55   28   29 ar  
    56   28   61 1   
    57   29   30 ar  
    58   29   62 1   
    59   30   31 ar  
    60   30   63 1   
    61   31   32 ar  
    62   31   64 1   
    63   32   33 1   
    64   33   34 2   
    65   33   35 2   
    66   33   36 1   
    67   36   37 1   
    68   36   38 1   
    69   36   65 1   
    70   37   66 1   
    71   37   67 1   
    72   37   68 1   
    73   38   69 1   
    74   38   70 1   
    75   38   71 1   
@<TRIPOS>SUBSTRUCTURE
     1 S22         1 TEMP              0 ****  ****    0 ROOT
