@<TRIPOS>MOLECULE
S22
   73    77     1     0     0
SMALL
bcc


@<TRIPOS>ATOM
      1 CAT         0.2160    1.2670    0.1810 c3        1 S22      0.188800
      2 CAU         0.1520    2.7550   -0.1650 c3        1 S22     -0.127400
      3 CAV         0.2090    3.6370    1.0820 c3        1 S22      0.145100
      4 OAY        -0.1640    4.9660    0.7490 oh        1 S22     -0.591800
      5 CAW        -0.7840    3.1790    2.1490 c3        1 S22     -0.127400
      6 CAX        -0.6370    1.6820    2.4010 c3        1 S22      0.188800
      7 NAS        -0.7530    0.8720    1.1960 nh        1 S22     -0.621000
      8 CAN        -1.9350    0.2580    0.8530 ca        1 S22      0.288600
      9 CAO        -3.1350    0.4500    1.5980 ca        1 S22     -0.281000
     10 CAP        -4.2800   -0.2830    1.3170 ca        1 S22      0.210100
     11 OAQ        -5.4770   -0.1190    1.9870 os        1 S22     -0.392900
     12 CAR        -5.4080    0.5070    3.2740 c3        1 S22      0.115700
     13 CAM        -1.9860   -0.6840   -0.2290 ca        1 S22     -0.204000
     14 CAL        -3.1230   -1.4060   -0.5060 ca        1 S22     -0.021000
     15 CAK        -4.2900   -1.2410    0.2710 ca        1 S22     -0.204400
     16 NAJ        -5.4650   -2.0670    0.0240 n4        1 S22     -0.574100
     17 CAA        -6.3090   -1.5570   -1.0890 ca        1 S22      0.481200
     18 CAB        -7.0350   -0.3520   -0.8850 ca        1 S22     -0.207300
     19 NAF        -6.3060   -2.2940   -2.2280 nb        1 S22     -0.610000
     20 CAE        -7.0640   -1.8020   -3.2320 ca        1 S22      0.447800
     21 NAI        -7.2440   -2.3260   -4.5200 na        1 S22     -0.253100
     22 CAH        -8.0810   -1.4700   -5.2260 cc        1 S22      0.009900
     23 CAG        -8.4750   -0.3840   -4.4290 cd        1 S22     -0.203200
     24 CAD        -7.8620   -0.5590   -3.1510 ca        1 S22     -0.131100
     25 CAC        -7.8290    0.1340   -1.9330 ca        1 S22      0.042600
     26 NAZ        -8.5860    1.3840   -1.7910 n4        1 S22     -0.532800
     27 CBA        -9.9490    1.1970   -1.2470 ca        1 S22      0.073600
     28 CBF       -10.0670    0.5160   -0.0270 ca        1 S22     -0.131000
     29 CBE       -11.3260    0.2950    0.5350 ca        1 S22     -0.052000
     30 CBD       -12.4660    0.7390   -0.1260 ca        1 S22     -0.086000
     31 CBC       -12.3360    1.4250   -1.3340 ca        1 S22     -0.025000
     32 CBB       -11.0890    1.6960   -1.9180 ca        1 S22     -0.316500
     33 SBG       -11.1960    2.5490   -3.4170 sy        1 S22      1.346300
     34 OBH        -9.9080    2.4020   -3.9960 o         1 S22     -0.642300
     35 OBI       -12.2870    2.0640   -4.1270 o         1 S22     -0.642300
     36 CBJ       -11.4000    4.1570   -2.8840 c3        1 S22     -0.274900
     37 CBL       -11.1050    5.0890   -4.0500 c3        1 S22     -0.092100
     38 CBK       -12.7900    4.4430   -2.3550 c3        1 S22     -0.092100
     39 HAT         0.0760    0.6730   -0.7620 h1        1 S22      0.074200
     40 HATA        1.2360    1.0230    0.5970 h1        1 S22      0.074200
     41 HAU         1.0180    2.9950   -0.8350 hc        1 S22      0.070700
     42 HAUA       -0.7880    2.9860   -0.7310 hc        1 S22      0.070700
     43 HAV         1.2520    3.6200    1.5070 h1        1 S22      0.051700
     44 HOAY        0.5680    5.3490    0.2490 ho        1 S22      0.417000
     45 HAW        -1.8250    3.4320    1.8210 hc        1 S22      0.070700
     46 HAWA       -0.5840    3.7330    3.1030 hc        1 S22      0.070700
     47 HAX        -1.3710    1.3440    3.1810 h1        1 S22      0.074200
     48 HAXA        0.3970    1.4790    2.8110 h1        1 S22      0.074200
     49 HAO        -3.1750    1.2050    2.3980 ha        1 S22      0.169000
     50 HAR        -4.6150    0.0370    3.9020 h1        1 S22      0.068033
     51 HARA       -5.2250    1.6020    3.1490 h1        1 S22      0.068033
     52 HARB       -6.4240    0.3190    3.7050 h1        1 S22      0.068033
     53 HAM        -1.0890   -0.8760   -0.8410 ha        1 S22      0.172000
     54 HAL        -3.1090   -2.1330   -1.3370 ha        1 S22      0.158000
     55 HNAJ       -6.0450   -2.0760    0.8760 hn        1 S22      0.476300
     56 HAB        -6.9390    0.1830    0.0760 ha        1 S22      0.185000
     57 HNAI       -6.8280   -3.1620   -4.8600 hn        1 S22      0.349700
     58 HAH        -8.3500   -1.6870   -6.2700 h4        1 S22      0.221000
     59 HAG        -9.1080    0.4470   -4.7480 ha        1 S22      0.216000
     60 HNAZ       -8.0760    2.0090   -1.1530 hn        1 S22      0.488800
     61 HBF        -9.1780    0.1370    0.5030 ha        1 S22      0.148000
     62 HBE       -11.4090   -0.2390    1.4980 ha        1 S22      0.177000
     63 HBD       -13.4700    0.5490    0.2960 ha        1 S22      0.188000
     64 HBC       -13.2570    1.7510   -1.8630 ha        1 S22      0.190000
     65 HBJ       -10.6720    4.4170   -2.0650 h1        1 S22      0.113700
     66 HBL       -11.8790    4.9740   -4.8490 hc        1 S22      0.071700
     67 HBLA      -10.0940    4.8800   -4.4780 hc        1 S22      0.071700
     68 HBLB      -11.1270    6.1520   -3.7040 hc        1 S22      0.071700
     69 HBK       -12.9420    3.9600   -1.3590 hc        1 S22      0.071700
     70 HBKA      -12.9350    5.5450   -2.2280 hc        1 S22      0.071700
     71 HBKB      -13.5680    4.0740   -3.0710 hc        1 S22      0.071700
     72 HAJ2       -5.1500   -3.0270   -0.1850 hn        1 S22      0.476300
     73 HAZ2       -8.6210    1.8270   -2.7380 hn        1 S22      0.488800
@<TRIPOS>BOND
     1    1    2 1   
     2    1    7 1   
     3    1   39 1   
     4    1   40 1   
     5    2    3 1   
     6    2   41 1   
     7    2   42 1   
     8    3    4 1   
     9    3    5 1   
    10    3   43 1   
    11    4   44 1   
    12    5    6 1   
    13    5   45 1   
    14    5   46 1   
    15    6    7 1   
    16    6   47 1   
    17    6   48 1   
    18    7    8 1   
    19    8    9 ar  
    20    8   13 ar  
    21    9   10 ar  
    22    9   49 1   
    23   10   11 1   
    24   10   15 ar  
    25   11   12 1   
    26   12   50 1   
    27   12   51 1   
    28   12   52 1   
    29   13   14 ar  
    30   13   53 1   
    31   14   15 ar  
    32   14   54 1   
    33   15   16 1   
    34   16   17 1   
    35   16   55 1   
    36   16   72 1   
    37   17   18 ar  
    38   17   19 ar  
    39   18   25 ar  
    40   18   56 1   
    41   19   20 ar  
    42   20   21 1   
    43   20   24 ar  
    44   21   22 1   
    45   21   57 1   
    46   22   23 2   
    47   22   58 1   
    48   23   24 1   
    49   23   59 1   
    50   24   25 ar  
    51   25   26 1   
    52   26   27 1   
    53   26   60 1   
    54   26   73 1   
    55   27   28 ar  
    56   27   32 ar  
    57   28   29 ar  
    58   28   61 1   
    59   29   30 ar  
    60   29   62 1   
    61   30   31 ar  
    62   30   63 1   
    63   31   32 ar  
    64   31   64 1   
    65   32   33 1   
    66   33   34 2   
    67   33   35 2   
    68   33   36 1   
    69   36   37 1   
    70   36   38 1   
    71   36   65 1   
    72   37   66 1   
    73   37   67 1   
    74   37   68 1   
    75   38   69 1   
    76   38   70 1   
    77   38   71 1   
@<TRIPOS>SUBSTRUCTURE
     1 S22         1 TEMP              0 ****  ****    0 ROOT
