@<TRIPOS>MOLECULE
S22
   71    75     1     0     0
SMALL
bcc


@<TRIPOS>ATOM
      1 CAT         7.2330    1.1810    0.3930 c3        1 S22      0.189800
      2 CAU         8.6580    0.9820    0.9070 c3        1 S22     -0.098900
      3 CAV         9.5160    0.3000   -0.1520 c3        1 S22      0.141100
      4 OAY        10.7850    0.0630    0.4430 oh        1 S22     -0.596800
      5 CAW         8.8630   -1.0020   -0.6030 c3        1 S22     -0.098900
      6 CAX         7.4310   -0.7530   -1.0700 c3        1 S22      0.189800
      7 NAS         6.6280   -0.0560   -0.0740 nh        1 S22     -0.638000
      8 CAN         5.2380   -0.0020   -0.3570 ca        1 S22      0.155600
      9 CAO         4.5200   -1.2130   -0.4950 ca        1 S22     -0.213000
     10 CAP         3.1410   -1.1980   -0.6890 ca        1 S22      0.110100
     11 OAQ         2.3890   -2.3510   -0.8520 os        1 S22     -0.347900
     12 CAR         3.0360   -3.5800   -0.5440 c3        1 S22      0.119700
     13 CAM         4.5190    1.2070   -0.4350 ca        1 S22     -0.200000
     14 CAL         3.1430    1.2160   -0.6350 ca        1 S22     -0.060000
     15 CAK         2.4130    0.0250   -0.7700 ca        1 S22      0.075600
     16 NAJ         1.0270    0.0450   -1.0650 nh        1 S22     -0.690300
     17 CAA         0.0980    0.6000   -0.1490 ca        1 S22      0.669200
     18 CAB        -1.2930    0.3350   -0.4170 ca        1 S22     -0.354300
     19 NAF         0.5330    1.3880    0.8700 nb        1 S22     -0.734000
     20 CAE        -0.4570    1.9420    1.6280 ca        1 S22      0.478800
     21 NAI        -0.2950    2.7950    2.7290 na        1 S22     -0.291100
     22 CAH        -1.5650    3.1190    3.2230 cc        1 S22     -0.117100
     23 CAG        -2.5530    2.5100    2.4560 cd        1 S22     -0.162200
     24 CAD        -1.8820    1.7540    1.4300 ca        1 S22     -0.272100
     25 CAC        -2.2940    0.9230    0.3630 ca        1 S22      0.249600
     26 NAZ        -3.6590    0.6520    0.1910 nh        1 S22     -0.656000
     27 CBA        -4.2860    0.5400   -1.0490 ca        1 S22      0.293600
     28 CBF        -3.6400    0.9330   -2.2510 ca        1 S22     -0.212000
     29 CBE        -4.2690    0.7840   -3.4730 ca        1 S22     -0.035000
     30 CBD        -5.5610    0.2500   -3.5470 ca        1 S22     -0.191000
     31 CBC        -6.2050   -0.1210   -2.3810 ca        1 S22     -0.008000
     32 CBB        -5.6030    0.0040   -1.1140 ca        1 S22     -0.445500
     33 SBG        -6.5170   -0.4750    0.2020 sy        1 S22      1.372300
     34 OBH        -6.2570    0.3690    1.3030 o         1 S22     -0.662300
     35 OBI        -7.8670   -0.6150   -0.1660 o         1 S22     -0.662300
     36 CBJ        -5.8390   -2.0330    0.5280 c3        1 S22     -0.265900
     37 CBL        -6.3160   -2.5200    1.8800 c3        1 S22     -0.074600
     38 CBK        -6.1860   -3.0440   -0.5390 c3        1 S22     -0.074600
     39 HAT         6.6010    1.5770    1.2370 h1        1 S22      0.038950
     40 HATA        7.2560    1.9620   -0.4240 h1        1 S22      0.038950
     41 HAU         9.0940    1.9820    1.1600 hc        1 S22      0.060450
     42 HAUA        8.6580    0.3600    1.8380 hc        1 S22      0.060450
     43 HAV         9.6480    0.9840   -1.0390 h1        1 S22      0.031700
     44 HOAY       11.3030   -0.4380   -0.1990 ho        1 S22      0.399000
     45 HAW         9.4410   -1.4500   -1.4510 hc        1 S22      0.060450
     46 HAWA        8.8750   -1.7320    0.2470 hc        1 S22      0.060450
     47 HAX         7.4680   -0.1690   -2.0370 h1        1 S22      0.038950
     48 HAXA        6.9470   -1.7450   -1.2890 h1        1 S22      0.038950
     49 HAO         5.0510   -2.1740   -0.4230 ha        1 S22      0.143000
     50 HAR         3.8330   -3.7990   -1.2960 h1        1 S22      0.045367
     51 HARA        3.4630   -3.5610    0.4870 h1        1 S22      0.045367
     52 HARB        2.2110   -4.3330   -0.6180 h1        1 S22      0.045367
     53 HAM         5.0330    2.1750   -0.3390 ha        1 S22      0.136000
     54 HAL         2.6210    2.1860   -0.6880 ha        1 S22      0.153000
     55 HNAJ        0.7040   -0.8320   -1.4330 hn        1 S22      0.422800
     56 HAB        -1.5600   -0.3430   -1.2410 ha        1 S22      0.151000
     57 HNAI        0.5690    3.0660    3.1170 hn        1 S22      0.309700
     58 HAH        -1.6640    3.7720    4.0910 h4        1 S22      0.170000
     59 HAG        -3.6270    2.5840    2.6000 ha        1 S22      0.166000
     60 HNAZ       -4.2400    0.9220    0.9670 hn        1 S22      0.475800
     61 HBF        -2.6350    1.3850   -2.2110 ha        1 S22      0.159000
     62 HBE        -3.7530    1.0990   -4.3940 ha        1 S22      0.139000
     63 HBD        -6.0590    0.1380   -4.5200 ha        1 S22      0.144000
     64 HBC        -7.2350   -0.5230   -2.4320 ha        1 S22      0.161000
     65 HBJ        -4.7160   -1.9560    0.5750 h1        1 S22      0.115700
     66 HBL        -7.4230   -2.6770    1.8700 hc        1 S22      0.051033
     67 HBLA       -5.8280   -3.4910    2.1350 hc        1 S22      0.051033
     68 HBLB       -6.0600   -1.7750    2.6740 hc        1 S22      0.051033
     69 HBK        -5.7840   -2.7190   -1.5300 hc        1 S22      0.051033
     70 HBKA       -5.7460   -4.0400   -0.2890 hc        1 S22      0.051033
     71 HBKB       -7.2950   -3.1590   -0.6190 hc        1 S22      0.051033
@<TRIPOS>BOND
     1    1    2 1   
     2    1    7 1   
     3    1   39 1   
     4    1   40 1   
     5    2    3 1   
     6    2   41 1   
     7    2   42 1   
     8    3    4 1   
     9    3    5 1   
    10    3   43 1   
    11    4   44 1   
    12    5    6 1   
    13    5   45 1   
    14    5   46 1   
    15    6    7 1   
    16    6   47 1   
    17    6   48 1   
    18    7    8 1   
    19    8    9 ar  
    20    8   13 ar  
    21    9   10 ar  
    22    9   49 1   
    23   10   11 1   
    24   10   15 ar  
    25   11   12 1   
    26   12   50 1   
    27   12   51 1   
    28   12   52 1   
    29   13   14 ar  
    30   13   53 1   
    31   14   15 ar  
    32   14   54 1   
    33   15   16 1   
    34   16   17 1   
    35   16   55 1   
    36   17   18 ar  
    37   17   19 ar  
    38   18   25 ar  
    39   18   56 1   
    40   19   20 ar  
    41   20   21 1   
    42   20   24 ar  
    43   21   22 1   
    44   21   57 1   
    45   22   23 2   
    46   22   58 1   
    47   23   24 1   
    48   23   59 1   
    49   24   25 ar  
    50   25   26 1   
    51   26   27 1   
    52   26   60 1   
    53   27   28 ar  
    54   27   32 ar  
    55   28   29 ar  
    56   28   61 1   
    57   29   30 ar  
    58   29   62 1   
    59   30   31 ar  
    60   30   63 1   
    61   31   32 ar  
    62   31   64 1   
    63   32   33 1   
    64   33   34 2   
    65   33   35 2   
    66   33   36 1   
    67   36   37 1   
    68   36   38 1   
    69   36   65 1   
    70   37   66 1   
    71   37   67 1   
    72   37   68 1   
    73   38   69 1   
    74   38   70 1   
    75   38   71 1   
@<TRIPOS>SUBSTRUCTURE
     1 S22         1 TEMP              0 ****  ****    0 ROOT
