@<TRIPOS>MOLECULE
S22
   71    75     1     0     0
SMALL
bcc


@<TRIPOS>ATOM
      1 CAT         0.4440    0.3770   -0.0110 c3        1 S22      0.189800
      2 CAU         1.8870    0.8270    0.2070 c3        1 S22     -0.099400
      3 CAV         2.3270    0.5560    1.6410 c3        1 S22      0.141100
      4 OAY         3.6050    1.1190    1.9060 oh        1 S22     -0.596800
      5 CAW         1.3540    1.2020    2.6220 c3        1 S22     -0.099400
      6 CAX        -0.0730    0.7400    2.3380 c3        1 S22      0.189800
      7 NAS        -0.4730    0.9600    0.9540 nh        1 S22     -0.638000
      8 CAN        -1.8560    0.7730    0.6910 ca        1 S22      0.156600
      9 CAO        -2.7970    1.5690    1.3840 ca        1 S22     -0.213000
     10 CAP        -4.1550    1.4710    1.0910 ca        1 S22      0.111100
     11 OAQ        -5.1250    2.2120    1.7490 os        1 S22     -0.347900
     12 CAR        -4.6630    3.2560    2.5970 c3        1 S22      0.119700
     13 CAM        -2.3350   -0.1210   -0.2860 ca        1 S22     -0.202000
     14 CAL        -3.6920   -0.2190   -0.5710 ca        1 S22     -0.059000
     15 CAK        -4.6420    0.5660    0.1040 ca        1 S22      0.074600
     16 NAJ        -6.0300    0.3940   -0.1270 nu        1 S22     -0.690300
     17 CAA        -6.5940    0.6700   -1.3980 ca        1 S22      0.669200
     18 CAB        -8.0330    0.7240   -1.4540 ca        1 S22     -0.354300
     19 NAF        -5.7910    0.8020   -2.4860 nb        1 S22     -0.735000
     20 CAE        -6.4510    0.9710   -3.6680 ca        1 S22      0.478800
     21 NAI        -5.8770    1.1230   -4.9380 na        1 S22     -0.291100
     22 CAH        -6.9100    1.2820   -5.8700 cc        1 S22     -0.118100
     23 CAG        -8.1470    1.2190   -5.2370 cd        1 S22     -0.162200
     24 CAD        -7.8920    1.0190   -3.8340 ca        1 S22     -0.272100
     25 CAC        -8.6930    0.8840   -2.6760 ca        1 S22      0.249600
     26 NAZ       -10.0850    1.0080   -2.7870 nu        1 S22     -0.656000
     27 CBA       -11.0000    0.2460   -2.0620 ca        1 S22      0.293600
     28 CBF       -10.5990   -0.8970   -1.3210 ca        1 S22     -0.212000
     29 CBE       -11.5180   -1.6200   -0.5830 ca        1 S22     -0.035000
     30 CBD       -12.8660   -1.2420   -0.5610 ca        1 S22     -0.191000
     31 CBC       -13.2690   -0.1390   -1.2900 ca        1 S22     -0.008000
     32 CBB       -12.3690    0.6330   -2.0510 ca        1 S22     -0.445500
     33 SBG       -13.0150    1.9270   -2.8910 sy        1 S22      1.372300
     34 OBH       -12.3490    2.0810   -4.1250 o         1 S22     -0.662300
     35 OBI       -14.4150    1.8210   -2.9520 o         1 S22     -0.662300
     36 CBJ       -12.5770    3.2450   -1.8580 c3        1 S22     -0.265900
     37 CBL       -12.7970    4.5540   -2.5860 c3        1 S22     -0.074600
     38 CBK       -13.3480    3.2370   -0.5600 c3        1 S22     -0.074600
     39 HAT         0.4170   -0.7530    0.0240 h1        1 S22      0.039200
     40 HATA        0.1170    0.7010   -1.0400 h1        1 S22      0.039200
     41 HAU         2.5450    0.2690   -0.5090 hc        1 S22      0.060200
     42 HAUA        1.9910    1.9210   -0.0100 hc        1 S22      0.060200
     43 HAV         2.3720   -0.5560    1.8210 h1        1 S22      0.031700
     44 HOAY        4.2040    0.7800    1.2310 ho        1 S22      0.400000
     45 HAW         1.6270    0.9140    3.6690 hc        1 S22      0.060200
     46 HAWA        1.4330    2.3160    2.5390 hc        1 S22      0.060200
     47 HAX        -0.1570   -0.3540    2.6110 h1        1 S22      0.039200
     48 HAXA       -0.7740    1.3130    3.0070 h1        1 S22      0.039200
     49 HAO        -2.4510    2.2880    2.1420 ha        1 S22      0.144000
     50 HAR        -4.0010    3.9610    2.0390 h1        1 S22      0.045700
     51 HARA       -5.6070    3.7660    2.9160 h1        1 S22      0.045700
     52 HARB       -4.1290    2.8310    3.4820 h1        1 S22      0.045700
     53 HAM        -1.6430   -0.7660   -0.8480 ha        1 S22      0.135000
     54 HAL        -4.0230   -0.9310   -1.3440 ha        1 S22      0.153000
     55 HNAJ       -6.5880    0.7750    0.6170 hn        1 S22      0.422800
     56 HAB        -8.6100    0.6440   -0.5210 ha        1 S22      0.151000
     57 HNAI       -4.9100    1.1700   -5.1240 hn        1 S22      0.308700
     58 HAH        -6.6760    1.4250   -6.9270 h4        1 S22      0.170000
     59 HAG        -9.1240    1.3060   -5.7070 ha        1 S22      0.166000
     60 HNAZ      -10.4050    1.3770   -3.6670 hn        1 S22      0.475800
     61 HBF        -9.5480   -1.2300   -1.3510 ha        1 S22      0.158000
     62 HBE       -11.1890   -2.5070   -0.0180 ha        1 S22      0.139000
     63 HBD       -13.5940   -1.8220    0.0240 ha        1 S22      0.144000
     64 HBC       -14.3380    0.1510   -1.2930 ha        1 S22      0.161000
     65 HBJ       -11.4810    3.1820   -1.6050 h1        1 S22      0.115700
     66 HBL       -12.4500    5.4090   -1.9580 hc        1 S22      0.051033
     67 HBLA      -12.2270    4.5660   -3.5480 hc        1 S22      0.051033
     68 HBLB      -13.8840    4.7000   -2.8040 hc        1 S22      0.051033
     69 HBK       -13.0520    4.1070    0.0740 hc        1 S22      0.051033
     70 HBKA      -14.4470    3.3040   -0.7600 hc        1 S22      0.051033
     71 HBKB      -13.1420    2.2980    0.0110 hc        1 S22      0.051033
@<TRIPOS>BOND
     1    1    2 1   
     2    1    7 1   
     3    1   39 1   
     4    1   40 1   
     5    2    3 1   
     6    2   41 1   
     7    2   42 1   
     8    3    4 1   
     9    3    5 1   
    10    3   43 1   
    11    4   44 1   
    12    5    6 1   
    13    5   45 1   
    14    5   46 1   
    15    6    7 1   
    16    6   47 1   
    17    6   48 1   
    18    7    8 1   
    19    8    9 ar  
    20    8   13 ar  
    21    9   10 ar  
    22    9   49 1   
    23   10   11 1   
    24   10   15 ar  
    25   11   12 1   
    26   12   50 1   
    27   12   51 1   
    28   12   52 1   
    29   13   14 ar  
    30   13   53 1   
    31   14   15 ar  
    32   14   54 1   
    33   15   16 1   
    34   16   17 1   
    35   16   55 1   
    36   17   18 ar  
    37   17   19 ar  
    38   18   25 ar  
    39   18   56 1   
    40   19   20 ar  
    41   20   21 1   
    42   20   24 ar  
    43   21   22 1   
    44   21   57 1   
    45   22   23 2   
    46   22   58 1   
    47   23   24 1   
    48   23   59 1   
    49   24   25 ar  
    50   25   26 1   
    51   26   27 1   
    52   26   60 1   
    53   27   28 ar  
    54   27   32 ar  
    55   28   29 ar  
    56   28   61 1   
    57   29   30 ar  
    58   29   62 1   
    59   30   31 ar  
    60   30   63 1   
    61   31   32 ar  
    62   31   64 1   
    63   32   33 1   
    64   33   34 2   
    65   33   35 2   
    66   33   36 1   
    67   36   37 1   
    68   36   38 1   
    69   36   65 1   
    70   37   66 1   
    71   37   67 1   
    72   37   68 1   
    73   38   69 1   
    74   38   70 1   
    75   38   71 1   
@<TRIPOS>SUBSTRUCTURE
     1 S22         1 TEMP              0 ****  ****    0 ROOT
