@<TRIPOS>MOLECULE
S23
   56    57     1     0     0
SMALL
bcc


@<TRIPOS>ATOM
      1 O2          0.2550   -0.2330    0.8810 o         1 S23     -0.842000
      2 P           1.5830    0.2510    0.4170 p5        1 S23      1.258400
      3 O1          2.4530   -0.5420   -0.4820 o         1 S23     -0.842000
      4 C1          2.4240    0.4800    1.9980 c3        1 S23     -0.116700
      5 N1          1.6320   -0.1450    3.0750 nz        1 S23     -0.822600
      6 C2          3.7840   -0.1320    1.8000 c3        1 S23     -0.115100
      7 C3          1.5580    1.8270   -0.1630 c3        1 S23     -0.389600
      8 C4          1.4020    1.8200   -1.6710 c3        1 S23     -0.089700
      9 C6          0.6550    3.0510   -2.1890 c3        1 S23     -0.038100
     10 C7         -0.7750    3.0490   -1.7790 ca        1 S23     -0.093300
     11 C8         -1.2260    3.9150   -0.7780 ca        1 S23     -0.122000
     12 C10        -2.5720    3.9270   -0.4140 ca        1 S23     -0.124500
     13 C12        -3.4750    3.0730   -1.0460 ca        1 S23     -0.122000
     14 C11        -3.0300    2.2080   -2.0470 ca        1 S23     -0.124500
     15 C9         -1.6860    2.1960   -2.4150 ca        1 S23     -0.122000
     16 C5          2.7700    1.8110   -2.3590 c         1 S23      0.558100
     17 O3          3.5440    2.7630   -2.3670 o         1 S23     -0.461100
     18 N2          3.1400    0.5360   -3.0160 ny        1 S23     -0.656800
     19 C13         4.2400    0.6090   -4.0280 c3        1 S23     -0.053500
     20 C14         3.6270    0.4320   -5.4960 c         1 S23      0.931600
     21 O4          4.4480    0.5180   -6.4260 o         1 S23     -0.771800
     22 O5          2.3820    0.2350   -5.5430 o         1 S23     -0.771800
     23 C15         5.3000   -0.4620   -3.8040 c3        1 S23     -0.050100
     24 C16         6.1400   -0.2070   -2.6030 ca        1 S23     -0.094300
     25 C17         7.3390    0.5070   -2.7320 ca        1 S23     -0.128000
     26 C19         8.1480    0.7340   -1.6200 ca        1 S23     -0.136500
     27 C21         7.7690    0.2500   -0.3680 ca        1 S23     -0.134000
     28 C20         6.5750   -0.4580   -0.2330 ca        1 S23     -0.136500
     29 C18         5.7610   -0.6860   -1.3430 ca        1 S23     -0.128000
     30 H1          2.5270    1.5720    2.2350 hx        1 S23      0.099700
     31 HN1         1.4830    0.5030    3.8460 hn        1 S23      0.454133
     32 HN1A        0.6940   -0.4220    2.6570 hn        1 S23      0.454133
     33 H2          4.4330   -0.0570    2.7050 hc        1 S23      0.071700
     34 H2A         4.2810    0.4040    0.9500 hc        1 S23      0.071700
     35 H2B         3.6880   -1.2030    1.4880 hc        1 S23      0.071700
     36 H3          2.4690    2.4180    0.1080 hc        1 S23      0.103200
     37 H3A         0.6870    2.3950    0.2650 hc        1 S23      0.103200
     38 H4          0.8110    0.9020   -1.9600 hc        1 S23      0.090700
     39 H6          1.1740    3.9730   -1.8120 hc        1 S23      0.072700
     40 H6A         0.7160    3.0670   -3.3120 hc        1 S23      0.072700
     41 H8         -0.5190    4.5980   -0.2840 ha        1 S23      0.134000
     42 H10        -2.9220    4.6140    0.3700 ha        1 S23      0.134500
     43 H12        -4.5370    3.0820   -0.7580 ha        1 S23      0.134000
     44 H11        -3.7410    1.5340   -2.5490 ha        1 S23      0.134500
     45 H9         -1.3390    1.5180   -3.2100 ha        1 S23      0.134000
     46 HN2         3.3680   -0.1540   -2.2760 hn        1 S23      0.492300
     47 H13         4.7120    1.6300   -3.9860 hx        1 S23      0.106700
     48 H15         5.9360   -0.4580   -4.7360 hc        1 S23      0.089200
     49 H15A        4.8260   -1.4780   -3.7350 hc        1 S23      0.089200
     50 H17         7.6410    0.8860   -3.7210 ha        1 S23      0.149500
     51 H19         9.0880    1.2940   -1.7330 ha        1 S23      0.125500
     52 H21         8.4110    0.4230    0.5070 ha        1 S23      0.126000
     53 H20         6.2740   -0.8460    0.7510 ha        1 S23      0.125500
     54 H18         4.8200   -1.2490   -1.2140 ha        1 S23      0.149500
     55 H131        2.1010   -0.9750    3.4430 hn        1 S23      0.454133
     56 H22         2.3010    0.1900   -3.5420 hn        1 S23      0.492300
@<TRIPOS>BOND
     1    1    2 1   
     2    2    3 1   
     3    2    4 1   
     4    2    7 1   
     5    4    5 1   
     6    4    6 1   
     7    4   30 1   
     8    5   31 1   
     9    5   32 1   
    10    5   55 1   
    11    6   33 1   
    12    6   34 1   
    13    6   35 1   
    14    7    8 1   
    15    7   36 1   
    16    7   37 1   
    17    8    9 1   
    18    8   16 1   
    19    8   38 1   
    20    9   10 1   
    21    9   39 1   
    22    9   40 1   
    23   10   11 ar  
    24   10   15 ar  
    25   11   12 ar  
    26   11   41 1   
    27   12   13 ar  
    28   12   42 1   
    29   13   14 ar  
    30   13   43 1   
    31   14   15 ar  
    32   14   44 1   
    33   15   45 1   
    34   16   17 2   
    35   16   18 1   
    36   18   19 1   
    37   18   46 1   
    38   18   56 1   
    39   19   20 1   
    40   19   23 1   
    41   19   47 1   
    42   20   21 1   
    43   20   22 1   
    44   23   24 1   
    45   23   48 1   
    46   23   49 1   
    47   24   25 ar  
    48   24   29 ar  
    49   25   26 ar  
    50   25   50 1   
    51   26   27 ar  
    52   26   51 1   
    53   27   28 ar  
    54   27   52 1   
    55   28   29 ar  
    56   28   53 1   
    57   29   54 1   
@<TRIPOS>SUBSTRUCTURE
     1 S23         1 TEMP              0 ****  ****    0 ROOT
