@<TRIPOS>MOLECULE
S23
   55    56     1     0     0
SMALL
bcc


@<TRIPOS>ATOM
      1 O2         -2.1110    0.6030    2.0360 o         1 S23     -0.878300
      2 P          -1.4880    1.4190    0.9950 p5        1 S23      1.505100
      3 O1          0.0050    1.7810    1.4860 oh        1 S23     -0.807400
      4 C1         -2.1940    2.9330    0.8050 c3        1 S23     -0.122700
      5 N1         -3.5740    2.7440    0.4160 n3        1 S23     -0.887800
      6 C2         -1.9560    3.6750    2.1090 c3        1 S23     -0.135100
      7 C3         -1.3220    0.7850   -0.5090 c3        1 S23     -0.432600
      8 C4         -0.8900   -0.6690   -0.4550 c3        1 S23     -0.118700
      9 C6         -1.5910   -1.5260   -1.5050 c3        1 S23     -0.033100
     10 C7         -3.0600   -1.6270   -1.2910 ca        1 S23     -0.076300
     11 C8         -3.9500   -1.0320   -2.1930 ca        1 S23     -0.120500
     12 C10        -5.3270   -1.1540   -2.0100 ca        1 S23     -0.132500
     13 C12        -5.8270   -1.8690   -0.9220 ca        1 S23     -0.141000
     14 C11        -4.9460   -2.4610   -0.0170 ca        1 S23     -0.132500
     15 C9         -3.5700   -2.3430   -0.2000 ca        1 S23     -0.120500
     16 C5          0.6260   -0.7740   -0.7380 c         1 S23      0.632100
     17 O3          1.0480   -0.5270   -1.8870 o         1 S23     -0.623100
     18 N2          1.4340   -1.0240    0.3480 n         1 S23     -0.509900
     19 C13         2.8400   -1.3580    0.1930 c3        1 S23     -0.063300
     20 C14         3.1930   -2.7410    0.8670 c         1 S23      0.909600
     21 O4          2.3080   -3.3070    1.5660 o         1 S23     -0.825300
     22 O5          4.3510   -3.1810    0.6520 o         1 S23     -0.825300
     23 C15         3.7660   -0.3010    0.8160 c3        1 S23     -0.039100
     24 C16         3.9220    0.9180   -0.0210 ca        1 S23     -0.047300
     25 C17         4.8390    0.9240   -1.0830 ca        1 S23     -0.126500
     26 C19         5.0200    2.0690   -1.8540 ca        1 S23     -0.138000
     27 C21         4.2890    3.2240   -1.5760 ca        1 S23     -0.154000
     28 C20         3.3690    3.2240   -0.5290 ca        1 S23     -0.138000
     29 C18         3.1840    2.0780    0.2430 ca        1 S23     -0.126500
     30 HO1         0.4830    1.0970    1.9510 ho        1 S23      0.484000
     31 H1         -1.7000    3.5260   -0.0190 h1        1 S23      0.098700
     32 HN1        -4.0530    2.2430    1.1440 hn        1 S23      0.354800
     33 HN1A       -4.0320    3.6230    0.2730 hn        1 S23      0.354800
     34 H2         -0.8560    3.8090    2.2500 hc        1 S23      0.055700
     35 H2A        -2.4480    4.6750    2.1190 hc        1 S23      0.055700
     36 H2B        -2.3510    3.0630    2.9590 hc        1 S23      0.055700
     37 H3         -2.2880    0.8400   -1.0850 hc        1 S23      0.124700
     38 H3A        -0.5850    1.3480   -1.1450 hc        1 S23      0.124700
     39 H4         -1.1490   -1.0830    0.5640 hc        1 S23      0.081700
     40 H6         -1.3670   -1.0980   -2.5190 hc        1 S23      0.069700
     41 H6A        -1.1450   -2.5580   -1.4720 hc        1 S23      0.069700
     42 H8         -3.5590   -0.4650   -3.0510 ha        1 S23      0.138500
     43 H10        -6.0170   -0.6820   -2.7230 ha        1 S23      0.124000
     44 H12        -6.9120   -1.9630   -0.7770 ha        1 S23      0.119000
     45 H11        -5.3360   -3.0180    0.8470 ha        1 S23      0.124000
     46 H9         -2.8750   -2.8030    0.5210 ha        1 S23      0.138500
     47 HN2         1.0150   -1.5380    1.1050 hn        1 S23      0.320500
     48 H13         3.0870   -1.4460   -0.9040 h1        1 S23      0.074700
     49 H15         3.3980   -0.0190    1.8370 hc        1 S23      0.061700
     50 H15A        4.7680   -0.7990    0.9400 hc        1 S23      0.061700
     51 H17         5.4070    0.0070   -1.3060 ha        1 S23      0.140000
     52 H19         5.7380    2.0610   -2.6860 ha        1 S23      0.113500
     53 H21         4.4340    4.1280   -2.1840 ha        1 S23      0.110000
     54 H20         2.7830    4.1280   -0.3130 ha        1 S23      0.113500
     55 H18         2.4370    2.0780    1.0530 ha        1 S23      0.140000
@<TRIPOS>BOND
     1    1    2 2   
     2    2    3 1   
     3    2    4 1   
     4    2    7 1   
     5    3   30 1   
     6    4    5 1   
     7    4    6 1   
     8    4   31 1   
     9    5   32 1   
    10    5   33 1   
    11    6   34 1   
    12    6   35 1   
    13    6   36 1   
    14    7    8 1   
    15    7   37 1   
    16    7   38 1   
    17    8    9 1   
    18    8   16 1   
    19    8   39 1   
    20    9   10 1   
    21    9   40 1   
    22    9   41 1   
    23   10   11 ar  
    24   10   15 ar  
    25   11   12 ar  
    26   11   42 1   
    27   12   13 ar  
    28   12   43 1   
    29   13   14 ar  
    30   13   44 1   
    31   14   15 ar  
    32   14   45 1   
    33   15   46 1   
    34   16   17 2   
    35   16   18 1   
    36   18   19 1   
    37   18   47 1   
    38   19   20 1   
    39   19   23 1   
    40   19   48 1   
    41   20   21 1   
    42   20   22 1   
    43   23   24 1   
    44   23   49 1   
    45   23   50 1   
    46   24   25 ar  
    47   24   29 ar  
    48   25   26 ar  
    49   25   51 1   
    50   26   27 ar  
    51   26   52 1   
    52   27   28 ar  
    53   27   53 1   
    54   28   29 ar  
    55   28   54 1   
    56   29   55 1   
@<TRIPOS>SUBSTRUCTURE
     1 S23         1 TEMP              0 ****  ****    0 ROOT
