@<TRIPOS>MOLECULE
S23
   57    58     1     0     0
SMALL
bcc


@<TRIPOS>ATOM
      1 O2         -0.6260   -0.3440    0.3060 o         1 S23     -0.833300
      2 P           0.6930    0.0250    0.8110 p5        1 S23      1.483100
      3 O1          1.8130   -1.0370    0.4430 oh        1 S23     -0.834400
      4 C1          0.5190   -0.0770    2.5420 c3        1 S23     -0.144700
      5 N1         -0.6960   -0.8430    2.9110 n4        1 S23     -0.816600
      6 C2          1.7970   -0.6710    3.0860 c3        1 S23     -0.126100
      7 C3          1.3610    1.4970    0.5720 c3        1 S23     -0.448600
      8 C4          2.0400    1.5780   -0.7870 c3        1 S23     -0.110700
      9 C6          1.7850    2.9240   -1.4790 c3        1 S23     -0.023100
     10 C7          0.3590    3.0550   -1.8820 ca        1 S23     -0.139300
     11 C8         -0.4710    3.9790   -1.2370 ca        1 S23     -0.124500
     12 C10        -1.7970    4.1260   -1.6400 ca        1 S23     -0.119000
     13 C12        -2.3010    3.3500   -2.6850 ca        1 S23     -0.108000
     14 C11        -1.4750    2.4290   -3.3300 ca        1 S23     -0.119000
     15 C9         -0.1460    2.2800   -2.9340 ca        1 S23     -0.124500
     16 C5          3.5470    1.4170   -0.6500 c         1 S23      0.548100
     17 O3          4.2770    2.1100    0.0500 o         1 S23     -0.450100
     18 N2          4.1950    0.3110   -1.4060 n4        1 S23     -0.662800
     19 C13         3.8850    0.3260   -2.8820 c3        1 S23     -0.033500
     20 C14         2.5450   -0.4790   -3.1470 c         1 S23      0.928600
     21 O4          2.2020   -1.2760   -2.2210 o         1 S23     -0.778800
     22 O5          1.9400   -0.2100   -4.1950 o         1 S23     -0.778800
     23 C15         5.0050   -0.3110   -3.6970 c3        1 S23     -0.049100
     24 C16         6.3140    0.3620   -3.4820 ca        1 S23     -0.131300
     25 C17         6.6210    1.5430   -4.1690 ca        1 S23     -0.137500
     26 C19         7.8520    2.1670   -3.9750 ca        1 S23     -0.118000
     27 C21         8.7860    1.6170   -3.0970 ca        1 S23     -0.114000
     28 C20         8.4890    0.4360   -2.4160 ca        1 S23     -0.118000
     29 C18         7.2580   -0.1900   -2.6070 ca        1 S23     -0.137500
     30 HO1         1.6850   -1.6150   -0.3280 ho        1 S23      0.556000
     31 H1          0.3990    0.9590    2.9790 hx        1 S23      0.131700
     32 HN1        -1.2240   -0.3570    3.6400 hn        1 S23      0.474467
     33 HN1A       -1.3010   -0.9460    2.0580 hn        1 S23      0.474467
     34 H2          1.9640   -1.7010    2.6790 hc        1 S23      0.085033
     35 H2A         2.6470   -0.0270    2.7440 hc        1 S23      0.085033
     36 H2B         1.8130   -0.7100    4.2020 hc        1 S23      0.085033
     37 H3          0.5660    2.3070    0.5770 hc        1 S23      0.145200
     38 H3A         2.0870    1.8270    1.3640 hc        1 S23      0.145200
     39 H4          1.6100    0.7660   -1.4540 hc        1 S23      0.135700
     40 H6          2.0880    3.7560   -0.7890 hc        1 S23      0.073200
     41 H6A         2.4320    2.9880   -2.3970 hc        1 S23      0.073200
     42 H8         -0.0710    4.6100   -0.4290 ha        1 S23      0.147000
     43 H10        -2.4440    4.8620   -1.1400 ha        1 S23      0.147500
     44 H12        -3.3470    3.4700   -3.0040 ha        1 S23      0.146000
     45 H11        -1.8670    1.8170   -4.1580 ha        1 S23      0.147500
     46 H9          0.5020    1.5520   -3.4580 ha        1 S23      0.147000
     47 HN2         5.2140    0.3310   -1.2620 hn        1 S23      0.473300
     48 H13         3.7440    1.3970   -3.1990 hx        1 S23      0.095700
     49 H15         4.6880   -0.2300   -4.7750 hc        1 S23      0.098200
     50 H15A        5.0780   -1.4070   -3.4590 hc        1 S23      0.098200
     51 H17         5.8920    1.9690   -4.8750 ha        1 S23      0.135500
     52 H19         8.0900    3.0910   -4.5250 ha        1 S23      0.145500
     53 H21         9.7610    2.1070   -2.9510 ha        1 S23      0.147000
     54 H20         9.2320   -0.0090   -1.7370 ha        1 S23      0.145500
     55 H18         7.0470   -1.1430   -2.0990 ha        1 S23      0.135500
     56 H131       -0.4510   -1.7740    3.2690 hn        1 S23      0.474467
     57 H22         3.8000   -0.5910   -1.0530 hn        1 S23      0.473300
@<TRIPOS>BOND
     1    1    2 2   
     2    2    3 1   
     3    2    4 1   
     4    2    7 1   
     5    3   30 1   
     6    4    5 1   
     7    4    6 1   
     8    4   31 1   
     9    5   32 1   
    10    5   33 1   
    11    5   56 1   
    12    6   34 1   
    13    6   35 1   
    14    6   36 1   
    15    7    8 1   
    16    7   37 1   
    17    7   38 1   
    18    8    9 1   
    19    8   16 1   
    20    8   39 1   
    21    9   10 1   
    22    9   40 1   
    23    9   41 1   
    24   10   11 ar  
    25   10   15 ar  
    26   11   12 ar  
    27   11   42 1   
    28   12   13 ar  
    29   12   43 1   
    30   13   14 ar  
    31   13   44 1   
    32   14   15 ar  
    33   14   45 1   
    34   15   46 1   
    35   16   17 2   
    36   16   18 1   
    37   18   19 1   
    38   18   47 1   
    39   18   57 1   
    40   19   20 1   
    41   19   23 1   
    42   19   48 1   
    43   20   21 1   
    44   20   22 1   
    45   23   24 1   
    46   23   49 1   
    47   23   50 1   
    48   24   25 ar  
    49   24   29 ar  
    50   25   26 ar  
    51   25   51 1   
    52   26   27 ar  
    53   26   52 1   
    54   27   28 ar  
    55   27   53 1   
    56   28   29 ar  
    57   28   54 1   
    58   29   55 1   
@<TRIPOS>SUBSTRUCTURE
     1 S23         1 TEMP              0 ****  ****    0 ROOT
