@<TRIPOS>MOLECULE
S23
   56    57     1     0     0
SMALL
bcc


@<TRIPOS>ATOM
      1 O2          0.2350   -0.1820    0.8900 o         1 S23     -0.842000
      2 P           1.5730    0.2660    0.4190 p5        1 S23      1.258400
      3 O1          2.4110   -0.5450   -0.4940 o         1 S23     -0.842000
      4 C1          2.4340    0.4560    1.9950 c3        1 S23     -0.116700
      5 N1          1.6330   -0.1570    3.0730 n4        1 S23     -0.822600
      6 C2          3.7730   -0.1920    1.7800 c3        1 S23     -0.115100
      7 C3          1.5900    1.8470   -0.1470 c3        1 S23     -0.389600
      8 C4          1.4210    1.8580   -1.6540 c3        1 S23     -0.089700
      9 C6          0.7070    3.1150   -2.1550 c3        1 S23     -0.038100
     10 C7         -0.7190    3.1510   -1.7340 ca        1 S23     -0.093300
     11 C8         -1.1370    4.0220   -0.7210 ca        1 S23     -0.122000
     12 C10        -2.4790    4.0700   -0.3460 ca        1 S23     -0.124000
     13 C12        -3.4120    3.2480   -0.9780 ca        1 S23     -0.122000
     14 C11        -3.0010    2.3800   -1.9900 ca        1 S23     -0.124000
     15 C9         -1.6610    2.3320   -2.3690 ca        1 S23     -0.122000
     16 C5          2.7820    1.8140   -2.3530 c         1 S23      0.558100
     17 O3          3.5840    2.7430   -2.3600 o         1 S23     -0.461100
     18 N2          3.1090    0.5340   -3.0250 n4        1 S23     -0.656800
     19 C13         4.2020    0.5840   -4.0450 c3        1 S23     -0.053500
     20 C14         3.5720    0.4370   -5.5090 c         1 S23      0.931600
     21 O4          4.3880    0.5070   -6.4460 o         1 S23     -0.771800
     22 O5          2.3220    0.2790   -5.5480 o         1 S23     -0.771800
     23 C15         5.2320   -0.5200   -3.8390 c3        1 S23     -0.050100
     24 C16         6.0890   -0.3010   -2.6430 ca        1 S23     -0.094300
     25 C17         7.3070    0.3780   -2.7770 ca        1 S23     -0.128000
     26 C19         8.1320    0.5720   -1.6700 ca        1 S23     -0.136500
     27 C21         7.7490    0.0890   -0.4190 ca        1 S23     -0.134000
     28 C20         6.5360   -0.5840   -0.2800 ca        1 S23     -0.136500
     29 C18         5.7060   -0.7790   -1.3840 ca        1 S23     -0.128000
     30 H1          2.5700    1.5420    2.2410 hx        1 S23      0.099700
     31 HN1         2.0800   -1.0040    3.4280 hn        1 S23      0.454133
     32 HN1A        0.6840   -0.4020    2.6610 hn        1 S23      0.454133
     33 H2          3.6450   -1.2580    1.4580 hc        1 S23      0.071700
     34 H2A         4.4320   -0.1440    2.6790 hc        1 S23      0.071700
     35 H2B         4.2780    0.3380    0.9290 hc        1 S23      0.071700
     36 H3          2.5200    2.4090    0.1210 hc        1 S23      0.103200
     37 H3A         0.7390    2.4360    0.2930 hc        1 S23      0.103200
     38 H4          0.8000    0.9600   -1.9460 hc        1 S23      0.090700
     39 H6          0.7590    3.1390   -3.2790 hc        1 S23      0.072700
     40 H6A         1.2560    4.0180   -1.7740 hc        1 S23      0.072700
     41 H8         -0.4060    4.6790   -0.2260 ha        1 S23      0.134000
     42 H10        -2.8020    4.7600    0.4470 ha        1 S23      0.134500
     43 H12        -4.4700    3.2860   -0.6810 ha        1 S23      0.134000
     44 H11        -3.7350    1.7320   -2.4910 ha        1 S23      0.134500
     45 H9         -1.3400    1.6510   -3.1730 ha        1 S23      0.134000
     46 HN2         3.3220   -0.1690   -2.2920 hn        1 S23      0.492300
     47 H13         4.7050    1.5900   -3.9990 hx        1 S23      0.106700
     48 H15         4.7280   -1.5220   -3.7750 hc        1 S23      0.089200
     49 H15A        5.8590   -0.5280   -4.7770 hc        1 S23      0.089200
     50 H17         7.6120    0.7560   -3.7650 ha        1 S23      0.149500
     51 H19         9.0880    1.1030   -1.7860 ha        1 S23      0.125500
     52 H21         8.4040    0.2340    0.4520 ha        1 S23      0.126000
     53 H20         6.2310   -0.9720    0.7040 ha        1 S23      0.125500
     54 H18         4.7490   -1.3140   -1.2520 ha        1 S23      0.149500
     55 H131        1.5100    0.4870    3.8520 hn        1 S23      0.454133
     56 H22         2.2550    0.2180   -3.5460 hn        1 S23      0.492300
@<TRIPOS>BOND
     1    1    2 1   
     2    2    3 1   
     3    2    4 1   
     4    2    7 1   
     5    4    5 1   
     6    4    6 1   
     7    4   30 1   
     8    5   31 1   
     9    5   32 1   
    10    5   55 1   
    11    6   33 1   
    12    6   34 1   
    13    6   35 1   
    14    7    8 1   
    15    7   36 1   
    16    7   37 1   
    17    8    9 1   
    18    8   16 1   
    19    8   38 1   
    20    9   10 1   
    21    9   39 1   
    22    9   40 1   
    23   10   11 ar  
    24   10   15 ar  
    25   11   12 ar  
    26   11   41 1   
    27   12   13 ar  
    28   12   42 1   
    29   13   14 ar  
    30   13   43 1   
    31   14   15 ar  
    32   14   44 1   
    33   15   45 1   
    34   16   17 2   
    35   16   18 1   
    36   18   19 1   
    37   18   46 1   
    38   18   56 1   
    39   19   20 1   
    40   19   23 1   
    41   19   47 1   
    42   20   21 1   
    43   20   22 1   
    44   23   24 1   
    45   23   48 1   
    46   23   49 1   
    47   24   25 ar  
    48   24   29 ar  
    49   25   26 ar  
    50   25   50 1   
    51   26   27 ar  
    52   26   51 1   
    53   27   28 ar  
    54   27   52 1   
    55   28   29 ar  
    56   28   53 1   
    57   29   54 1   
@<TRIPOS>SUBSTRUCTURE
     1 S23         1 TEMP              0 ****  ****    0 ROOT
