@<TRIPOS>MOLECULE
S24
   17    16     1     0     0
SMALL
bcc


@<TRIPOS>ATOM
      1 C2         -0.5570    0.9730    0.3730 ca        1 S24     -0.111000
      2 C4         -2.8370    0.2060    0.2530 ca        1 S24      0.084100
      3 C5         -2.4110   -1.0450   -0.2120 ca        1 S24     -0.244000
      4 C6         -1.0400   -1.2640   -0.3780 ca        1 S24      0.132100
      5 C7          2.9520    1.0460    0.1710 c1        1 S24      0.930000
      6 O2          4.0430    0.5650   -0.0680 o         1 S24     -0.612500
      7 O4         -0.6810   -2.5110   -0.8370 oh        1 S24     -0.533100
      8 O1          2.3700    2.0430    0.5570 o         1 S24     -0.612500
      9 C1         -0.0810   -0.2580   -0.0890 ca        1 S24      0.106100
     10 O3         -4.1780    0.4950    0.4420 oh        1 S24     -0.522100
     11 C3         -1.9180    1.2180    0.5470 ca        1 S24     -0.182000
     12 H2          0.1720    1.7690    0.6040 ha        1 S24      0.166000
     13 H5         -3.1270   -1.8420   -0.4450 ha        1 S24      0.124000
     14 HO4         0.2950   -2.5180   -0.9040 ho        1 S24      0.453000
     15 HO3        -4.6760   -0.2960    0.1970 ho        1 S24      0.399000
     16 H3         -2.2730    2.1900    0.9100 ha        1 S24      0.126000
     17 S1          1.5500   -0.6080   -0.3170 s         1 S24     -0.704100
@<TRIPOS>BOND
     1    1    9 ar  
     2    1   11 ar  
     3    1   12 1   
     4    2    3 ar  
     5    2   10 1   
     6    2   11 ar  
     7    3    4 ar  
     8    3   13 1   
     9    4    7 1   
    10    4    9 ar  
    11    5    6 2   
    12    5    8 2   
    13    7   14 1   
    14    9   17 1   
    15   10   15 1   
    16   11   16 1   
@<TRIPOS>SUBSTRUCTURE
     1 S24         1 TEMP              0 ****  ****    0 ROOT
