@<TRIPOS>MOLECULE
S24
   17    16     1     0     0
SMALL
bcc


@<TRIPOS>ATOM
      1 C2         -0.0900    0.1220   -0.0270 ca        1 S24     -0.082000
      2 C4         -0.1340   -0.2130    2.3540 ca        1 S24      0.104100
      3 C5          1.2630   -0.1670    2.4030 ca        1 S24     -0.255000
      4 C6          1.9740    0.0210    1.2090 ca        1 S24      0.164100
      5 C7          3.4690    2.0180   -1.5590 c1        1 S24      0.909000
      6 O2          3.4910    2.4100   -2.7120 o         1 S24     -0.625500
      7 O4          3.3390    0.0380    1.3270 oh        1 S24     -0.520100
      8 O1          3.9560    2.2180   -0.4560 o         1 S24     -0.625500
      9 C1          1.3080    0.1640   -0.0320 ca        1 S24      0.088100
     10 O3         -0.8980   -0.4020    3.4930 oh        1 S24     -0.522100
     11 C3         -0.8220   -0.0700    1.1440 ca        1 S24     -0.203000
     12 H2         -0.6210    0.2390   -0.9850 ha        1 S24      0.139000
     13 H5          1.8060   -0.2750    3.3490 ha        1 S24      0.128000
     14 HO4         3.7050    0.3060    0.4600 ho        1 S24      0.464000
     15 HO3        -0.2880   -0.4610    4.2390 ho        1 S24      0.403000
     16 H3         -1.9180   -0.1060    1.1290 ha        1 S24      0.125000
     17 S1          2.1130    0.2960   -1.5130 s         1 S24     -0.690100
@<TRIPOS>BOND
     1    1    9 ar  
     2    1   11 ar  
     3    1   12 1   
     4    2    3 ar  
     5    2   10 1   
     6    2   11 ar  
     7    3    4 ar  
     8    3   13 1   
     9    4    7 1   
    10    4    9 ar  
    11    5    6 2   
    12    5    8 2   
    13    7   14 1   
    14    9   17 1   
    15   10   15 1   
    16   11   16 1   
@<TRIPOS>SUBSTRUCTURE
     1 S24         1 TEMP              0 ****  ****    0 ROOT
