@<TRIPOS>MOLECULE
S25
   53    47     1     0     0
SMALL
bcc


@<TRIPOS>ATOM
      1 C          -5.9690    4.5270    2.1160 c3        1 S25     -0.091500
      2 N          -4.6710    5.1520    2.0880 n3        1 S25     -0.228000
      3 O          -5.7130    4.0370    4.4870 os        1 S25     -0.264000
      4 S           0.9320    0.3750   -0.2550 ss        1 S25      0.626000
      5 C1         -6.0960    3.5120    3.2190 c3        1 S25     -0.057500
      6 C2         -4.4160    4.6600    4.4620 c3        1 S25     -0.057500
      7 C3         -4.2890    5.6790    3.3530 c3        1 S25     -0.091500
      8 C4          2.2420   -1.1480   -2.0730 c1        1 S25     -0.031000
      9 C5          2.3900   -2.4960   -1.8070 c2        1 S25     -0.041000
     10 C6          3.5660   -3.1330   -2.1260 c1        1 S25     -0.164000
     11 C7          4.6010   -2.4250   -2.7150 c1        1 S25     -0.033000
     12 N8          4.4560   -1.0970   -2.9780 n1        1 S25     -0.177000
     13 C9          3.2730   -0.4490   -2.6580 c1        1 S25     -0.061000
     14 C10        -0.5180    0.8860   -0.1300 c1        1 S25     -0.162000
     15 C11         1.0330   -0.4140   -1.5750 c1        1 S25     -0.438000
     16 C12        -0.2440   -0.3860   -2.1990 c1        1 S25     -0.082000
     17 N13        -1.2330    0.4460   -1.2740 n2        1 S25     -0.173000
     18 C14        -3.5740    4.9420    0.4810 c1        1 S25     -0.244000
     19 C15        -2.6810    4.5530   -0.5410 c1        1 S25     -0.033000
     20 N16        -1.9100    3.4390   -0.3860 n1        1 S25     -0.177000
     21 C17        -2.0000    2.6920    0.7660 c1        1 S25      0.140000
     22 C18        -2.8900    3.0790    1.7840 c1        1 S25     -0.280000
     23 C19        -3.6660    4.2010    1.6270 c1        1 S25      0.124000
     24 N20        -1.0680    1.5610    0.9830 n1        1 S25     -0.217000
     25 C21         3.7420   -4.6210   -1.8300 c2        1 S25      0.350000
     26 O22         2.8750   -5.2300   -1.2410 o         1 S25     -0.363000
     27 N23         4.9840   -5.2800   -2.1740 n         1 S25     -0.372000
     28 C24         5.4220   -6.4240   -1.4210 c3        1 S25     -0.073000
     29 C25         5.7000   -7.5890   -2.3730 c3        1 S25     -0.106000
     30 N26         6.7320   -8.4410   -1.8120 n3        1 S25     -0.335000
     31 H1         -6.1230    4.0830    1.2710 h1        1 S25      0.109500
     32 H2         -6.6860    5.2530    2.2470 h1        1 S25      0.109500
     33 H3         -7.0620    3.2030    3.2690 h1        1 S25      0.097000
     34 H4         -5.5130    2.7260    3.0050 h1        1 S25      0.097000
     35 H5         -4.2620    5.0900    5.3000 h1        1 S25      0.097000
     36 H6         -3.7640    3.9960    4.3370 h1        1 S25      0.097000
     37 H7         -4.8810    6.4780    3.5690 h1        1 S25      0.109500
     38 H8         -3.3300    5.9860    3.3030 h1        1 S25      0.109500
     39 H9          1.6520   -3.0010   -1.3870 ha        1 S25      0.164000
     40 H10         5.4680   -2.8970   -2.9500 ha        1 S25      0.162000
     41 H11         3.1700    0.5080   -2.8480 ha        1 S25      0.165000
     42 H12        -0.4670   -0.7940   -3.0270 DU        1 S25      0.185000
     43 H13        -4.1360    5.7550    0.3690 ha        1 S25      0.153000
     44 H14        -2.6160    5.0760   -1.3490 ha        1 S25      0.162000
     45 H15        -2.9530    2.5650    2.5830 ha        1 S25      0.145000
     46 H16        -0.9450    1.2360    1.8050 hn        1 S25      0.249000
     47 H17         5.4060   -5.0510   -2.8810 hn        1 S25      0.225000
     48 H18         4.7070   -6.6880   -0.7750 h1        1 S25      0.099000
     49 H19         6.2780   -6.1880   -0.9070 h1        1 S25      0.099000
     50 H20         4.8130   -8.1520   -2.5070 h1        1 S25      0.095000
     51 H21         6.0080   -7.2300   -3.2620 h1        1 S25      0.095000
     52 H22         6.6980   -8.4000   -0.8710 hn        1 S25      0.145500
     53 H23         7.5280   -8.1650   -2.0910 hn        1 S25      0.145500
@<TRIPOS>BOND
     1    1    2 1   
     2    1    5 1   
     3    1   31 1   
     4    1   32 1   
     5    2    7 1   
     6    2   23 1   
     7    3    5 1   
     8    3    6 1   
     9    4   14 1   
    10    4   15 1   
    11    5   33 1   
    12    5   34 1   
    13    6    7 1   
    14    6   35 1   
    15    6   36 1   
    16    7   37 1   
    17    7   38 1   
    18    8    9 1   
    19    8   13 1   
    20    9   10 1   
    21    9   39 1   
    22   10   25 1   
    23   11   12 1   
    24   11   40 1   
    25   13   41 1   
    26   14   17 1   
    27   15   16 1   
    28   16   17 1   
    29   18   23 1   
    30   18   43 1   
    31   19   20 1   
    32   19   44 1   
    33   21   22 1   
    34   22   45 1   
    35   24   46 1   
    36   25   26 1   
    37   25   27 1   
    38   27   28 1   
    39   27   47 1   
    40   28   29 1   
    41   28   48 1   
    42   28   49 1   
    43   29   30 1   
    44   29   50 1   
    45   29   51 1   
    46   30   52 1   
    47   30   53 1   
@<TRIPOS>SUBSTRUCTURE
     1 S25         1 TEMP              0 ****  ****    0 ROOT
