@<TRIPOS>MOLECULE
S25
   53    56     1     0     0
SMALL
bcc


@<TRIPOS>ATOM
      1 C           6.8150   -0.2810   -1.8470 c3        1 S25      0.155800
      2 N           6.1690   -0.7730   -0.6390 nh        1 S25     -0.640000
      3 O           9.0200   -0.5470   -0.8170 os        1 S25     -0.408600
      4 S          -0.3300    0.3850    1.1850 ss        1 S25      0.052700
      5 C1          8.2560   -0.7900   -1.9910 c3        1 S25      0.121400
      6 C2          8.4280   -1.1450    0.3300 c3        1 S25      0.121400
      7 C3          6.9920   -0.6520    0.5530 c3        1 S25      0.155800
      8 C4         -2.8510    1.1840    1.9580 ca        1 S25     -0.094300
      9 C5         -3.4630    0.4040    0.9620 ca        1 S25     -0.054000
     10 C6         -4.8330    0.5530    0.7210 ca        1 S25     -0.247900
     11 C7         -5.5610    1.4680    1.5080 ca        1 S25      0.407200
     12 N8         -4.9950    2.2220    2.4690 nb        1 S25     -0.662000
     13 C9         -3.6750    2.0860    2.6780 ca        1 S25      0.416200
     14 C10         0.9510    0.6940    2.3000 cc        1 S25      0.609300
     15 C11        -1.4480    1.0710    2.2370 cc        1 S25     -0.235400
     16 C12        -0.8050    1.5150    3.3970 cd        1 S25      0.380200
     17 N13         0.5480    1.3150    3.4480 nd        1 S25     -0.702000
     18 C14         3.9130   -0.6740   -1.6000 ca        1 S25     -0.323300
     19 C15         2.5430   -0.4910   -1.3970 ca        1 S25      0.463200
     20 N16         1.9720   -0.1630   -0.2280 nb        1 S25     -0.752000
     21 C17         2.8100    0.0060    0.8420 ca        1 S25      0.667200
     22 C18         4.2240   -0.1400    0.7370 ca        1 S25     -0.352300
     23 C19         4.7950   -0.5040   -0.5010 ca        1 S25      0.225600
     24 C21        -5.4690   -0.2840   -0.3330 c         1 S25      0.673700
     25 O22        -5.0660   -1.4420   -0.5700 o         1 S25     -0.602100
     26 N23        -6.4810    0.2900   -1.0790 n         1 S25     -0.562900
     27 C24        -7.2300   -0.4500   -2.0540 c3        1 S25      0.084000
     28 C25        -8.5800   -0.9870   -1.5200 c3        1 S25      0.130800
     29 N26        -9.3380   -1.6530   -2.5500 n3        1 S25     -0.913800
     30 H1          6.2360   -0.6320   -2.7440 h1        1 S25      0.051950
     31 H2          6.8300    0.8470   -1.8550 h1        1 S25      0.051950
     32 H3          8.2680   -1.8860   -2.2300 h1        1 S25      0.060200
     33 H4          8.7840   -0.2120   -2.7950 h1        1 S25      0.060200
     34 H5          8.4520   -2.2620    0.2280 h1        1 S25      0.060200
     35 H6          9.0790   -0.8200    1.1840 h1        1 S25      0.060200
     36 H7          7.0320    0.4180    0.9100 h1        1 S25      0.051950
     37 H8          6.5340   -1.2830    1.3650 h1        1 S25      0.051950
     38 H9         -2.8820   -0.3290    0.3780 ha        1 S25      0.164000
     39 H10        -6.6510    1.6020    1.3870 h4        1 S25      0.021100
     40 H11        -3.2450    2.7310    3.4660 h4        1 S25      0.028100
     41 H12        -1.2890    1.9970    4.2560 h4        1 S25      0.042100
     42 H13         4.2730   -0.9630   -2.5950 ha        1 S25      0.149000
     43 H14         1.8320   -0.6200   -2.2370 h4        1 S25      0.027100
     44 H15         4.8490    0.0320    1.6240 ha        1 S25      0.146000
     45 H16         2.9280    0.5490    2.8130 hn        1 S25      0.455800
     46 H17        -6.8370    1.1750   -0.8070 hn        1 S25      0.310500
     47 H18        -7.4260    0.2330   -2.9300 h1        1 S25      0.070200
     48 H19        -6.6010   -1.3160   -2.4090 h1        1 S25      0.070200
     49 H20        -8.3690   -1.6530   -0.6310 h1        1 S25      0.029700
     50 H21        -9.2030   -0.1240   -1.1490 h1        1 S25      0.029700
     51 H22        -8.8010   -2.3810   -2.9790 hn        1 S25      0.352800
     52 H23       -10.1740   -2.0450   -2.1640 hn        1 S25      0.352800
     53 N20         2.2690    0.2880    2.1080 nh        1 S25     -0.810600
@<TRIPOS>BOND
     1    1    2 1   
     2    1    5 1   
     3    1   30 1   
     4    1   31 1   
     5    2    7 1   
     6    2   23 1   
     7    3    5 1   
     8    3    6 1   
     9    4   14 1   
    10    4   15 1   
    11    5   32 1   
    12    5   33 1   
    13    6    7 1   
    14    6   34 1   
    15    6   35 1   
    16    7   36 1   
    17    7   37 1   
    18    8    9 ar  
    19    8   13 ar  
    20    8   15 1   
    21    9   10 ar  
    22    9   38 1   
    23   10   11 ar  
    24   10   24 1   
    25   11   12 ar  
    26   11   39 1   
    27   12   13 ar  
    28   13   40 1   
    29   14   17 2   
    30   14   53 1   
    31   15   16 2   
    32   16   17 1   
    33   16   41 1   
    34   18   19 ar  
    35   18   23 ar  
    36   18   42 1   
    37   19   20 ar  
    38   19   43 1   
    39   20   21 ar  
    40   21   22 ar  
    41   21   53 1   
    42   22   23 ar  
    43   22   44 1   
    44   24   25 2   
    45   24   26 1   
    46   26   27 1   
    47   26   46 1   
    48   27   28 1   
    49   27   47 1   
    50   27   48 1   
    51   28   29 1   
    52   28   49 1   
    53   28   50 1   
    54   29   51 1   
    55   29   52 1   
    56   45   53 1   
@<TRIPOS>SUBSTRUCTURE
     1 S25         1 TEMP              0 ****  ****    0 ROOT
