@<TRIPOS>MOLECULE
S25
   53    50     1     0     0
SMALL
bcc


@<TRIPOS>ATOM
      1 C          -2.9670    0.6800    2.6410 c3        1 S25     -0.290000
      2 N           3.1580    0.1770   -0.9690 n2        1 S25     -0.171000
      3 O          -0.5840    0.8520    2.4140 o         1 S25     -0.300000
      4 S           7.0110   -4.3340   -3.1160 ss        1 S25      0.562000
      5 C1         -1.6760    1.4120    2.5270 c2        1 S25      0.187000
      6 C2          2.6910    0.6830    1.3740 c3        1 S25     -0.206000
      7 C3          2.6610   -0.1880    0.1640 c2        1 S25     -0.036000
      8 C4          8.0940   -6.0980   -4.9440 c2        1 S25     -0.273000
      9 C5          9.3480   -5.3710   -5.1270 c2        1 S25     -0.040000
     10 C6         10.5490   -5.9650   -5.1940 c2        1 S25     -0.206000
     11 C7         10.0100  -10.8880   -6.0760 c1        1 S25      0.071000
     12 N8          9.1170  -10.1430   -5.8970 n2        1 S25     -0.376000
     13 C9          7.9990   -7.3910   -5.2550 c1        1 S25      0.215000
     14 C10         5.3230   -3.9700   -3.3060 c2        1 S25     -0.187000
     15 C11         6.9540   -5.3690   -4.4380 c2        1 S25     -0.373000
     16 C12         5.6600   -5.4190   -4.9610 c2        1 S25     -0.101000
     17 N13         4.7320   -4.6250   -4.3320 n2        1 S25     -0.135000
     18 C14         3.5690   -0.2130   -3.2930 c2        1 S25     -0.193000
     19 C15         2.1680   -5.4770   -2.1550 c1        1 S25      0.173000
     20 N16         2.6790   -4.4090   -2.1740 n2        1 S25     -0.302000
     21 C17         3.2820   -3.1600   -2.2160 c2        1 S25      0.190000
     22 C18         2.5520   -2.0240   -2.0100 c2        1 S25     -0.229000
     23 C19         3.1150   -0.6660   -2.1030 c2        1 S25     -0.028000
     24 C21        11.7740   -5.1430   -5.3950 c2        1 S25      0.331000
     25 O22        11.7250   -3.8920   -5.4080 o         1 S25     -0.384000
     26 N23        12.9630   -5.8170   -5.5630 n         1 S25     -0.375000
     27 C24        14.2060   -5.1460   -5.7680 c3        1 S25     -0.074000
     28 C25        13.4060  -10.5030   -5.7450 c2        1 S25     -0.108000
     29 N26        13.8030   -9.3160   -5.5220 n2        1 S25     -0.265000
     30 H1         -3.6390    0.9730    1.7960 hc        1 S25      0.106000
     31 H2         -3.4680    0.9540    3.6030 hc        1 S25      0.106000
     32 H3         -2.8150   -0.4260    2.6150 hc        1 S25      0.106000
     33 H4         -1.7540    2.5240    2.5500 h4        1 S25      0.086000
     34 H5          1.6390    0.8500    1.7230 hc        1 S25      0.103333
     35 H6          3.1710    1.6740    1.1900 hc        1 S25      0.103333
     36 H7          3.2560    0.1560    2.1820 hc        1 S25      0.103333
     37 H8          2.1680   -1.1710    0.3410 h4        1 S25      0.102000
     38 H9          9.2560   -4.2710   -5.2150 ha        1 S25      0.172000
     39 H10        10.6740   -7.0550   -5.0990 ha        1 S25      0.141000
     40 H11         8.3910   -9.5110   -5.7450 hn        1 S25      0.298000
     41 H12         5.3390   -6.0150   -5.8250 h4        1 S25      0.189000
     42 H13         3.5390   -0.8470   -4.1890 ha        1 S25      0.129000
     43 H14         3.9660    0.8000   -3.4330 ha        1 S25      0.129000
     44 H15         1.4800   -2.0800   -1.7610 ha        1 S25      0.159000
     45 H16         5.0420   -2.1710   -2.4390 hn        1 S25      0.235000
     46 H17        12.9700   -6.8100   -5.5520 hn        1 S25      0.247000
     47 H18        14.6500   -5.4520   -6.7550 h1        1 S25      0.083333
     48 H19        14.0550   -4.0330   -5.7660 h1        1 S25      0.083333
     49 H20        14.9280   -5.4180   -4.9520 h1        1 S25      0.083333
     50 H21        14.0290  -11.4190   -5.7470 h4        1 S25      0.120000
     51 H22        12.3310  -10.6760   -5.9640 h4        1 S25      0.120000
     52 H23        14.7770   -9.2020   -5.3280 hn        1 S25      0.131000
     53 N20         4.7040   -3.1180   -2.3790 nh        1 S25     -0.214000
@<TRIPOS>BOND
     1    1    5 1   
     2    1   30 1   
     3    1   31 1   
     4    1   32 1   
     5    2    7 1   
     6    2   23 1   
     7    3    5 1   
     8    4   14 1   
     9    4   15 1   
    10    5   33 1   
    11    6    7 1   
    12    6   34 1   
    13    6   35 1   
    14    6   36 1   
    15    7   37 1   
    16    8    9 1   
    17    8   13 1   
    18    8   15 1   
    19    9   10 1   
    20    9   38 1   
    21   10   24 1   
    22   10   39 1   
    23   11   12 1   
    24   12   40 1   
    25   14   17 1   
    26   14   53 1   
    27   15   16 1   
    28   16   17 1   
    29   16   41 1   
    30   18   23 1   
    31   18   42 1   
    32   18   43 1   
    33   19   20 1   
    34   20   21 1   
    35   21   22 1   
    36   21   53 1   
    37   22   23 1   
    38   22   44 1   
    39   24   25 1   
    40   24   26 1   
    41   26   27 1   
    42   26   46 1   
    43   27   47 1   
    44   27   48 1   
    45   27   49 1   
    46   28   29 1   
    47   28   50 1   
    48   28   51 1   
    49   29   52 1   
    50   45   53 1   
@<TRIPOS>SUBSTRUCTURE
     1 S25         1 TEMP              0 ****  ****    0 ROOT
