@<TRIPOS>MOLECULE
S27
   55    55     1     0     0
SMALL
bcc


@<TRIPOS>ATOM
      1 C1          0.8760   -0.4950   -0.1910 ca        1 S27     -0.671500
      2 C2          1.4860   -1.2280   -1.2270 ca        1 S27     -0.003000
      3 C3          2.8120   -1.0180   -1.5730 ca        1 S27     -0.136500
      4 C4          3.5700   -0.0630   -0.8810 ca        1 S27      0.021000
      5 C5          2.9850    0.6810    0.1500 ca        1 S27     -0.136500
      6 C6          1.6570    0.4670    0.4880 ca        1 S27     -0.003000
      7 P7         -0.5750   -0.7310    0.2760 px        1 S27      1.901000
      8 O8         -1.1870   -0.0180    1.3560 o         1 S27     -0.767300
      9 C9         -1.3360   -1.9460   -0.4080 c3        1 S27     -0.589300
     10 N10        -2.2190    0.9580   -1.0140 n7        1 S27     -0.876200
     11 C11        -2.5070    0.6450   -2.4170 c3        1 S27      0.172100
     12 C12        -3.7640    1.2110   -3.0060 ca        1 S27     -0.190300
     13 C13        -3.6950    2.3200   -3.8620 ca        1 S27     -0.145500
     14 C14        -4.8460    2.7840   -4.4970 ca        1 S27     -0.124000
     15 C15        -6.0690    2.1390   -4.2940 ca        1 S27     -0.094000
     16 C16        -6.1390    1.0310   -3.4490 ca        1 S27     -0.124000
     17 C17        -4.9890    0.5670   -2.8070 ca        1 S27     -0.145500
     18 C18        -2.3120    2.3930   -0.7340 c3        1 S27      0.141500
     19 C          -3.7800    2.8140   -0.5090 c         1 S27      0.503100
     20 NA         -4.2650    4.0420   -1.2800 ny        1 S27     -0.468300
     21 OA         -5.3860    4.6110   -0.7830 oh        1 S27     -0.348300
     22 OB         -4.6050    2.2890    0.2160 o         1 S27     -0.393100
     23 C7         -1.5440    2.8460    0.5220 c3        1 S27     -0.103400
     24 C8         -1.7010    4.3300    0.8250 c3        1 S27     -0.078700
     25 C10        -1.0610    4.6270    2.1710 c3        1 S27     -0.103100
     26 C23        -1.0770    5.2080   -0.2400 c3        1 S27     -0.103100
     27 H2          0.8950   -1.9910   -1.7610 ha        1 S27      0.156500
     28 H3          3.2770   -1.6070   -2.3830 ha        1 S27      0.185500
     29 H4          4.6310    0.0980   -1.1480 ha        1 S27      0.186000
     30 H5          3.5850    1.4280    0.7000 ha        1 S27      0.185500
     31 H6          1.1850    1.0360    1.3110 ha        1 S27      0.156500
     32 H91        -2.4160   -2.0430   -0.0930 hc        1 S27      0.169033
     33 H92        -1.3670   -1.9520   -1.5320 hc        1 S27      0.169033
     34 H93        -0.9110   -2.9660   -0.1630 hc        1 S27      0.169033
     35 H111       -1.6220    1.0010   -3.0220 h1        1 S27      0.082700
     36 H112       -2.5630   -0.4790   -2.5150 h1        1 S27      0.082700
     37 H13        -2.7220    2.7850   -4.0880 ha        1 S27      0.146000
     38 H14        -4.7850    3.6340   -5.1990 ha        1 S27      0.173000
     39 H15        -6.9730    2.4890   -4.8220 ha        1 S27      0.178000
     40 H16        -7.0980    0.5040   -3.3060 ha        1 S27      0.173000
     41 H17        -5.0500   -0.3260   -2.1640 ha        1 S27      0.146000
     42 H18        -1.8910    2.9450   -1.6290 h1        1 S27      0.101700
     43 HNA        -3.5350    4.7870   -1.2330 hn        1 S27      0.493300
     44 HOA        -5.9670    3.9110   -0.3940 ho        1 S27      0.487000
     45 H71        -1.8810    2.2490    1.4160 hc        1 S27      0.097200
     46 H72        -0.4540    2.6390    0.3560 hc        1 S27      0.097200
     47 H8         -2.7970    4.5770    0.9180 hc        1 S27      0.027700
     48 H101       -1.1840    5.7100    2.4200 hc        1 S27      0.053700
     49 H102       -1.5420    4.0210    2.9760 hc        1 S27      0.053700
     50 H103        0.0300    4.3920    2.1480 hc        1 S27      0.053700
     51 H231       -1.5040    5.0050   -1.2520 hc        1 S27      0.053700
     52 H232       -1.2440    6.2860    0.0050 hc        1 S27      0.053700
     53 H233        0.0270    5.0360   -0.2920 hc        1 S27      0.053700
     54 H104       -2.8470    0.4640   -0.3940 hn        1 S27      0.387800
     55 HA2        -4.4250    3.7780   -2.2820 hn        1 S27      0.493300
@<TRIPOS>BOND
     1    1    2 ar  
     2    1    6 ar  
     3    1    7 1   
     4    2    3 ar  
     5    2   27 1   
     6    3    4 ar  
     7    3   28 1   
     8    4    5 ar  
     9    4   29 1   
    10    5    6 ar  
    11    5   30 1   
    12    6   31 1   
    13    7    8 2   
    14    7    9 1   
    15    9   32 1   
    16    9   33 1   
    17    9   34 1   
    18   10   11 1   
    19   10   18 1   
    20   10   54 1   
    21   11   12 1   
    22   11   35 1   
    23   11   36 1   
    24   12   13 ar  
    25   12   17 ar  
    26   13   14 ar  
    27   13   37 1   
    28   14   15 ar  
    29   14   38 1   
    30   15   16 ar  
    31   15   39 1   
    32   16   17 ar  
    33   16   40 1   
    34   17   41 1   
    35   18   19 1   
    36   18   23 1   
    37   18   42 1   
    38   19   20 1   
    39   19   22 2   
    40   20   21 1   
    41   20   43 1   
    42   20   55 1   
    43   21   44 1   
    44   23   24 1   
    45   23   45 1   
    46   23   46 1   
    47   24   25 1   
    48   24   26 1   
    49   24   47 1   
    50   25   48 1   
    51   25   49 1   
    52   25   50 1   
    53   26   51 1   
    54   26   52 1   
    55   26   53 1   
@<TRIPOS>SUBSTRUCTURE
     1 S27         1 TEMP              0 ****  ****    0 ROOT
