@<TRIPOS>MOLECULE
S27
   53    54     1     0     0
SMALL
bcc


@<TRIPOS>ATOM
      1 C1          1.3420   -0.4230    2.0890 ca        1 S27     -0.477500
      2 C2          0.7700   -0.4100    3.3590 ca        1 S27     -0.024000
      3 C3          0.8250   -1.5340    4.1790 ca        1 S27     -0.155000
      4 C4          1.4660   -2.6910    3.7270 ca        1 S27     -0.072000
      5 C5          2.0470   -2.7170    2.4610 ca        1 S27     -0.155000
      6 C6          1.9840   -1.5840    1.6490 ca        1 S27     -0.024000
      7 P7          1.4150    0.8710    1.1080 py        1 S27      1.572300
      8 O8          2.7220    1.0190    0.4420 o         1 S27     -0.894300
      9 C9          1.1110    2.1920    2.0740 c3        1 S27     -0.451300
     10 N10         0.2040    0.8360    0.0350 n3        1 S27     -0.872700
     11 C11         0.4060    1.7170   -1.0980 c3        1 S27      0.248100
     12 C12         0.6420    1.0630   -2.4320 ca        1 S27     -0.116300
     13 C13        -0.3980    0.9610   -3.3610 ca        1 S27     -0.110500
     14 C14        -0.1640    0.3970   -4.6140 ca        1 S27     -0.136500
     15 C15         1.1090   -0.0680   -4.9440 ca        1 S27     -0.124000
     16 C16         2.1480    0.0340   -4.0190 ca        1 S27     -0.136500
     17 C17         1.9200    0.5990   -2.7640 ca        1 S27     -0.110500
     18 C18        -1.0130    0.0850   -0.0080 c3        1 S27      0.194500
     19 C          -0.8760   -1.3800   -0.5020 c         1 S27      0.567100
     20 NA         -2.0810   -1.9520   -1.0340 n         1 S27     -0.351400
     21 OA         -2.0700   -3.2860   -1.1090 oh        1 S27     -0.442100
     22 OB          0.1810   -2.0200   -0.5750 o         1 S27     -0.553100
     23 C7         -1.8550    0.0470    1.2940 c3        1 S27     -0.097400
     24 C8         -3.2080    0.7240    1.1260 c3        1 S27     -0.068700
     25 C10        -4.1110    0.3600    2.2880 c3        1 S27     -0.093600
     26 C23        -3.0610    2.2280    1.0270 c3        1 S27     -0.093600
     27 H2          0.2750    0.5020    3.7290 ha        1 S27      0.149500
     28 H3          0.3720   -1.5120    5.1800 ha        1 S27      0.139500
     29 H4          1.5130   -3.5810    4.3740 ha        1 S27      0.135000
     30 H5          2.5530   -3.6240    2.0990 ha        1 S27      0.139500
     31 H6          2.4380   -1.5830    0.6410 ha        1 S27      0.149500
     32 H91         0.0590    2.3060    2.4230 hc        1 S27      0.092033
     33 H92         1.7550    2.1860    2.9870 hc        1 S27      0.092033
     34 H93         1.3670    3.1390    1.5370 hc        1 S27      0.092033
     35 H111       -0.4880    2.4060   -1.2060 h1        1 S27      0.056200
     36 H112        1.3100    2.3620   -0.8710 h1        1 S27      0.056200
     37 H13        -1.4030    1.3290   -3.1060 ha        1 S27      0.149500
     38 H14        -0.9840    0.3190   -5.3420 ha        1 S27      0.130500
     39 H15         1.2930   -0.5140   -5.9320 ha        1 S27      0.128000
     40 H16         3.1530   -0.3330   -4.2770 ha        1 S27      0.130500
     41 H17         2.7430    0.6820   -2.0320 ha        1 S27      0.149500
     42 H18        -1.6720    0.5790   -0.8010 h1        1 S27      0.077700
     43 HNA        -2.9020   -1.6850   -0.5010 hn        1 S27      0.291500
     44 HOA        -1.4520   -3.5060   -1.8350 ho        1 S27      0.438000
     45 H71        -1.2980    0.5510    2.1280 hc        1 S27      0.052200
     46 H72        -2.0100   -1.0160    1.6160 hc        1 S27      0.052200
     47 H8         -3.6880    0.3490    0.1770 hc        1 S27      0.046700
     48 H101       -5.1020    0.8620    2.1750 hc        1 S27      0.038867
     49 H102       -4.2750   -0.7440    2.3280 hc        1 S27      0.038867
     50 H103       -3.6580    0.6860    3.2550 hc        1 S27      0.038867
     51 H231       -2.6170    2.6410    1.9650 hc        1 S27      0.038867
     52 H232       -2.3960    2.5020    0.1720 hc        1 S27      0.038867
     53 H233       -4.0590    2.7030    0.8690 hc        1 S27      0.038867
@<TRIPOS>BOND
     1    1    2 ar  
     2    1    6 ar  
     3    1    7 1   
     4    2    3 ar  
     5    2   27 1   
     6    3    4 ar  
     7    3   28 1   
     8    4    5 ar  
     9    4   29 1   
    10    5    6 ar  
    11    5   30 1   
    12    6   31 1   
    13    7    8 2   
    14    7    9 1   
    15    7   10 1   
    16    9   32 1   
    17    9   33 1   
    18    9   34 1   
    19   10   11 1   
    20   10   18 1   
    21   11   12 1   
    22   11   35 1   
    23   11   36 1   
    24   12   13 ar  
    25   12   17 ar  
    26   13   14 ar  
    27   13   37 1   
    28   14   15 ar  
    29   14   38 1   
    30   15   16 ar  
    31   15   39 1   
    32   16   17 ar  
    33   16   40 1   
    34   17   41 1   
    35   18   19 1   
    36   18   23 1   
    37   18   42 1   
    38   19   20 1   
    39   19   22 2   
    40   20   21 1   
    41   20   43 1   
    42   21   44 1   
    43   23   24 1   
    44   23   45 1   
    45   23   46 1   
    46   24   25 1   
    47   24   26 1   
    48   24   47 1   
    49   25   48 1   
    50   25   49 1   
    51   25   50 1   
    52   26   51 1   
    53   26   52 1   
    54   26   53 1   
@<TRIPOS>SUBSTRUCTURE
     1 S27         1 TEMP              0 ****  ****    0 ROOT
