@<TRIPOS>MOLECULE
S27
   55    55     1     0     0
SMALL
bcc


@<TRIPOS>ATOM
      1 C1          0.8900   -0.4920   -0.2310 ca        1 S27     -0.672500
      2 C2          1.4820   -1.2270   -1.2750 ca        1 S27     -0.003000
      3 C3          2.8020   -1.0170   -1.6440 ca        1 S27     -0.136500
      4 C4          3.5710   -0.0590   -0.9680 ca        1 S27      0.021000
      5 C5          3.0020    0.6870    0.0720 ca        1 S27     -0.136500
      6 C6          1.6810    0.4720    0.4320 ca        1 S27     -0.003000
      7 P7         -0.5530   -0.7280    0.2620 px        1 S27      1.901000
      8 O8         -1.1470   -0.0120    1.3500 o         1 S27     -0.767300
      9 C9         -1.3240   -1.9460   -0.4060 c3        1 S27     -0.589300
     10 N10        -2.2220    0.9570   -1.0030 n3        1 S27     -0.876200
     11 C11        -2.5440    0.6340   -2.3960 c3        1 S27      0.172100
     12 C12        -3.8130    1.1980   -2.9600 ca        1 S27     -0.190300
     13 C13        -3.7630    2.3000   -3.8260 ca        1 S27     -0.145500
     14 C14        -4.9280    2.7620   -4.4380 ca        1 S27     -0.124000
     15 C15        -6.1470    2.1200   -4.2000 ca        1 S27     -0.094000
     16 C16        -6.1990    1.0200   -3.3440 ca        1 S27     -0.124000
     17 C17        -5.0350    0.5580   -2.7260 ca        1 S27     -0.145500
     18 C18        -2.3050    2.3930   -0.7310 c3        1 S27      0.141500
     19 C          -3.7660    2.8200   -0.4760 c         1 S27      0.503100
     20 NA         -4.2660    4.0430   -1.2450 n4        1 S27     -0.468300
     21 OA         -5.3740    4.6190   -0.7260 oh        1 S27     -0.348300
     22 OB         -4.5750    2.3040    0.2730 o         1 S27     -0.393100
     23 C7         -1.5070    2.8540    0.5040 c3        1 S27     -0.104400
     24 C8         -1.6540    4.3400    0.7990 c3        1 S27     -0.078700
     25 C10        -0.9830    4.6450    2.1280 c3        1 S27     -0.103100
     26 C23        -1.0520    5.2090   -0.2850 c3        1 S27     -0.103100
     27 H2          0.8830   -1.9910   -1.7970 ha        1 S27      0.156500
     28 H3          3.2530   -1.6070   -2.4610 ha        1 S27      0.185500
     29 H4          4.6270    0.1020   -1.2530 ha        1 S27      0.186000
     30 H5          3.6110    1.4360    0.6090 ha        1 S27      0.185500
     31 H6          1.2220    1.0430    1.2620 ha        1 S27      0.156500
     32 H91        -1.3730   -1.9560   -1.5290 hc        1 S27      0.169033
     33 H92        -2.3990   -2.0420   -0.0730 hc        1 S27      0.169033
     34 H93        -0.8950   -2.9640   -0.1640 hc        1 S27      0.169033
     35 H111       -1.6720    0.9840   -3.0240 h1        1 S27      0.082700
     36 H112       -2.6040   -0.4910   -2.4840 h1        1 S27      0.082700
     37 H13        -2.7940    2.7600   -4.0790 ha        1 S27      0.146500
     38 H14        -4.8810    3.6050   -5.1470 ha        1 S27      0.173000
     39 H15        -7.0620    2.4690   -4.7090 ha        1 S27      0.178000
     40 H16        -7.1550    0.4970   -3.1740 ha        1 S27      0.173000
     41 H17        -5.0820   -0.3290   -2.0740 ha        1 S27      0.146500
     42 H18        -1.9040    2.9380   -1.6400 h1        1 S27      0.101700
     43 HNA        -3.5330    4.7870   -1.2210 hn        1 S27      0.493300
     44 HOA        -5.9470    3.9240   -0.3180 ho        1 S27      0.487000
     45 H71        -1.8250    2.2640    1.4090 hc        1 S27      0.097200
     46 H72        -0.4210    2.6430    0.3140 hc        1 S27      0.097200
     47 H8         -2.7470    4.5910    0.9150 hc        1 S27      0.027700
     48 H101       -1.0970    5.7290    2.3720 hc        1 S27      0.053700
     49 H102       -1.4480    4.0460    2.9490 hc        1 S27      0.053700
     50 H103        0.1060    4.4070    2.0830 hc        1 S27      0.053700
     51 H231        0.0500    5.0340   -0.3610 hc        1 S27      0.053700
     52 H232       -1.5030    5.0000   -1.2860 hc        1 S27      0.053700
     53 H233       -1.2110    6.2890   -0.0440 hc        1 S27      0.053700
     54 H104       -2.8370    0.4690   -0.3650 hn        1 S27      0.388800
     55 HA2        -4.4500    3.7720   -2.2400 hn        1 S27      0.493300
@<TRIPOS>BOND
     1    1    2 ar  
     2    1    6 ar  
     3    1    7 1   
     4    2    3 ar  
     5    2   27 1   
     6    3    4 ar  
     7    3   28 1   
     8    4    5 ar  
     9    4   29 1   
    10    5    6 ar  
    11    5   30 1   
    12    6   31 1   
    13    7    8 2   
    14    7    9 1   
    15    9   32 1   
    16    9   33 1   
    17    9   34 1   
    18   10   11 1   
    19   10   18 1   
    20   10   54 1   
    21   11   12 1   
    22   11   35 1   
    23   11   36 1   
    24   12   13 ar  
    25   12   17 ar  
    26   13   14 ar  
    27   13   37 1   
    28   14   15 ar  
    29   14   38 1   
    30   15   16 ar  
    31   15   39 1   
    32   16   17 ar  
    33   16   40 1   
    34   17   41 1   
    35   18   19 1   
    36   18   23 1   
    37   18   42 1   
    38   19   20 1   
    39   19   22 2   
    40   20   21 1   
    41   20   43 1   
    42   20   55 1   
    43   21   44 1   
    44   23   24 1   
    45   23   45 1   
    46   23   46 1   
    47   24   25 1   
    48   24   26 1   
    49   24   47 1   
    50   25   48 1   
    51   25   49 1   
    52   25   50 1   
    53   26   51 1   
    54   26   52 1   
    55   26   53 1   
@<TRIPOS>SUBSTRUCTURE
     1 S27         1 TEMP              0 ****  ****    0 ROOT
