@<TRIPOS>MOLECULE
S27
   55    55     1     0     0
SMALL
bcc


@<TRIPOS>ATOM
      1 C1          0.9000   -0.4690   -0.1990 ca        1 S27     -0.671500
      2 C2          1.4850   -1.2290   -1.2300 ca        1 S27     -0.003000
      3 C3          2.8010   -1.0270   -1.6150 ca        1 S27     -0.136500
      4 C4          3.5750   -0.0520   -0.9690 ca        1 S27      0.021000
      5 C5          3.0140    0.7190    0.0570 ca        1 S27     -0.136500
      6 C6          1.6960    0.5120    0.4340 ca        1 S27     -0.003000
      7 P7         -0.5380   -0.6940    0.3110 px        1 S27      1.901000
      8 O8         -1.1240    0.0470    1.3860 o         1 S27     -0.767300
      9 C9         -1.3140   -1.9280   -0.3210 c3        1 S27     -0.589300
     10 N10        -2.2170    0.9580   -0.9830 n3        1 S27     -0.876200
     11 C11        -2.5360    0.6080   -2.3710 c3        1 S27      0.172100
     12 C12        -3.8070    1.1560   -2.9460 ca        1 S27     -0.190300
     13 C13        -3.7600    2.2440   -3.8290 ca        1 S27     -0.145500
     14 C14        -4.9270    2.6900   -4.4500 ca        1 S27     -0.124000
     15 C15        -6.1430    2.0470   -4.2040 ca        1 S27     -0.094000
     16 C16        -6.1910    0.9600   -3.3300 ca        1 S27     -0.124000
     17 C17        -5.0260    0.5150   -2.7020 ca        1 S27     -0.145500
     18 C18        -2.3080    2.3990   -0.7370 c3        1 S27      0.141500
     19 C          -3.7710    2.8210   -0.4890 c         1 S27      0.503100
     20 NA         -4.2770    4.0280   -1.2790 n4        1 S27     -0.468300
     21 OA         -5.3880    4.6070   -0.7710 oh        1 S27     -0.348300
     22 OB         -4.5780    2.3130    0.2680 o         1 S27     -0.393100
     23 C7         -1.5130    2.8860    0.4890 c3        1 S27     -0.103400
     24 C8         -1.6670    4.3770    0.7570 c3        1 S27     -0.078700
     25 C10        -0.9970    4.7090    2.0810 c3        1 S27     -0.103100
     26 C23        -1.0700    5.2280   -0.3430 c3        1 S27     -0.103100
     27 H2          0.8820   -2.0070   -1.7280 ha        1 S27      0.156500
     28 H3          3.2470   -1.6360   -2.4210 ha        1 S27      0.185500
     29 H4          4.6280    0.1030   -1.2670 ha        1 S27      0.186000
     30 H5          3.6270    1.4810    0.5700 ha        1 S27      0.185500
     31 H6          1.2440    1.1020    1.2520 ha        1 S27      0.156500
     32 H91        -1.3730   -1.9640   -1.4430 hc        1 S27      0.169033
     33 H92        -2.3850   -2.0190    0.0240 hc        1 S27      0.169033
     34 H93        -0.8810   -2.9400   -0.0590 hc        1 S27      0.169033
     35 H111       -1.6650    0.9510   -3.0040 h1        1 S27      0.082700
     36 H112       -2.5910   -0.5180   -2.4390 h1        1 S27      0.082700
     37 H13        -2.7940    2.7050   -4.0890 ha        1 S27      0.146000
     38 H14        -4.8830    3.5220   -5.1740 ha        1 S27      0.173000
     39 H15        -7.0590    2.3820   -4.7200 ha        1 S27      0.178000
     40 H16        -7.1450    0.4350   -3.1520 ha        1 S27      0.173000
     41 H17        -5.0690   -0.3620   -2.0370 ha        1 S27      0.146000
     42 H18        -1.9090    2.9290   -1.6560 h1        1 S27      0.101700
     43 HNA        -3.5490    4.7770   -1.2680 hn        1 S27      0.493300
     44 HOA        -5.9580    3.9150   -0.3510 ho        1 S27      0.487000
     45 H71        -1.8270    2.3100    1.4050 hc        1 S27      0.097700
     46 H72        -0.4250    2.6770    0.3040 hc        1 S27      0.097700
     47 H8         -2.7610    4.6230    0.8700 hc        1 S27      0.027700
     48 H101       -1.1170    5.7970    2.3050 hc        1 S27      0.053700
     49 H102       -1.4580    4.1220    2.9120 hc        1 S27      0.053700
     50 H103        0.0940    4.4760    2.0390 hc        1 S27      0.053700
     51 H231       -1.5200    4.9980   -1.3390 hc        1 S27      0.053700
     52 H232        0.0330    5.0580   -0.4160 hc        1 S27      0.053700
     53 H233       -1.2350    6.3120   -0.1210 hc        1 S27      0.053700
     54 H104       -2.8290    0.4780   -0.3360 hn        1 S27      0.387800
     55 HA2        -4.4590    3.7390   -2.2700 hn        1 S27      0.493300
@<TRIPOS>BOND
     1    1    2 ar  
     2    1    6 ar  
     3    1    7 1   
     4    2    3 ar  
     5    2   27 1   
     6    3    4 ar  
     7    3   28 1   
     8    4    5 ar  
     9    4   29 1   
    10    5    6 ar  
    11    5   30 1   
    12    6   31 1   
    13    7    8 2   
    14    7    9 1   
    15    9   32 1   
    16    9   33 1   
    17    9   34 1   
    18   10   11 1   
    19   10   18 1   
    20   10   54 1   
    21   11   12 1   
    22   11   35 1   
    23   11   36 1   
    24   12   13 ar  
    25   12   17 ar  
    26   13   14 ar  
    27   13   37 1   
    28   14   15 ar  
    29   14   38 1   
    30   15   16 ar  
    31   15   39 1   
    32   16   17 ar  
    33   16   40 1   
    34   17   41 1   
    35   18   19 1   
    36   18   23 1   
    37   18   42 1   
    38   19   20 1   
    39   19   22 2   
    40   20   21 1   
    41   20   43 1   
    42   20   55 1   
    43   21   44 1   
    44   23   24 1   
    45   23   45 1   
    46   23   46 1   
    47   24   25 1   
    48   24   26 1   
    49   24   47 1   
    50   25   48 1   
    51   25   49 1   
    52   25   50 1   
    53   26   51 1   
    54   26   52 1   
    55   26   53 1   
@<TRIPOS>SUBSTRUCTURE
     1 S27         1 TEMP              0 ****  ****    0 ROOT
