@<TRIPOS>MOLECULE
S28
   59    61     1     0     0
SMALL
bcc


@<TRIPOS>ATOM
      1 C7         -4.9650    0.3300    1.1520 c3        1 S28     -0.247300
      2 S8         -3.6890    0.5910    0.0040 s6        1 S28      1.451900
      3 C6         -6.2720    0.8550    0.6910 ca        1 S28     -0.076300
      4 C1         -6.9320    0.2490   -0.3870 ca        1 S28     -0.114000
      5 C2         -8.1750    0.7240   -0.8020 ca        1 S28     -0.126500
      6 C3         -8.7700    1.8010   -0.1460 ca        1 S28     -0.120000
      7 C4         -8.1160    2.4070    0.9270 ca        1 S28     -0.126500
      8 C5         -6.8730    1.9360    1.3470 ca        1 S28     -0.114000
      9 O13        -3.9740   -0.1640   -1.1540 o         1 S28     -0.643800
     10 O14        -3.4730    1.9720   -0.1370 o         1 S28     -0.643800
     11 N9         -2.4240   -0.0650    0.7770 n3        1 S28     -0.921100
     12 C10        -1.9220   -1.3790    0.5310 c3        1 S28      0.165800
     13 C11        -0.3900   -1.4690    0.6340 c         1 S28      0.652100
     14 O15         0.2680   -0.6190    1.2720 o         1 S28     -0.623100
     15 N12         0.2370   -2.5140   -0.0090 n         1 S28     -0.455800
     16 C16         1.6550   -2.8040    0.1770 c3        1 S28      0.032700
     17 C17         2.5650   -1.9980   -0.7820 c         1 S28      0.650100
     18 O18         3.3640   -2.5770   -1.5460 o         1 S28     -0.618100
     19 C21         1.8320   -4.3220   -0.0400 c3        1 S28     -0.088400
     20 C22         0.5140   -4.8360   -0.6090 c3        1 S28     -0.089400
     21 C23        -0.4750   -3.6610   -0.5470 c3        1 S28      0.085000
     22 N19         2.4470   -0.6270   -0.7510 n         1 S28     -0.548900
     23 C20         3.3210    0.2270   -1.5100 c3        1 S28      0.129300
     24 C24         4.5700    0.6530   -0.7870 ca        1 S28     -0.110300
     25 C31         4.7150    1.9650   -0.3310 ca        1 S28     -0.124000
     26 C29         5.8880    2.3590    0.3120 ca        1 S28     -0.103500
     27 C28         6.9210    1.4360    0.5030 ca        1 S28     -0.138900
     28 C26         8.1840    1.8520    1.1920 ce        1 S28      0.650800
     29 N30         8.6120    1.1360    2.1880 n2        1 S28     -0.826100
     30 N32         8.7410    3.0550    0.7030 nh        1 S28     -0.958800
     31 C27         6.7740    0.1170    0.0600 ca        1 S28     -0.103500
     32 C25         5.6020   -0.2700   -0.5870 ca        1 S28     -0.124000
     33 H7         -4.7130    0.8000    2.1410 h1        1 S28      0.111200
     34 H7A        -5.0900   -0.7670    1.3640 h1        1 S28      0.111200
     35 H1         -6.4550   -0.5900   -0.9190 ha        1 S28      0.142500
     36 H2         -8.6840    0.2470   -1.6530 ha        1 S28      0.135500
     37 H3         -9.7500    2.1740   -0.4750 ha        1 S28      0.134000
     38 H4         -8.5800    3.2600    1.4440 ha        1 S28      0.135500
     39 H5         -6.3620    2.4210    2.1920 ha        1 S28      0.142500
     40 HN9        -1.8510    0.4680    1.3970 hn        1 S28      0.470800
     41 H10        -2.3290   -2.1020    1.3000 h1        1 S28      0.074200
     42 H10A       -2.2600   -1.7190   -0.4940 h1        1 S28      0.074200
     43 H16         1.9620   -2.5150    1.2270 h1        1 S28      0.086700
     44 H21         2.6810   -4.5280   -0.7390 hc        1 S28      0.077200
     45 H21A        2.0600   -4.8110    0.9390 hc        1 S28      0.077200
     46 H22         0.6430   -5.1730   -1.6670 hc        1 S28      0.059700
     47 H22A        0.1290   -5.7010   -0.0160 hc        1 S28      0.059700
     48 H23        -1.3560   -3.9190    0.1040 h1        1 S28      0.050700
     49 H23A       -0.8590   -3.4080   -1.5740 h1        1 S28      0.050700
     50 HN19        1.9430   -0.2060   -0.0010 hn        1 S28      0.335500
     51 H20         3.6240   -0.3170   -2.4530 h1        1 S28      0.068700
     52 H20A        2.7280    1.1420   -1.8010 h1        1 S28      0.068700
     53 H31         3.9020    2.6930   -0.4750 ha        1 S28      0.146000
     54 H29         5.9900    3.3920    0.6790 ha        1 S28      0.146000
     55 HN30        9.4570    1.4390    2.6240 hn        1 S28      0.381400
     56 HN32        8.4480    3.3210   -0.2080 hn        1 S28      0.398300
     57 HN3A        9.7070    3.2050    0.8810 hn        1 S28      0.398300
     58 H27         7.5780   -0.6150    0.2300 ha        1 S28      0.146000
     59 H25         5.4770   -1.3070   -0.9420 ha        1 S28      0.146000
@<TRIPOS>BOND
     1    1    2 1   
     2    1    3 1   
     3    1   33 1   
     4    1   34 1   
     5    2    9 2   
     6    2   10 2   
     7    2   11 1   
     8    3    4 ar  
     9    3    8 ar  
    10    4    5 ar  
    11    4   35 1   
    12    5    6 ar  
    13    5   36 1   
    14    6    7 ar  
    15    6   37 1   
    16    7    8 ar  
    17    7   38 1   
    18    8   39 1   
    19   11   12 1   
    20   11   40 1   
    21   12   13 1   
    22   12   41 1   
    23   12   42 1   
    24   13   14 2   
    25   13   15 1   
    26   15   16 1   
    27   15   21 1   
    28   16   17 1   
    29   16   19 1   
    30   16   43 1   
    31   17   18 2   
    32   17   22 1   
    33   19   20 1   
    34   19   44 1   
    35   19   45 1   
    36   20   21 1   
    37   20   46 1   
    38   20   47 1   
    39   21   48 1   
    40   21   49 1   
    41   22   23 1   
    42   22   50 1   
    43   23   24 1   
    44   23   51 1   
    45   23   52 1   
    46   24   25 ar  
    47   24   32 ar  
    48   25   26 ar  
    49   25   53 1   
    50   26   27 ar  
    51   26   54 1   
    52   27   28 1   
    53   27   31 ar  
    54   28   29 2   
    55   28   30 1   
    56   29   55 1   
    57   30   56 1   
    58   30   57 1   
    59   31   32 ar  
    60   31   58 1   
    61   32   59 1   
@<TRIPOS>SUBSTRUCTURE
     1 S28         1 TEMP              0 ****  ****    0 ROOT
