@<TRIPOS>MOLECULE
S29
   62    64     1     0     0
SMALL
bcc


@<TRIPOS>ATOM
      1 C7         -4.8030    0.4360    0.9910 c3        1 S29     -0.249300
      2 S8         -3.4320    0.5210   -0.0720 s6        1 S29      1.450900
      3 C6         -6.0300    1.0250    0.4030 ca        1 S29     -0.076300
      4 C1         -6.6590    0.4020   -0.6840 ca        1 S29     -0.114000
      5 C2         -7.8280    0.9400   -1.2180 ca        1 S29     -0.127000
      6 C3         -8.3810    2.0990   -0.6710 ca        1 S29     -0.120000
      7 C4         -7.7580    2.7220    0.4100 ca        1 S29     -0.127000
      8 C5         -6.5880    2.1880    0.9480 ca        1 S29     -0.114000
      9 O13        -3.7050   -0.2680   -1.2090 o         1 S29     -0.643300
     10 O14        -3.0850    1.8690   -0.2620 o         1 S29     -0.643300
     11 N9         -2.2860   -0.1950    0.8230 n3        1 S29     -0.919100
     12 C10        -1.8990   -1.5740    0.7130 c3        1 S29      0.184500
     13 C33        -2.3500   -2.4420    1.8910 c3        1 S29     -0.116100
     14 C11        -0.3540   -1.7000    0.6460 c         1 S29      0.652100
     15 O15         0.3600   -1.0170    1.4110 o         1 S29     -0.626100
     16 N12         0.2100   -2.5500   -0.2780 n         1 S29     -0.453800
     17 C16         1.6430   -2.8330   -0.2920 c3        1 S29      0.031700
     18 C17         2.4560   -1.7990   -1.1080 c         1 S29      0.650100
     19 O18         3.1920   -2.1590   -2.0490 o         1 S29     -0.619100
     20 C21         1.8100   -4.2510   -0.8810 c3        1 S29     -0.088400
     21 C22         0.4570   -4.6370   -1.4670 c3        1 S29     -0.090400
     22 C23        -0.5350   -3.5490   -1.0250 c3        1 S29      0.085000
     23 N19         2.3250   -0.4760   -0.7500 n         1 S29     -0.548900
     24 C20         3.1120    0.5590   -1.3650 c3        1 S29      0.129300
     25 C24         4.4150    0.8550   -0.6750 ca        1 S29     -0.109300
     26 C31         4.5870    2.0420    0.0420 ca        1 S29     -0.124000
     27 C29         5.8080    2.3230    0.6530 ca        1 S29     -0.104000
     28 C28         6.8630    1.4110    0.5510 ca        1 S29     -0.138900
     29 C26         8.1790    1.7070    1.2040 ce        1 S29      0.650800
     30 N30         8.7010    0.8060    1.9810 n2        1 S29     -0.825100
     31 N32         8.6780    3.0020    0.9410 nh        1 S29     -0.958800
     32 C27         6.6920    0.2150   -0.1540 ca        1 S29     -0.104000
     33 C25         5.4710   -0.0580   -0.7680 ca        1 S29     -0.124000
     34 H7         -4.5830    0.9510    1.9640 h1        1 S29      0.110700
     35 H7A        -5.0290   -0.6320    1.2620 h1        1 S29      0.110700
     36 H1         -6.2130   -0.5020   -1.1290 ha        1 S29      0.142000
     37 H2         -8.3130    0.4490   -2.0740 ha        1 S29      0.135500
     38 H3         -9.3040    2.5220   -1.0940 ha        1 S29      0.134000
     39 H4         -8.1880    3.6380    0.8400 ha        1 S29      0.135500
     40 H5         -6.1000    2.6860    1.7990 ha        1 S29      0.142000
     41 HN9        -1.7240    0.3150    1.4690 hn        1 S29      0.466800
     42 H10        -2.3650   -1.9810   -0.2390 h1        1 S29      0.092700
     43 H33        -1.8770   -2.0960    2.8410 hc        1 S29      0.052700
     44 H33A       -3.4600   -2.4010    2.0050 hc        1 S29      0.052700
     45 H33B       -2.0490   -3.5010    1.7040 hc        1 S29      0.052700
     46 H16         2.0440   -2.7930    0.7650 h1        1 S29      0.086700
     47 H21         2.6090   -4.2650   -1.6650 hc        1 S29      0.076700
     48 H21A        2.1070   -4.9560   -0.0660 hc        1 S29      0.076700
     49 H22         0.5050   -4.6800   -2.5830 hc        1 S29      0.059700
     50 H22A        0.1280   -5.6380   -1.0970 hc        1 S29      0.059700
     51 H23        -1.3460   -3.9940   -0.3850 h1        1 S29      0.052700
     52 H23A       -1.0160   -3.0610   -1.9170 h1        1 S29      0.052700
     53 HN19        1.8870   -0.2560    0.1180 hn        1 S29      0.335500
     54 H20         3.3350    0.2540   -2.4300 h1        1 S29      0.069700
     55 H20A        2.4800    1.4940   -1.3870 h1        1 S29      0.069700
     56 H31         3.7560    2.7590    0.1280 ha        1 S29      0.146000
     57 H29         5.9310    3.2540    1.2260 ha        1 S29      0.145500
     58 HN30        9.5790    1.0340    2.3990 hn        1 S29      0.381400
     59 HN32        8.3010    3.4480    0.1370 hn        1 S29      0.397800
     60 HN3A        9.6540    3.1380    1.0620 hn        1 S29      0.397800
     61 H27         7.5160   -0.5120   -0.2160 ha        1 S29      0.145500
     62 H25         5.3260   -0.9970   -1.3290 ha        1 S29      0.146000
@<TRIPOS>BOND
     1    1    2 1   
     2    1    3 1   
     3    1   34 1   
     4    1   35 1   
     5    2    9 2   
     6    2   10 2   
     7    2   11 1   
     8    3    4 ar  
     9    3    8 ar  
    10    4    5 ar  
    11    4   36 1   
    12    5    6 ar  
    13    5   37 1   
    14    6    7 ar  
    15    6   38 1   
    16    7    8 ar  
    17    7   39 1   
    18    8   40 1   
    19   11   12 1   
    20   11   41 1   
    21   12   13 1   
    22   12   14 1   
    23   12   42 1   
    24   13   43 1   
    25   13   44 1   
    26   13   45 1   
    27   14   15 2   
    28   14   16 1   
    29   16   17 1   
    30   16   22 1   
    31   17   18 1   
    32   17   20 1   
    33   17   46 1   
    34   18   19 2   
    35   18   23 1   
    36   20   21 1   
    37   20   47 1   
    38   20   48 1   
    39   21   22 1   
    40   21   49 1   
    41   21   50 1   
    42   22   51 1   
    43   22   52 1   
    44   23   24 1   
    45   23   53 1   
    46   24   25 1   
    47   24   54 1   
    48   24   55 1   
    49   25   26 ar  
    50   25   33 ar  
    51   26   27 ar  
    52   26   56 1   
    53   27   28 ar  
    54   27   57 1   
    55   28   29 1   
    56   28   32 ar  
    57   29   30 2   
    58   29   31 1   
    59   30   58 1   
    60   31   59 1   
    61   31   60 1   
    62   32   33 ar  
    63   32   61 1   
    64   33   62 1   
@<TRIPOS>SUBSTRUCTURE
     1 S29         1 TEMP              0 ****  ****    0 ROOT
