@<TRIPOS>MOLECULE
S29
   62    56     1     0     0
SMALL
bcc


@<TRIPOS>ATOM
      1 C7         -3.6270   -2.6180    4.1340 c3        1 S29     -0.796000
      2 S8         -3.6360   -1.4320    2.7360 s4        1 S29      2.022800
      3 C6         -3.8990   -1.8900    5.4080 c1        1 S29     -0.069000
      4 C1         -2.8160   -1.3520    6.1700 c1        1 S29     -0.123250
      5 C2         -3.0690   -0.6890    7.3600 c1        1 S29     -0.123250
      6 C3         -4.3570   -0.5480    7.8070 c1        1 S29     -0.123250
      7 C4         -5.4480   -1.0900    7.0380 c1        1 S29     -0.123250
      8 C5         -5.1970   -1.7480    5.8570 c1        1 S29     -0.108000
      9 O13        -4.9860   -1.1040    2.3320 o         1 S29     -0.530900
     10 O14        -3.1400   -0.1280    3.1500 o         1 S29     -0.530900
     11 N9         -2.7830   -2.0200    1.4880 n2        1 S29     -0.891000
     12 C10        -3.0970   -1.5830    0.1210 c3        1 S29      0.037000
     13 C33        -3.8150   -2.6910   -0.6240 c3        1 S29     -0.233000
     14 C11        -1.7990   -1.2320   -0.6240 c2        1 S29      0.295000
     15 O15        -0.7810   -1.9910   -0.5200 o         1 S29     -0.390000
     16 N12        -1.7600   -0.0930   -1.5060 n         1 S29     -0.312000
     17 C16        -0.5300    0.3690   -2.4250 c3        1 S29      0.006000
     18 C17         0.5930    0.9110   -1.5510 c2        1 S29      0.294000
     19 O18         0.3950    1.1260   -0.4260 o         1 S29     -0.379000
     20 C21        -1.1170    1.2830   -3.2180 c3        1 S29     -0.167000
     21 C22        -2.3350    1.8860   -2.4070 c3        1 S29     -0.169000
     22 C23        -2.8760    0.8990   -1.7460 c3        1 S29     -0.031000
     23 N19         1.9500    0.9170   -2.0510 n         1 S29     -0.360000
     24 C20         3.0370    1.3470   -1.1850 c3        1 S29      0.006000
     25 C24         4.3930    1.4110   -2.0200 c2        1 S29     -0.099000
     26 C31         4.7870    2.6140   -2.6510 c2        1 S29     -0.120000
     27 C29         5.9630    2.6560   -3.3810 c1        1 S29     -0.100000
     28 C28         6.7600    1.5120   -3.4930 c1        1 S29     -0.112000
     29 C26         8.0460    1.5860   -4.1870 c1        1 S29      0.115000
     30 N30         9.1890    1.8120   -3.4820 n1        1 S29     -0.304000
     31 N32         8.1020    1.4290   -5.5900 n3        1 S29     -0.332000
     32 C27         6.3710    0.3320   -2.8720 c1        1 S29     -0.118000
     33 C25         5.1790    0.2860   -2.1310 c1        1 S29     -0.122000
     34 H7         -2.6720   -3.0950    4.1940 h1        1 S29      0.150000
     35 H7A        -4.3480   -3.3210    3.9870 h1        1 S29      0.150000
     36 H1         -1.8840   -1.4540    5.8460 ha        1 S29      0.139750
     37 H2         -2.3370   -0.3250    7.8770 ha        1 S29      0.139750
     38 H3         -4.5300   -0.0900    8.6260 ha        1 S29      0.139750
     39 H4         -6.3570   -0.9910    7.3510 ha        1 S29      0.139750
     40 H5         -6.0210   -2.1570    5.2770 ha        1 S29      0.131000
     41 HN9        -2.1010   -2.5260    1.6340 hn        1 S29      0.261000
     42 H10        -3.7000   -0.7600    0.1610 h1        1 S29      0.133000
     43 H33        -4.1490   -3.4200    0.0580 hc        1 S29      0.092333
     44 H33A       -4.5050   -2.3540   -1.0550 hc        1 S29      0.092333
     45 H33B       -3.1830   -3.1130   -1.2860 hc        1 S29      0.092333
     46 H16        -0.0320   -0.3460   -2.9760 h1        1 S29      0.125000
     47 H21        -1.4500    0.8420   -4.0610 hc        1 S29      0.116000
     48 H21A       -0.4800    1.9910   -3.4410 hc        1 S29      0.116000
     49 H22        -2.9720    2.2560   -3.0130 hc        1 S29      0.099500
     50 H22A       -1.9960    2.6310   -1.7340 hc        1 S29      0.099500
     51 H23        -3.5050    0.5280   -2.2240 h1        1 S29      0.092500
     52 H23A       -3.2590    1.2370   -0.8450 h1        1 S29      0.092500
     53 HN19        2.1240    0.6500   -2.9020 hn        1 S29      0.249000
     54 H20         3.1470    0.6810   -0.4160 h1        1 S29      0.110500
     55 H20A        2.8180    2.2760   -0.8030 h1        1 S29      0.110500
     56 H31         4.2190    3.4300   -2.5700 ha        1 S29      0.159000
     57 H29         6.2390    3.4970   -3.8270 ha        1 S29      0.150000
     58 HN30        9.1540    1.9140   -2.5910 DU        1 S29      0.150000
     59 HN32        8.8550    1.7640   -6.0780 hn        1 S29      0.193000
     60 HN3A        7.4050    1.0270   -6.0370 hn        1 S29      0.193000
     61 H27         6.9010   -0.4290   -2.9450 ha        1 S29      0.138000
     62 H25         4.9160   -0.5110   -1.7150 ha        1 S29      0.136000
@<TRIPOS>BOND
     1    1    2 1   
     2    1    3 1   
     3    1   34 1   
     4    1   35 1   
     5    2    9 1   
     6    2   10 1   
     7    3    8 1   
     8    4    5 1   
     9    4   36 1   
    10    5   37 1   
    11    6    7 1   
    12    6   38 1   
    13    7   39 1   
    14    8   40 1   
    15   11   12 1   
    16   11   41 1   
    17   12   13 1   
    18   12   14 1   
    19   12   42 1   
    20   13   43 1   
    21   13   44 1   
    22   13   45 1   
    23   14   15 1   
    24   14   16 1   
    25   16   17 1   
    26   16   22 1   
    27   17   18 1   
    28   17   20 1   
    29   17   46 1   
    30   18   19 1   
    31   18   23 1   
    32   20   21 1   
    33   20   47 1   
    34   20   48 1   
    35   21   22 1   
    36   21   49 1   
    37   21   50 1   
    38   22   51 1   
    39   22   52 1   
    40   23   24 1   
    41   23   53 1   
    42   24   25 1   
    43   24   54 1   
    44   24   55 1   
    45   25   26 1   
    46   25   33 1   
    47   26   27 1   
    48   26   56 1   
    49   27   57 1   
    50   28   32 1   
    51   29   30 1   
    52   29   31 1   
    53   31   59 1   
    54   31   60 1   
    55   32   61 1   
    56   33   62 1   
@<TRIPOS>SUBSTRUCTURE
     1 S29         1 TEMP              0 ****  ****    0 ROOT
