@<TRIPOS>MOLECULE
S2D
   24    24     1     0     0
SMALL
bcc


@<TRIPOS>ATOM
      1 O2          0.2560   -2.1480   -0.2830 o         1 S2D     -0.660100
      2 C4          0.3270   -0.9020   -0.1390 c         1 S2D      0.650700
      3 C27         1.6770   -0.2450   -0.0950 ca        1 S2D     -0.119600
      4 C32         2.7360   -0.9550    0.4850 ca        1 S2D     -0.095500
      5 C31         4.0090   -0.3920    0.5380 ca        1 S2D     -0.148500
      6 C30         4.2340    0.8780    0.0070 ca        1 S2D     -0.131000
      7 C29         3.1840    1.5830   -0.5800 ca        1 S2D     -0.148500
      8 C28         1.9060    1.0250   -0.6320 ca        1 S2D     -0.095500
      9 N1         -0.7620   -0.1020    0.0070 n         1 S2D     -0.517900
     10 C2         -2.1340   -0.5620   -0.0090 c3        1 S2D     -0.037300
     11 C3         -2.5910   -1.0950   -1.3620 c3        1 S2D     -0.090100
     12 C1         -3.1240    0.5820    0.4250 c         1 S2D      0.915600
     13 O1         -2.7040    1.7740    0.4440 o         1 S2D     -0.831800
     14 OXT        -4.2900    0.2170    0.7270 o         1 S2D     -0.831800
     15 H1         -0.6570    0.8830    0.1410 hn        1 S2D      0.335500
     16 H32         2.5450   -1.9630    0.8850 ha        1 S2D      0.150000
     17 H28         1.0870    1.5910   -1.1020 ha        1 S2D      0.150000
     18 H31         4.8370   -0.9510    0.9970 ha        1 S2D      0.122500
     19 H30         5.2390    1.3230    0.0500 ha        1 S2D      0.117000
     20 H29         3.3600    2.5830   -1.0010 ha        1 S2D      0.122500
     21 H2         -2.2280   -1.3980    0.7450 h1        1 S2D      0.050700
     22 H3C1       -1.9780   -1.9760   -1.6710 hc        1 S2D      0.031033
     23 H3C2       -3.6610   -1.4020   -1.2640 hc        1 S2D      0.031033
     24 H3C3       -2.5170   -0.3090   -2.1490 hc        1 S2D      0.031033
@<TRIPOS>BOND
     1    1    2 2   
     2    2    3 1   
     3    2    9 1   
     4    3    4 ar  
     5    3    8 ar  
     6    4    5 ar  
     7    4   16 1   
     8    5    6 ar  
     9    5   18 1   
    10    6    7 ar  
    11    6   19 1   
    12    7    8 ar  
    13    7   20 1   
    14    8   17 1   
    15    9   10 1   
    16    9   15 1   
    17   10   11 1   
    18   10   12 1   
    19   10   21 1   
    20   11   22 1   
    21   11   23 1   
    22   11   24 1   
    23   12   13 1   
    24   12   14 1   
@<TRIPOS>SUBSTRUCTURE
     1 S2D         1 TEMP              0 ****  ****    0 ROOT
