@<TRIPOS>MOLECULE
S2D
   24    21     1     0     0
SMALL
bcc


@<TRIPOS>ATOM
      1 O2         -2.0700   -0.1160    0.0940 o         1 S2D     -0.421000
      2 C4         -0.8730   -0.1140    0.0750 c1        1 S2D      0.324000
      3 C27        -0.1180   -0.2280    1.3360 c1        1 S2D     -0.099000
      4 C32        -0.8090   -0.2450    2.5750 c2        1 S2D     -0.088000
      5 C31        -0.0820   -0.3020    3.7840 c1        1 S2D     -0.151000
      6 C30         1.3010   -0.3420    3.7600 c1        1 S2D     -0.138500
      7 C29         1.9860   -0.3250    2.5310 c1        1 S2D     -0.138500
      8 C28         1.2590   -0.2680    1.3170 c1        1 S2D     -0.103000
      9 N1         -0.1670   -0.0940   -1.1960 n3        1 S2D     -0.327000
     10 C2         -0.8500    0.2720   -2.3920 c3        1 S2D     -0.064000
     11 C3         -0.3960   -0.6170   -3.5040 c3        1 S2D     -0.208000
     12 C1         -0.5220    1.7360   -2.7350 c2        1 S2D      0.335000
     13 O1          0.7240    2.1100   -2.8480 o         1 S2D     -0.566500
     14 OXT        -1.4810    2.6160   -2.8390 o         1 S2D     -0.566500
     15 H1          0.6900   -0.3180   -1.2320 hn        1 S2D      0.249000
     16 H32        -1.8400   -0.3190    2.5900 ha        1 S2D      0.152000
     17 H28         1.7580   -0.2580    0.4260 ha        1 S2D      0.148000
     18 H31        -0.5680   -0.3150    4.6630 ha        1 S2D      0.121000
     19 H30         1.7950   -0.3810    4.5830 ha        1 S2D      0.120500
     20 H29         3.0090   -0.2110    2.5180 ha        1 S2D      0.120500
     21 H2         -1.8400    0.1690   -2.2600 h1        1 S2D      0.090000
     22 H3C1        0.1720   -0.1040   -4.1180 hc        1 S2D      0.070333
     23 H3C2        0.1200   -1.3810   -3.1250 hc        1 S2D      0.070333
     24 H3C3       -1.1950   -0.9690   -4.0040 hc        1 S2D      0.070333
@<TRIPOS>BOND
     1    1    2 1   
     2    2    9 1   
     3    3    4 1   
     4    3    8 1   
     5    4    5 1   
     6    4   16 1   
     7    5   18 1   
     8    6    7 1   
     9    6   19 1   
    10    7   20 1   
    11    8   17 1   
    12    9   10 1   
    13    9   15 1   
    14   10   11 1   
    15   10   12 1   
    16   10   21 1   
    17   11   22 1   
    18   11   23 1   
    19   11   24 1   
    20   12   13 1   
    21   12   14 1   
@<TRIPOS>SUBSTRUCTURE
     1 S2D         1 TEMP              0 ****  ****    0 ROOT
