@<TRIPOS>MOLECULE
S2G
   16    15     1     0     0
SMALL
bcc


@<TRIPOS>ATOM
      1 C1          0.0430    0.2570   -0.1140 c         1 S2G      0.889600
      2 C3          2.0580   -1.1830   -0.7110 c3        1 S2G     -0.069400
      3 C4          3.5590   -1.2040   -0.8880 c3        1 S2G     -0.174400
      4 C5          4.0990   -2.5100   -1.4750 c         1 S2G      0.902600
      5 O2         -0.4860    0.6900   -1.1770 o         1 S2G     -0.864800
      6 O1         -0.6240   -0.0250    0.9300 o         1 S2G     -0.864800
      7 O3          2.0050    0.1430    1.3220 oh        1 S2G     -0.647800
      8 O5          4.8630   -2.4420   -2.4900 o         1 S2G     -0.879300
      9 C2          1.5780    0.1000   -0.0370 c3        1 S2G      0.025100
     10 O4          3.8210   -3.6170   -0.9220 o         1 S2G     -0.879300
     11 H2          2.0670    0.9900   -0.5190 h1        1 S2G      0.034700
     12 H3          1.5530   -1.2620   -1.7080 hc        1 S2G      0.042700
     13 H3A         1.7490   -2.0680   -0.0970 hc        1 S2G      0.042700
     14 H4          3.8720   -0.3550   -1.5500 hc        1 S2G      0.016700
     15 H4A         4.0440   -1.0510    0.1110 hc        1 S2G      0.016700
     16 HO3         1.2930   -0.2620    1.8390 ho        1 S2G      0.408000
@<TRIPOS>BOND
     1    1    5 1   
     2    1    6 1   
     3    1    9 1   
     4    2    3 1   
     5    2    9 1   
     6    2   12 1   
     7    2   13 1   
     8    3    4 1   
     9    3   14 1   
    10    3   15 1   
    11    4    8 1   
    12    4   10 1   
    13    7    9 1   
    14    7   16 1   
    15    9   11 1   
@<TRIPOS>SUBSTRUCTURE
     1 S2G         1 TEMP              0 ****  ****    0 ROOT
