@<TRIPOS>MOLECULE
S2G
   16    15     1     0     0
SMALL
bcc


@<TRIPOS>ATOM
      1 C1          2.3780   -0.2970    0.1610 c         1 S2G      0.889600
      2 C3         -0.1590   -0.2000   -0.0460 c3        1 S2G     -0.069400
      3 C4         -1.4170    0.4950    0.4230 c3        1 S2G     -0.174400
      4 C5         -2.7100   -0.1650   -0.0600 c         1 S2G      0.902600
      5 O2          2.6920   -1.1850    1.0050 o         1 S2G     -0.864800
      6 O1          3.0870   -0.0250   -0.8580 o         1 S2G     -0.864800
      7 O3          1.2120    1.7850   -0.3140 oh        1 S2G     -0.647800
      8 O5         -3.5980   -0.4500    0.8050 o         1 S2G     -0.879300
      9 C2          1.1020    0.5460    0.3800 c3        1 S2G      0.025100
     10 O4         -2.8940   -0.3700   -1.2980 o         1 S2G     -0.879300
     11 H2          1.0280    0.8310    1.4660 h1        1 S2G      0.034700
     12 H3         -0.1110   -1.2360    0.3790 hc        1 S2G      0.042700
     13 H3A        -0.1830   -0.2880   -1.1630 hc        1 S2G      0.042700
     14 H4         -1.4290    0.5340    1.5430 hc        1 S2G      0.016700
     15 H4A        -1.4080    1.5500    0.0450 hc        1 S2G      0.016700
     16 HO3         1.7270    1.6000   -1.1130 ho        1 S2G      0.408000
@<TRIPOS>BOND
     1    1    5 1   
     2    1    6 1   
     3    1    9 1   
     4    2    3 1   
     5    2    9 1   
     6    2   12 1   
     7    2   13 1   
     8    3    4 1   
     9    3   14 1   
    10    3   15 1   
    11    4    8 1   
    12    4   10 1   
    13    7    9 1   
    14    7   16 1   
    15    9   11 1   
@<TRIPOS>SUBSTRUCTURE
     1 S2G         1 TEMP              0 ****  ****    0 ROOT
