@<TRIPOS>MOLECULE
S2G
   16    14     1     0     0
SMALL
bcc


@<TRIPOS>ATOM
      1 C1         -2.1540    0.7440    0.7140 c1        1 S2G      0.309000
      2 C3         -0.1030   -0.4970    0.0460 c3        1 S2G     -0.148000
      3 C4          1.1200   -0.1380   -0.7970 c3        1 S2G     -0.203000
      4 C5          1.6830   -1.3860   -1.4300 c2        1 S2G      0.322000
      5 O2         -2.8270    1.3190   -0.2190 os        1 S2G     -0.586000
      6 O1         -2.7480    0.0500    1.5810 o         1 S2G     -0.613000
      7 O3         -0.1870    0.9170    2.0200 oh        1 S2G     -0.375000
      8 O5          1.3570   -1.7030   -2.6730 o         1 S2G     -0.614000
      9 C2         -0.6710    0.8000    0.6970 c3        1 S2G     -0.036000
     10 O4          2.5460   -2.1190   -0.7740 o         1 S2G     -0.614000
     11 H2         -0.3710    1.6100    0.1530 h1        1 S2G      0.074000
     12 H3          0.1700   -1.1610    0.7800 hc        1 S2G      0.082000
     13 H3A        -0.7600   -0.8880   -0.5020 hc        1 S2G      0.082000
     14 H4          0.8670    0.4780   -1.4780 hc        1 S2G      0.056000
     15 H4A         1.7960    0.2700   -0.2260 hc        1 S2G      0.056000
     16 HO3         0.2810    1.7060    2.1070 ho        1 S2G      0.207000
@<TRIPOS>BOND
     1    1    6 1   
     2    1    9 1   
     3    2    3 1   
     4    2    9 1   
     5    2   12 1   
     6    2   13 1   
     7    3    4 1   
     8    3   14 1   
     9    3   15 1   
    10    4    8 1   
    11    4   10 1   
    12    7    9 1   
    13    7   16 1   
    14    9   11 1   
@<TRIPOS>SUBSTRUCTURE
     1 S2G         1 TEMP              0 ****  ****    0 ROOT
