@<TRIPOS>MOLECULE
S2G
   16    15     1     0     0
SMALL
bcc


@<TRIPOS>ATOM
      1 C1          0.0960    0.3730   -0.1890 c         1 S2G      0.889600
      2 C3          2.0520   -1.1670   -0.7260 c3        1 S2G     -0.069400
      3 C4          3.5570   -1.2710   -0.8330 c3        1 S2G     -0.174400
      4 C5          4.0490   -2.5940   -1.4260 c         1 S2G      0.902600
      5 O2         -0.3560    0.8590   -1.2650 o         1 S2G     -0.864800
      6 O1         -0.6360    0.1070    0.8150 o         1 S2G     -0.864800
      7 O3          1.9760    0.1140    1.3350 oh        1 S2G     -0.647800
      8 O5          4.8660   -2.5470   -2.4000 o         1 S2G     -0.879300
      9 C2          1.6140    0.1260   -0.0430 c3        1 S2G      0.025100
     10 O4          3.6810   -3.6940   -0.9160 o         1 S2G     -0.879300
     11 H2          2.1750    0.9970   -0.4800 h1        1 S2G      0.034700
     12 H3          1.6640   -2.0470   -0.1500 hc        1 S2G      0.042700
     13 H3A         1.5920   -1.1950   -1.7470 hc        1 S2G      0.042700
     14 H4          3.9480   -0.4280   -1.4580 hc        1 S2G      0.016700
     15 H4A         4.0000   -1.1690    0.1920 hc        1 S2G      0.016700
     16 HO3         1.2180   -0.2610    1.8070 ho        1 S2G      0.408000
@<TRIPOS>BOND
     1    1    5 1   
     2    1    6 1   
     3    1    9 1   
     4    2    3 1   
     5    2    9 1   
     6    2   12 1   
     7    2   13 1   
     8    3    4 1   
     9    3   14 1   
    10    3   15 1   
    11    4    8 1   
    12    4   10 1   
    13    7    9 1   
    14    7   16 1   
    15    9   11 1   
@<TRIPOS>SUBSTRUCTURE
     1 S2G         1 TEMP              0 ****  ****    0 ROOT
