@<TRIPOS>MOLECULE
S2H
    4     3     1     0     0
SMALL
bcc


@<TRIPOS>ATOM
      1 S1         -0.0150    0.4540    0.0300 sh        1 S2H     -0.210800
      2 S2          2.0910    0.3900    0.0230 sh        1 S2H     -0.210800
      3 HS1        -0.2420   -0.4470    0.9750 hs        1 S2H      0.210800
      4 HS2         2.2670   -0.3980   -1.0280 hs        1 S2H      0.210800
@<TRIPOS>BOND
     1    1    2 1   
     2    1    3 1   
     3    2    4 1   
@<TRIPOS>SUBSTRUCTURE
     1 S2H         1 TEMP              0 ****  ****    0 ROOT
