@<TRIPOS>MOLECULE
S2H
    4     3     1     0     0
SMALL
bcc


@<TRIPOS>ATOM
      1 S1         -1.0250    0.0000   -0.0000 sh        1 S2H     -0.210800
      2 S2          1.0250    0.0000   -0.0000 sh        1 S2H     -0.210800
      3 HS1        -1.4180    0.0000    1.1100 hs        1 S2H      0.210800
      4 HS2         1.4180   -0.0000   -1.1100 hs        1 S2H      0.210800
@<TRIPOS>BOND
     1    1    2 1   
     2    1    3 1   
     3    2    4 1   
@<TRIPOS>SUBSTRUCTURE
     1 S2H         1 TEMP              0 ****  ****    0 ROOT
