@<TRIPOS>MOLECULE
S2H
    4     3     1     0     0
SMALL
bcc


@<TRIPOS>ATOM
      1 S1         -0.0430    0.0000   -0.1120 sh        1 S2H     -0.246800
      2 S2          2.0930   -0.0000    0.1120 sh        1 S2H     -0.246800
      3 HS1        -0.2930   -0.0000    1.1890 hs        1 S2H      0.246800
      4 HS2         2.3440    0.0000   -1.1890 hs        1 S2H      0.246800
@<TRIPOS>BOND
     1    1    2 1   
     2    1    3 1   
     3    2    4 1   
@<TRIPOS>SUBSTRUCTURE
     1 S2H         1 TEMP              0 ****  ****    0 ROOT
