@<TRIPOS>MOLECULE
S2I
   53    56     1     0     0
SMALL
bcc


@<TRIPOS>ATOM
      1 C01        -0.0070    0.4460    0.0170 c3        1 S2I     -0.100400
      2 C02         1.5200    0.4150    0.0460 c3        1 S2I      0.202800
      3 N03         2.0660    0.7790    1.3300 nh        1 S2I     -0.850900
      4 C04         3.3800    0.4230    1.6380 ca        1 S2I      0.686200
      5 C05         4.3360    0.1950    0.6070 ca        1 S2I     -0.436600
      6 C06         5.6800   -0.0690    0.9870 ca        1 S2I      0.674200
      7 N07         6.0440   -0.1160    2.3090 nb        1 S2I     -0.746000
      8 C08         5.0560    0.1220    3.2150 cp        1 S2I      0.647000
      9 C09         5.4540    0.0790    4.6660 cp        1 S2I      0.371300
     10 C10         4.9090   -0.9350    5.4790 ca        1 S2I     -0.212300
     11 C11         5.2840   -0.9790    6.8240 ca        1 S2I     -0.098000
     12 C12         6.1750   -0.0230    7.3100 ca        1 S2I     -0.240300
     13 C13         6.6580    0.9540    6.4190 ca        1 S2I      0.392200
     14 N14         6.3160    1.0190    5.1190 nb        1 S2I     -0.632000
     15 N15         3.7430    0.3690    2.9670 nb        1 S2I     -0.763000
     16 N16         6.6520   -0.2260   -0.0480 nh        1 S2I     -0.742300
     17 C17         8.0430   -0.0470    0.3450 c3        1 S2I      0.191800
     18 C18         8.9660    0.3160   -0.8230 c3        1 S2I     -0.040600
     19 C19         9.3770   -0.8580   -1.6370 ca        1 S2I     -0.076300
     20 C20        10.7270   -1.2210   -1.7040 ca        1 S2I     -0.126500
     21 C21        11.1350   -2.3010   -2.4830 ca        1 S2I     -0.130000
     22 C22        10.1930   -3.0310   -3.2060 ca        1 S2I     -0.130000
     23 C23         8.8460   -2.6790   -3.1450 ca        1 S2I     -0.126500
     24 C24         8.4280   -1.5970   -2.3640 ca        1 S2I     -0.076300
     25 C25         6.9880   -1.2300   -2.3170 c3        1 S2I     -0.040600
     26 C26         6.3980   -1.3720   -0.9110 c3        1 S2I      0.191800
     27 C27        -0.4890    0.1150   -1.3850 c3        1 S2I      0.135400
     28 O28        -1.9070    0.1090   -1.3380 oh        1 S2I     -0.598800
     29 H01        -0.4340   -0.2970    0.7400 hc        1 S2I      0.066700
     30 H01A       -0.3910    1.4580    0.3090 hc        1 S2I      0.066700
     31 H02         1.9170    1.1470   -0.7170 h1        1 S2I      0.042700
     32 H02A        1.8680   -0.6150   -0.2620 h1        1 S2I      0.042700
     33 HN03        1.4190    0.7970    2.0900 hn        1 S2I      0.432800
     34 H05         4.0550    0.2630   -0.4510 ha        1 S2I      0.156000
     35 H10         4.2040   -1.6650    5.0610 ha        1 S2I      0.151000
     36 H11         4.8800   -1.7570    7.4870 ha        1 S2I      0.139000
     37 H12         6.4950   -0.0230    8.3590 ha        1 S2I      0.143000
     38 H13         7.3620    1.7350    6.7610 h4        1 S2I      0.024100
     39 H17         8.4460   -0.9680    0.8570 h1        1 S2I      0.050950
     40 H17A        8.0930    0.8080    1.0790 h1        1 S2I      0.050950
     41 H18         8.4730    1.0740   -1.4900 hc        1 S2I      0.058450
     42 H18A        9.8740    0.8060   -0.3770 hc        1 S2I      0.058450
     43 H20        11.4740   -0.6460   -1.1350 ha        1 S2I      0.130500
     44 H21        12.1990   -2.5770   -2.5260 ha        1 S2I      0.131000
     45 H22        10.5110   -3.8840   -3.8230 ha        1 S2I      0.131000
     46 H23         8.1050   -3.2580   -3.7170 ha        1 S2I      0.130500
     47 H25         6.8570   -0.1800   -2.6950 hc        1 S2I      0.058450
     48 H25A        6.3990   -1.9060   -2.9940 hc        1 S2I      0.058450
     49 H26         6.8020   -2.3190   -0.4460 h1        1 S2I      0.050950
     50 H26A        5.2820   -1.4960   -1.0200 h1        1 S2I      0.050950
     51 H27        -0.1300    0.8850   -2.1190 h1        1 S2I      0.024200
     52 H27A       -0.1140   -0.8950   -1.7060 h1        1 S2I      0.024200
     53 HO28       -2.2110   -0.0680   -2.2350 ho        1 S2I      0.404000
@<TRIPOS>BOND
     1    1    2 1   
     2    1   27 1   
     3    1   29 1   
     4    1   30 1   
     5    2    3 1   
     6    2   31 1   
     7    2   32 1   
     8    3    4 1   
     9    3   33 1   
    10    4    5 ar  
    11    4   15 ar  
    12    5    6 ar  
    13    5   34 1   
    14    6    7 ar  
    15    6   16 1   
    16    7    8 ar  
    17    8    9 1   
    18    8   15 ar  
    19    9   10 ar  
    20    9   14 ar  
    21   10   11 ar  
    22   10   35 1   
    23   11   12 ar  
    24   11   36 1   
    25   12   13 ar  
    26   12   37 1   
    27   13   14 ar  
    28   13   38 1   
    29   16   17 1   
    30   16   26 1   
    31   17   18 1   
    32   17   39 1   
    33   17   40 1   
    34   18   19 1   
    35   18   41 1   
    36   18   42 1   
    37   19   20 ar  
    38   19   24 ar  
    39   20   21 ar  
    40   20   43 1   
    41   21   22 ar  
    42   21   44 1   
    43   22   23 ar  
    44   22   45 1   
    45   23   24 ar  
    46   23   46 1   
    47   24   25 1   
    48   25   26 1   
    49   25   47 1   
    50   25   48 1   
    51   26   49 1   
    52   26   50 1   
    53   27   28 1   
    54   27   51 1   
    55   27   52 1   
    56   28   53 1   
@<TRIPOS>SUBSTRUCTURE
     1 S2I         1 TEMP              0 ****  ****    0 ROOT
