@<TRIPOS>MOLECULE
S2I
   53    56     1     0     0
SMALL
bcc


@<TRIPOS>ATOM
      1 C01        -0.0090    0.4310    0.0170 c3        1 S2I     -0.100400
      2 C02         1.5180    0.4040    0.0450 c3        1 S2I      0.202800
      3 N03         2.0630    0.7730    1.3280 nu        1 S2I     -0.850900
      4 C04         3.3790    0.4210    1.6370 ca        1 S2I      0.686200
      5 C05         4.3340    0.1920    0.6050 ca        1 S2I     -0.436600
      6 C06         5.6790   -0.0680    0.9850 ca        1 S2I      0.674200
      7 N07         6.0440   -0.1100    2.3080 nb        1 S2I     -0.746000
      8 C08         5.0560    0.1290    3.2130 cp        1 S2I      0.647000
      9 C09         5.4540    0.0910    4.6650 cp        1 S2I      0.371300
     10 C10         4.9130   -0.9220    5.4810 ca        1 S2I     -0.212300
     11 C11         5.2890   -0.9610    6.8260 ca        1 S2I     -0.098000
     12 C12         6.1770   -0.0000    7.3080 ca        1 S2I     -0.240300
     13 C13         6.6570    0.9760    6.4140 ca        1 S2I      0.392200
     14 N14         6.3140    1.0360    5.1140 nb        1 S2I     -0.632000
     15 N15         3.7420    0.3720    2.9660 nb        1 S2I     -0.763000
     16 N16         6.6510   -0.2250   -0.0490 nh        1 S2I     -0.742300
     17 C17         8.0430   -0.0420    0.3420 c3        1 S2I      0.191800
     18 C18         8.9640    0.3190   -0.8270 c3        1 S2I     -0.040600
     19 C19         9.3770   -0.8560   -1.6380 ca        1 S2I     -0.076300
     20 C20        10.7280   -1.2160   -1.7040 ca        1 S2I     -0.126500
     21 C21        11.1380   -2.2980   -2.4800 ca        1 S2I     -0.130000
     22 C22        10.1970   -3.0320   -3.2010 ca        1 S2I     -0.130000
     23 C23         8.8500   -2.6830   -3.1400 ca        1 S2I     -0.126500
     24 C24         8.4290   -1.5990   -2.3620 ca        1 S2I     -0.076300
     25 C25         6.9880   -1.2360   -2.3150 c3        1 S2I     -0.040600
     26 C26         6.3990   -1.3750   -0.9080 c3        1 S2I      0.191800
     27 C27        -0.4910    0.0940   -1.3840 c3        1 S2I      0.135400
     28 O28        -1.9090    0.0860   -1.3360 oh        1 S2I     -0.598800
     29 H01        -0.3950    1.4430    0.3060 hc        1 S2I      0.066700
     30 H01A       -0.4340   -0.3100    0.7420 hc        1 S2I      0.066700
     31 H02         1.8680   -0.6260   -0.2590 h1        1 S2I      0.042700
     32 H02A        1.9130    1.1340   -0.7200 h1        1 S2I      0.042700
     33 HN03        1.4160    0.7920    2.0880 hn        1 S2I      0.432800
     34 H05         4.0530    0.2560   -0.4520 ha        1 S2I      0.156000
     35 H10         4.2090   -1.6550    5.0660 ha        1 S2I      0.151000
     36 H11         4.8870   -1.7380    7.4920 ha        1 S2I      0.139000
     37 H12         6.4970    0.0040    8.3580 ha        1 S2I      0.143000
     38 H13         7.3580    1.7590    6.7540 h4        1 S2I      0.024100
     39 H17         8.0900    0.8150    1.0740 h1        1 S2I      0.050950
     40 H17A        8.4470   -0.9610    0.8570 h1        1 S2I      0.050950
     41 H18         8.4680    1.0750   -1.4960 hc        1 S2I      0.058450
     42 H18A        9.8710    0.8130   -0.3830 hc        1 S2I      0.058450
     43 H20        11.4740   -0.6380   -1.1370 ha        1 S2I      0.130500
     44 H21        12.2020   -2.5710   -2.5230 ha        1 S2I      0.131000
     45 H22        10.5160   -3.8860   -3.8160 ha        1 S2I      0.131000
     46 H23         8.1100   -3.2650   -3.7100 ha        1 S2I      0.130500
     47 H25         6.4000   -1.9140   -2.9900 hc        1 S2I      0.058450
     48 H25A        6.8540   -0.1870   -2.6960 hc        1 S2I      0.058450
     49 H26         5.2840   -1.5020   -1.0170 h1        1 S2I      0.050950
     50 H26A        6.8060   -2.3190   -0.4410 h1        1 S2I      0.050950
     51 H27        -0.1140   -0.9150   -1.7020 h1        1 S2I      0.024200
     52 H27A       -0.1340    0.8630   -2.1210 h1        1 S2I      0.024200
     53 HO28       -2.2130   -0.0960   -2.2330 ho        1 S2I      0.404000
@<TRIPOS>BOND
     1    1    2 1   
     2    1   27 1   
     3    1   29 1   
     4    1   30 1   
     5    2    3 1   
     6    2   31 1   
     7    2   32 1   
     8    3    4 1   
     9    3   33 1   
    10    4    5 ar  
    11    4   15 ar  
    12    5    6 ar  
    13    5   34 1   
    14    6    7 ar  
    15    6   16 1   
    16    7    8 ar  
    17    8    9 1   
    18    8   15 ar  
    19    9   10 ar  
    20    9   14 ar  
    21   10   11 ar  
    22   10   35 1   
    23   11   12 ar  
    24   11   36 1   
    25   12   13 ar  
    26   12   37 1   
    27   13   14 ar  
    28   13   38 1   
    29   16   17 1   
    30   16   26 1   
    31   17   18 1   
    32   17   39 1   
    33   17   40 1   
    34   18   19 1   
    35   18   41 1   
    36   18   42 1   
    37   19   20 ar  
    38   19   24 ar  
    39   20   21 ar  
    40   20   43 1   
    41   21   22 ar  
    42   21   44 1   
    43   22   23 ar  
    44   22   45 1   
    45   23   24 ar  
    46   23   46 1   
    47   24   25 1   
    48   25   26 1   
    49   25   47 1   
    50   25   48 1   
    51   26   49 1   
    52   26   50 1   
    53   27   28 1   
    54   27   51 1   
    55   27   52 1   
    56   28   53 1   
@<TRIPOS>SUBSTRUCTURE
     1 S2I         1 TEMP              0 ****  ****    0 ROOT
