@<TRIPOS>MOLECULE
S2M
   45    44     1     0     0
SMALL
bcc


@<TRIPOS>ATOM
      1 O4         -5.3410    0.6050   -1.1530 o         1 S2M     -0.628500
      2 C4         -4.1270    0.6530   -1.1460 c1        1 S2M      0.569500
      3 C5         -3.4050    0.7870    0.1260 c1        1 S2M     -0.202100
      4 C6         -1.9370    0.8640    0.1270 c1        1 S2M      0.080500
      5 C5M        -4.1720    0.9560    1.4170 c3        1 S2M     -0.086000
      6 N3         -3.4110    0.6650   -2.3700 n         1 S2M     -0.480500
      7 S2         -1.1050    0.5500   -3.8020 s         1 S2M     -0.566300
      8 C2         -1.9500    0.6780   -2.3620 c2        1 S2M      0.403300
      9 C5'        -0.1830   -1.9700   -1.8250 c3        1 S2M      0.223400
     10 O5'        -0.4110   -2.3500   -3.1600 os        1 S2M     -0.569200
     11 P          -0.6300   -3.8820   -3.4810 p5        1 S2M      1.346900
     12 OP2        -1.8040   -4.4000   -2.6850 o         1 S2M     -0.923500
     13 OP1         0.6120   -4.6570   -3.1080 o         1 S2M     -0.923500
     14 C4'         1.0650   -1.1070   -1.7500 c3        1 S2M      0.063100
     15 O4'         0.7170    0.3970   -2.1610 os        1 S2M     -0.421600
     16 C1'         0.2160    0.9520   -1.1040 c3        1 S2M      0.372300
     17 N1         -1.2240    0.8120   -1.0990 n2        1 S2M     -0.327200
     18 C2'         0.8310    0.1850    0.0810 c3        1 S2M      0.109100
     19 C3'         1.5000   -1.0610   -0.5350 c3        1 S2M      0.083100
     20 O3'         2.9870   -0.9090   -0.5230 oh        1 S2M     -0.661800
     21 O2'         1.7530    0.9510    0.7060 os        1 S2M     -0.422600
     22 CA'         1.8130    0.7480    2.0970 c3        1 S2M      0.119400
     23 CB'         2.8200    1.7010    2.7020 c3        1 S2M      0.114400
     24 OC'         3.0620    1.3410    4.0410 os        1 S2M     -0.452600
     25 CD'         3.9620    2.1960    4.7090 c3        1 S2M      0.109700
     26 OP3        -0.9060   -4.0530   -4.9550 o         1 S2M     -0.923500
     27 H6         -1.4530    0.9530    0.9700 ha        1 S2M      0.248500
     28 H71        -3.5530    0.9030    2.1750 hc        1 S2M      0.065700
     29 H72        -4.8440    0.2460    1.4930 hc        1 S2M      0.065700
     30 H73        -4.6180    1.8290    1.4200 hc        1 S2M      0.065700
     31 H3         -3.8630    0.6800   -3.1620 hn        1 S2M      0.339500
     32 H5'        -0.9520   -1.4620   -1.4940 h1        1 S2M      0.001200
     33 H5''       -0.0600   -2.7720   -1.2740 h1        1 S2M      0.001200
     34 H4'         1.7570   -1.4650   -2.3410 h1        1 S2M      0.053700
     35 H1'         0.4670    1.8970   -1.0650 h2        1 S2M      0.136700
     36 H2'         0.1320   -0.0820    0.7090 h1        1 S2M      0.053700
     37 H3'         1.2350   -1.8660   -0.0470 h1        1 S2M      0.151700
     38 HO3'        3.3640   -1.7040   -0.3980 ho        1 S2M      0.492000
     39 HA'1        0.9310    0.9130    2.4900 h1        1 S2M      0.043200
     40 HA'2        2.0850   -0.1750    2.2810 h1        1 S2M      0.043200
     41 HB'1        3.6580    1.6560    2.1960 h1        1 S2M      0.058700
     42 HB'2        2.4670    2.6140    2.6680 h1        1 S2M      0.058700
     43 HD'1        4.2350    1.7860    5.5580 h1        1 S2M      0.038367
     44 HD'2        4.7530    2.3410    4.1470 h1        1 S2M      0.038367
     45 HD'3        3.5250    3.0560    4.8870 h1        1 S2M      0.038367
@<TRIPOS>BOND
     1    1    2 2   
     2    2    6 2   
     3    3    4 3   
     4    3    5 1   
     5    4   27 1   
     6    5   28 1   
     7    5   29 1   
     8    5   30 1   
     9    6    8 1   
    10    6   31 1   
    11    7    8 1   
    12    8   17 2   
    13    9   10 1   
    14    9   14 1   
    15    9   32 1   
    16    9   33 1   
    17   10   11 1   
    18   11   12 1   
    19   11   13 1   
    20   11   26 1   
    21   14   15 1   
    22   14   19 1   
    23   14   34 1   
    24   15   16 1   
    25   16   17 1   
    26   16   18 1   
    27   16   35 1   
    28   18   19 1   
    29   18   21 1   
    30   18   36 1   
    31   19   20 1   
    32   19   37 1   
    33   20   38 1   
    34   21   22 1   
    35   22   23 1   
    36   22   39 1   
    37   22   40 1   
    38   23   24 1   
    39   23   41 1   
    40   23   42 1   
    41   24   25 1   
    42   25   43 1   
    43   25   44 1   
    44   25   45 1   
@<TRIPOS>SUBSTRUCTURE
     1 S2M         1 TEMP              0 ****  ****    0 ROOT
