@<TRIPOS>MOLECULE
S2M
   45    46     1     0     0
SMALL
bcc


@<TRIPOS>ATOM
      1 O4         -2.8050    5.0740    0.2800 o         1 S2M     -0.700100
      2 C4         -1.8930    4.2180    0.3900 c         1 S2M      0.656300
      3 C5         -1.7280    2.9780   -0.3310 ce        1 S2M     -0.463500
      4 C6         -0.6400    2.1530   -0.0990 c1        1 S2M     -0.092900
      5 C5M        -2.7470    2.6170   -1.3320 c3        1 S2M      0.031100
      6 N3         -0.8930    4.4970    1.3650 n         1 S2M     -0.532500
      7 C2          0.1840    3.6660    1.6240 c         1 S2M      0.565400
      8 C5'         2.7070    1.0410   -2.0640 c3        1 S2M      0.183400
      9 O5'         3.7910    0.6150   -2.8340 os        1 S2M     -0.584200
     10 P           3.5710   -0.7190   -3.7790 p5        1 S2M      1.428800
     11 OP2         2.7720    0.0040   -5.0100 oh        1 S2M     -0.780400
     12 OP1         4.8750   -1.0560   -4.3870 o         1 S2M     -0.842500
     13 C4'         3.0230    0.8700   -0.5700 c3        1 S2M      0.089100
     14 O4'         2.5400    2.0070    0.1650 os        1 S2M     -0.421600
     15 C1'         1.4600    1.6480    1.0480 c3        1 S2M      0.309500
     16 N1          0.2980    2.5110    0.8490 n         1 S2M     -0.261400
     17 C2'         1.1620    0.1370    0.8090 c3        1 S2M      0.067100
     18 C3'         2.3910   -0.3930    0.0400 c3        1 S2M      0.078100
     19 O3'         3.2860   -1.0660    0.9060 oh        1 S2M     -0.598800
     20 O2'         1.0650   -0.4510    2.1060 os        1 S2M     -0.425600
     21 CA'         0.5780   -1.7870    2.0860 c3        1 S2M      0.100400
     22 CB'        -0.9450   -1.8380    2.0090 c3        1 S2M      0.091400
     23 OC'        -1.5400   -1.8040    3.3030 os        1 S2M     -0.445600
     24 CD'        -1.5190   -0.5120    3.8920 c3        1 S2M      0.109700
     25 OP3         2.6600   -1.6310   -3.0560 o         1 S2M     -0.842500
     26 H6          3.3710    0.3230   -5.6730 ho        1 S2M      0.419000
     27 H71        -2.4250    1.7150   -1.9070 hc        1 S2M      0.010033
     28 H72        -2.9140    3.4620   -2.0480 hc        1 S2M      0.010033
     29 H73        -3.7280    2.3960   -0.8390 hc        1 S2M      0.010033
     30 H3         -0.9650    5.3240    1.9180 hn        1 S2M      0.324500
     31 H5'         2.5470    2.1390   -2.2620 h1        1 S2M      0.046700
     32 H5''        1.7800    0.4690   -2.3420 h1        1 S2M      0.046700
     33 H4'         4.1380    0.8730   -0.4190 h1        1 S2M      0.074700
     34 H1'         1.8520    1.8290    2.1000 h2        1 S2M      0.108700
     35 H2'         0.2200   -0.0160    0.2160 h1        1 S2M      0.119700
     36 H3'         2.1280   -1.1520   -0.7500 h1        1 S2M      0.149700
     37 HO3'        3.4290   -0.4870    1.6660 ho        1 S2M      0.393000
     38 HA'1        1.0300   -2.3530    1.2300 h1        1 S2M      0.058200
     39 HA'2        0.9310   -2.2180    3.0610 h1        1 S2M      0.058200
     40 HB'1       -1.2740   -2.8270    1.5930 h1        1 S2M      0.058700
     41 HB'2       -1.3400   -1.0020    1.3750 h1        1 S2M      0.058700
     42 HD'1       -0.4770   -0.1040    3.9140 h1        1 S2M      0.037367
     43 HD'2       -1.9080   -0.6670    4.9280 h1        1 S2M      0.037367
     44 HD'3       -2.1860    0.1810    3.3210 h1        1 S2M      0.037367
     45 S2          1.1920    4.0900    2.8660 s         1 S2M     -0.778400
@<TRIPOS>BOND
     1    1    2 2   
     2    2    3 1   
     3    2    6 1   
     4    3    4 2   
     5    3    5 1   
     6    4   16 2   
     7    5   27 1   
     8    5   28 1   
     9    5   29 1   
    10    6    7 1   
    11    6   30 1   
    12    7   16 1   
    13    7   45 2   
    14    8    9 1   
    15    8   13 1   
    16    8   31 1   
    17    8   32 1   
    18    9   10 1   
    19   10   11 1   
    20   10   12 1   
    21   10   25 1   
    22   11   26 1   
    23   13   14 1   
    24   13   18 1   
    25   13   33 1   
    26   14   15 1   
    27   15   16 1   
    28   15   17 1   
    29   15   34 1   
    30   17   18 1   
    31   17   20 1   
    32   17   35 1   
    33   18   19 1   
    34   18   36 1   
    35   19   37 1   
    36   20   21 1   
    37   21   22 1   
    38   21   38 1   
    39   21   39 1   
    40   22   23 1   
    41   22   40 1   
    42   22   41 1   
    43   23   24 1   
    44   24   42 1   
    45   24   43 1   
    46   24   44 1   
@<TRIPOS>SUBSTRUCTURE
     1 S2M         1 TEMP              0 ****  ****    0 ROOT
