@<TRIPOS>MOLECULE
S2N
   83    82     1     0     0
SMALL
bcc


@<TRIPOS>ATOM
      1 CAA        -4.4110   -0.8780    0.5830 c         1 S2N      0.578700
      2 CAB        -5.8190   -1.3250    0.3140 c3        1 S2N     -0.206400
      3 CAC        -6.8430   -0.2640    0.7210 c3        1 S2N      0.144100
      4 CAD        -8.1600   -0.5050   -0.0140 c3        1 S2N     -0.110400
      5 CAE        -9.1730    0.5700    0.3160 c3        1 S2N     -0.080400
      6 CAF       -10.5100    0.2810   -0.3310 c3        1 S2N     -0.078400
      7 CAG       -11.5180    1.3640   -0.0110 c3        1 S2N     -0.079400
      8 CAH       -12.8580    1.0750   -0.6530 c3        1 S2N     -0.078400
      9 CAI       -13.8650    2.1580   -0.3340 c3        1 S2N     -0.079400
     10 CAJ       -15.2050    1.8690   -0.9760 c3        1 S2N     -0.079400
     11 CAK       -16.2140    2.9530   -0.6570 c3        1 S2N     -0.080400
     12 CAL       -17.5500    2.6690   -1.2940 c3        1 S2N     -0.092100
     13 CAP        -1.9090   -1.5020    1.6050 c3        1 S2N     -0.058300
     14 CAQ        -0.9550   -2.2170    0.6510 c3        1 S2N      0.101000
     15 CAS         1.3610   -2.5660    1.4470 c         1 S2N      0.663100
     16 CAT         2.7570   -1.9910    1.5630 c3        1 S2N     -0.187400
     17 CAU         3.4420   -1.9150    0.1930 c3        1 S2N      0.095000
     18 NAR         0.4140   -1.8130    0.7710 n         1 S2N     -0.579900
     19 OAM        -3.9740    0.2230    0.2350 o         1 S2N     -0.529100
     20 OAN        -7.0290   -0.2450    2.1250 oh        1 S2N     -0.587800
     21 OAY         1.0640   -3.6750    1.9320 o         1 S2N     -0.608100
     22 SAO        -3.5510   -2.1240    1.3970 ss        1 S2N     -0.237700
     23 CAW         5.9140   -1.9360    0.2040 c         1 S2N      0.662100
     24 CAX         7.1970   -1.1250    0.4690 c3        1 S2N      0.101100
     25 NAV         4.7090   -1.2510    0.2020 n         1 S2N     -0.554900
     26 OAZ         5.9660   -3.1600   -0.0320 o         1 S2N     -0.630100
     27 CBA         7.7230   -0.4430   -0.8150 c3        1 S2N     -0.100000
     28 CBB         9.1840    0.0150   -0.5460 c3        1 S2N      0.203400
     29 CBF         9.6850    4.2390   -1.3420 c3        1 S2N      0.159700
     30 CBG         7.7440   -1.4670   -1.9420 c3        1 S2N     -0.084600
     31 CBH         6.8290    0.7150   -1.2150 c3        1 S2N     -0.084600
     32 OBC         9.4190    1.3400   -0.8850 os        1 S2N     -0.579200
     33 OBE         9.0550    3.6940   -0.2230 os        1 S2N     -0.563200
     34 OBI         6.8990   -0.2280    1.5190 oh        1 S2N     -0.650800
     35 OBJ         9.0550    1.8490    1.5180 o         1 S2N     -0.832500
     36 OBK        11.2720    2.6080    0.3140 o         1 S2N     -0.832500
     37 PBD         9.8210    2.3660    0.3620 p5        1 S2N      1.431800
     38 HAB        -5.9070   -1.5200   -0.7890 hc        1 S2N      0.077700
     39 HABA       -6.0320   -2.2850    0.8550 hc        1 S2N      0.077700
     40 HAC        -6.4430    0.7660    0.4870 h1        1 S2N      0.100700
     41 HAD        -7.9660   -0.5170   -1.1180 hc        1 S2N      0.044700
     42 HADA       -8.5660   -1.5110    0.2710 hc        1 S2N      0.044700
     43 HAE        -9.2920    0.6360    1.4300 hc        1 S2N      0.051200
     44 HAEA       -8.7900    1.5650   -0.0340 hc        1 S2N      0.051200
     45 HAF       -10.3820    0.2030   -1.4430 hc        1 S2N      0.037700
     46 HAFA      -10.8970   -0.7100    0.0270 hc        1 S2N      0.037700
     47 HAG       -11.6430    1.4450    1.1010 hc        1 S2N      0.041700
     48 HAGA      -11.1330    2.3540   -0.3730 hc        1 S2N      0.041700
     49 HAH       -12.7320    0.9940   -1.7650 hc        1 S2N      0.038700
     50 HAHA      -13.2420    0.0850   -0.2910 hc        1 S2N      0.038700
     51 HAI       -13.9900    2.2400    0.7780 hc        1 S2N      0.040200
     52 HAIA      -13.4800    3.1480   -0.6960 hc        1 S2N      0.040200
     53 HAJ       -15.0800    1.7880   -2.0880 hc        1 S2N      0.038700
     54 HAJA      -15.5900    0.8800   -0.6140 hc        1 S2N      0.038700
     55 HAK       -16.3360    3.0340    0.4560 hc        1 S2N      0.038700
     56 HAKA      -15.8260    3.9420   -1.0190 hc        1 S2N      0.038700
     57 HAL       -17.4520    2.6100   -2.4050 hc        1 S2N      0.031700
     58 HALA      -17.9640    1.6990   -0.9270 hc        1 S2N      0.031700
     59 HALB      -18.2770    3.4790   -1.0460 hc        1 S2N      0.031700
     60 HAP        -1.6230   -1.7010    2.6680 h1        1 S2N      0.092700
     61 HAPA       -1.8940   -0.3970    1.4350 h1        1 S2N      0.092700
     62 HAQ        -1.0200   -3.3290    0.8380 h1        1 S2N      0.068200
     63 HAQA       -1.2900   -2.0140   -0.4080 h1        1 S2N      0.068200
     64 HAT         2.7070   -0.9760    2.0390 hc        1 S2N      0.079200
     65 HATA        3.3470   -2.6600    2.2450 hc        1 S2N      0.079200
     66 HAU         3.5830   -2.9650   -0.1980 h1        1 S2N      0.059700
     67 HAUA        2.7720   -1.3570   -0.5230 h1        1 S2N      0.059700
     68 HNAR        0.6480   -0.8940    0.4830 hn        1 S2N      0.311500
     69 HOAN       -7.4230   -1.0880    2.3780 ho        1 S2N      0.396000
     70 HAX         7.9680   -1.8690    0.8270 h1        1 S2N      0.057700
     71 HNAV        4.7350   -0.3180    0.5540 hn        1 S2N      0.323500
     72 HBB         9.4390   -0.1560    0.5390 h1        1 S2N      0.024700
     73 HBBA        9.8720   -0.6230   -1.1760 h1        1 S2N      0.024700
     74 HBF        10.7640    4.4380   -1.1100 h1        1 S2N      0.016700
     75 HBFA        9.6130    3.5160   -2.1950 h1        1 S2N      0.016700
     76 HBFB        9.1580    5.1920   -1.6010 h1        1 S2N      0.016700
     77 HBG         6.7080   -1.8030   -2.1920 hc        1 S2N      0.038200
     78 HBGA        8.2010   -1.0120   -2.8530 hc        1 S2N      0.038200
     79 HBGB        8.3390   -2.3640   -1.6450 hc        1 S2N      0.038200
     80 HBH         6.5850    1.3450   -0.3250 hc        1 S2N      0.038200
     81 HBHA        7.3500    1.3520   -1.9700 hc        1 S2N      0.038200
     82 HBHB        5.8770    0.3410   -1.6630 hc        1 S2N      0.038200
     83 HOBI        7.6120    0.4400    1.5750 ho        1 S2N      0.491000
@<TRIPOS>BOND
     1    1    2 1   
     2    1   19 2   
     3    1   22 1   
     4    2    3 1   
     5    2   38 1   
     6    2   39 1   
     7    3    4 1   
     8    3   20 1   
     9    3   40 1   
    10    4    5 1   
    11    4   41 1   
    12    4   42 1   
    13    5    6 1   
    14    5   43 1   
    15    5   44 1   
    16    6    7 1   
    17    6   45 1   
    18    6   46 1   
    19    7    8 1   
    20    7   47 1   
    21    7   48 1   
    22    8    9 1   
    23    8   49 1   
    24    8   50 1   
    25    9   10 1   
    26    9   51 1   
    27    9   52 1   
    28   10   11 1   
    29   10   53 1   
    30   10   54 1   
    31   11   12 1   
    32   11   55 1   
    33   11   56 1   
    34   12   57 1   
    35   12   58 1   
    36   12   59 1   
    37   13   14 1   
    38   13   22 1   
    39   13   60 1   
    40   13   61 1   
    41   14   18 1   
    42   14   62 1   
    43   14   63 1   
    44   15   16 1   
    45   15   18 1   
    46   15   21 2   
    47   16   17 1   
    48   16   64 1   
    49   16   65 1   
    50   17   25 1   
    51   17   66 1   
    52   17   67 1   
    53   18   68 1   
    54   20   69 1   
    55   23   24 1   
    56   23   25 1   
    57   23   26 2   
    58   24   27 1   
    59   24   34 1   
    60   24   70 1   
    61   25   71 1   
    62   27   28 1   
    63   27   30 1   
    64   27   31 1   
    65   28   32 1   
    66   28   72 1   
    67   28   73 1   
    68   29   33 1   
    69   29   74 1   
    70   29   75 1   
    71   29   76 1   
    72   30   77 1   
    73   30   78 1   
    74   30   79 1   
    75   31   80 1   
    76   31   81 1   
    77   31   82 1   
    78   32   37 1   
    79   33   37 1   
    80   34   83 1   
    81   35   37 1   
    82   36   37 1   
@<TRIPOS>SUBSTRUCTURE
     1 S2N         1 TEMP              0 ****  ****    0 ROOT
