@<TRIPOS>MOLECULE
S2N
   83    82     1     0     0
SMALL
bcc


@<TRIPOS>ATOM
      1 CAA        -1.3160   -1.3280   -0.8210 c         1 S2N      0.564700
      2 CAB         0.1720   -1.3230   -0.6250 c3        1 S2N     -0.215400
      3 CAC         0.5790   -0.5020    0.6000 c3        1 S2N      0.158100
      4 CAD         2.0440   -0.7570    0.9480 c3        1 S2N     -0.074400
      5 CAE         2.4090   -0.1220    2.2720 c3        1 S2N     -0.079400
      6 CAF         3.8730   -0.3270    2.5920 c3        1 S2N     -0.077400
      7 CAG         4.2360    0.2970    3.9220 c3        1 S2N     -0.079400
      8 CAH         5.7020    0.0970    4.2420 c3        1 S2N     -0.078400
      9 CAI         6.0640    0.7210    5.5730 c3        1 S2N     -0.079400
     10 CAJ         7.5290    0.5220    5.8940 c3        1 S2N     -0.079400
     11 CAK         7.8920    1.1450    7.2250 c3        1 S2N     -0.080400
     12 CAL         9.3510    0.9490    7.5490 c3        1 S2N     -0.092100
     13 CAP        -3.5840   -2.7630   -1.5730 c3        1 S2N     -0.049300
     14 CAQ        -3.9100   -2.7230   -3.0640 c3        1 S2N      0.102000
     15 CAS        -5.7500   -3.9800   -4.1170 c         1 S2N      0.660100
     16 CAT        -7.2470   -4.1490   -4.2930 c3        1 S2N     -0.186400
     17 CAU        -7.9630   -2.8830   -4.7820 c3        1 S2N      0.092000
     18 NAR        -5.3000   -2.9290   -3.3520 n         1 S2N     -0.571900
     19 OAM        -2.0180   -0.3300   -0.6220 o         1 S2N     -0.539100
     20 OAN         0.4520    0.8870    0.3380 oh        1 S2N     -0.607800
     21 OAY        -4.9560   -4.7940   -4.6410 o         1 S2N     -0.642100
     22 SAO        -1.8340   -2.8780   -1.3380 ss        1 S2N     -0.236700
     23 CAW        -8.7450   -1.5570   -2.8480 c         1 S2N      0.664100
     24 CAX        -9.8960   -1.2430   -1.8760 c3        1 S2N      0.112100
     25 NAV        -8.9980   -2.3860   -3.9260 n         1 S2N     -0.554900
     26 OAZ        -7.6100   -1.0560   -2.6770 o         1 S2N     -0.662100
     27 CBA       -10.7230   -0.0270   -2.3450 c3        1 S2N     -0.102000
     28 CBB       -11.5080    0.5620   -1.1480 c3        1 S2N      0.208400
     29 CBF       -15.0180   -0.5980    1.1390 c3        1 S2N      0.176700
     30 CBG        -9.7860    1.0560   -2.8570 c3        1 S2N     -0.082100
     31 CBH       -11.7100   -0.4200   -3.4290 c3        1 S2N     -0.082100
     32 OBC       -12.5090   -0.2950   -0.7090 os        1 S2N     -0.583200
     33 OBE       -13.9130   -1.4330    0.9950 os        1 S2N     -0.566200
     34 OBI       -10.6820   -2.4110   -1.7620 oh        1 S2N     -0.647800
     35 OBJ       -11.3970   -1.7600    0.9270 o         1 S2N     -0.827500
     36 OBK       -12.4610    0.5290    1.6860 o         1 S2N     -0.827500
     37 PBD       -12.4430   -0.7170    0.8980 p5        1 S2N      1.429800
     38 HAB         0.6430   -0.8710   -1.5400 hc        1 S2N      0.085200
     39 HABA        0.5510   -2.3740   -0.5190 hc        1 S2N      0.085200
     40 HAC        -0.0790   -0.7800    1.4720 h1        1 S2N      0.042700
     41 HAD         2.6900   -0.3360    0.1350 hc        1 S2N      0.047700
     42 HADA        2.2170   -1.8630    0.9930 hc        1 S2N      0.047700
     43 HAE         1.7790   -0.5630    3.0890 hc        1 S2N      0.050200
     44 HAEA        2.1760    0.9750    2.2280 hc        1 S2N      0.050200
     45 HAF         4.1050   -1.4250    2.6160 hc        1 S2N      0.037200
     46 HAFA        4.5030    0.1250    1.7800 hc        1 S2N      0.037200
     47 HAG         3.6080   -0.1560    4.7340 hc        1 S2N      0.041200
     48 HAGA        4.0020    1.3940    3.8980 hc        1 S2N      0.041200
     49 HAH         6.3290    0.5520    3.4310 hc        1 S2N      0.038200
     50 HAHA        5.9350   -1.0000    4.2660 hc        1 S2N      0.038200
     51 HAI         5.8290    1.8180    5.5500 hc        1 S2N      0.039700
     52 HAIA        5.4360    0.2670    6.3850 hc        1 S2N      0.039700
     53 HAJ         8.1570    0.9760    5.0830 hc        1 S2N      0.038700
     54 HAJA        7.7630   -0.5750    5.9170 hc        1 S2N      0.038700
     55 HAK         7.6550    2.2420    7.2000 hc        1 S2N      0.038700
     56 HAKA        7.2620    0.6900    8.0340 hc        1 S2N      0.038700
     57 HAL         9.6000   -0.1380    7.6020 hc        1 S2N      0.031367
     58 HALA        9.5970    1.4160    8.5330 hc        1 S2N      0.031367
     59 HALB        9.9950    1.4170    6.7660 hc        1 S2N      0.031367
     60 HAP        -3.9900   -1.8580   -1.0550 h1        1 S2N      0.097700
     61 HAPA       -4.0220   -3.6710   -1.0890 h1        1 S2N      0.097700
     62 HAQ        -3.3030   -3.5120   -3.5970 h1        1 S2N      0.064200
     63 HAQA       -3.6050   -1.7130   -3.4660 h1        1 S2N      0.064200
     64 HAT        -7.6660   -4.5080   -3.3150 hc        1 S2N      0.078200
     65 HATA       -7.3970   -4.9700   -5.0430 hc        1 S2N      0.078200
     66 HAU        -7.2200   -2.0520   -4.9520 h1        1 S2N      0.058700
     67 HAUA       -8.4390   -3.1190   -5.7790 h1        1 S2N      0.058700
     68 HNAR       -5.9560   -2.2880   -2.9570 hn        1 S2N      0.353500
     69 HOAN       -0.4830    1.0520    0.1470 ho        1 S2N      0.426000
     70 HAX        -9.4150   -1.0000   -0.8830 h1        1 S2N      0.086700
     71 HNAV       -9.8540   -2.8960   -3.8980 hn        1 S2N      0.328500
     72 HBB       -10.7950    0.7990   -0.3090 h1        1 S2N      0.022200
     73 HBBA      -11.9880    1.5210   -1.5000 h1        1 S2N      0.022200
     74 HBF       -14.7020    0.4700    1.2710 h1        1 S2N      0.012033
     75 HBFA      -15.6060   -0.9320    2.0360 h1        1 S2N      0.012033
     76 HBFB      -15.6770   -0.6970    0.2330 h1        1 S2N      0.012033
     77 HBG       -10.3550    1.9930   -3.0670 hc        1 S2N      0.034700
     78 HBGA       -8.9960    1.2740   -2.0980 hc        1 S2N      0.034700
     79 HBGB       -9.2860    0.7280   -3.8000 hc        1 S2N      0.034700
     80 HBH       -11.1790   -0.7880   -4.3390 hc        1 S2N      0.034700
     81 HBHA      -12.3800   -1.2260   -3.0400 hc        1 S2N      0.034700
     82 HBHB      -12.3350    0.4610   -3.7110 hc        1 S2N      0.034700
     83 HOBI      -11.2000   -2.3160   -0.9330 ho        1 S2N      0.486000
@<TRIPOS>BOND
     1    1    2 1   
     2    1   19 2   
     3    1   22 1   
     4    2    3 1   
     5    2   38 1   
     6    2   39 1   
     7    3    4 1   
     8    3   20 1   
     9    3   40 1   
    10    4    5 1   
    11    4   41 1   
    12    4   42 1   
    13    5    6 1   
    14    5   43 1   
    15    5   44 1   
    16    6    7 1   
    17    6   45 1   
    18    6   46 1   
    19    7    8 1   
    20    7   47 1   
    21    7   48 1   
    22    8    9 1   
    23    8   49 1   
    24    8   50 1   
    25    9   10 1   
    26    9   51 1   
    27    9   52 1   
    28   10   11 1   
    29   10   53 1   
    30   10   54 1   
    31   11   12 1   
    32   11   55 1   
    33   11   56 1   
    34   12   57 1   
    35   12   58 1   
    36   12   59 1   
    37   13   14 1   
    38   13   22 1   
    39   13   60 1   
    40   13   61 1   
    41   14   18 1   
    42   14   62 1   
    43   14   63 1   
    44   15   16 1   
    45   15   18 1   
    46   15   21 2   
    47   16   17 1   
    48   16   64 1   
    49   16   65 1   
    50   17   25 1   
    51   17   66 1   
    52   17   67 1   
    53   18   68 1   
    54   20   69 1   
    55   23   24 1   
    56   23   25 1   
    57   23   26 2   
    58   24   27 1   
    59   24   34 1   
    60   24   70 1   
    61   25   71 1   
    62   27   28 1   
    63   27   30 1   
    64   27   31 1   
    65   28   32 1   
    66   28   72 1   
    67   28   73 1   
    68   29   33 1   
    69   29   74 1   
    70   29   75 1   
    71   29   76 1   
    72   30   77 1   
    73   30   78 1   
    74   30   79 1   
    75   31   80 1   
    76   31   81 1   
    77   31   82 1   
    78   32   37 1   
    79   33   37 1   
    80   34   83 1   
    81   35   37 1   
    82   36   37 1   
@<TRIPOS>SUBSTRUCTURE
     1 S2N         1 TEMP              0 ****  ****    0 ROOT
