@<TRIPOS>MOLECULE
S2P
   18    18     1     0     0
SMALL
bcc


@<TRIPOS>ATOM
      1 CD2        -1.7180    0.8420   -0.1740 cc        1 S2P      0.487300
      2 CG         -0.8810   -0.3900   -0.4180 cc        1 S2P      0.257300
      3 ND1        -1.5770   -1.4970   -0.2640 nd        1 S2P     -0.473100
      4 CB          0.5490   -0.2990   -0.8240 c3        1 S2P     -0.108700
      5 CA          1.4790    0.0780    0.3360 c3        1 S2P      0.008500
      6 OD2        -1.2500    2.1100   -0.3010 oh        1 S2P     -0.619300
      7 C           2.9520   -0.2720   -0.1000 c         1 S2P      0.901600
      8 OXT         3.1620   -1.4430   -0.5090 o         1 S2P     -0.824300
      9 NE2        -2.9830    0.5900    0.1410 nd        1 S2P     -0.536100
     10 N           1.3060    1.4660    0.7460 n3        1 S2P     -0.929800
     11 SE1        -3.1380   -1.0710    0.1330 ss        1 S2P      0.246200
     12 HB          0.9140   -1.2890   -1.2190 hc        1 S2P      0.082700
     13 HBA         0.6240    0.4570   -1.6500 hc        1 S2P      0.082700
     14 HA          1.2420   -0.6030    1.2030 h1        1 S2P      0.047700
     15 HOD2       -0.2800    2.0710   -0.0890 ho        1 S2P      0.490000
     16 H           1.3840    1.5310    1.7420 hn        1 S2P      0.354300
     17 H2          2.0600    2.0080    0.3510 hn        1 S2P      0.354300
     18 O           3.8230    0.6350    0.0070 o         1 S2P     -0.824300
@<TRIPOS>BOND
     1    1    2 1   
     2    1    6 1   
     3    1    9 2   
     4    2    3 2   
     5    2    4 1   
     6    3   11 1   
     7    4    5 1   
     8    4   12 1   
     9    4   13 1   
    10    5    7 1   
    11    5   10 1   
    12    5   14 1   
    13    6   15 1   
    14    7    8 1   
    15    7   18 1   
    16    9   11 1   
    17   10   16 1   
    18   10   17 1   
@<TRIPOS>SUBSTRUCTURE
     1 S2P         1 TEMP              0 ****  ****    0 ROOT
