@<TRIPOS>MOLECULE
S2T
   23    23     1     0     0
SMALL
bcc


@<TRIPOS>ATOM
      1 C10        -0.1070   -0.0880    0.1610 c         1 S2T      0.691100
      2 C01         5.1030   -2.1230    2.2540 ca        1 S2T     -0.141000
      3 C02         5.7580   -2.1070    1.0270 ca        1 S2T     -0.148000
      4 C03         5.1670   -1.4760   -0.0680 ca        1 S2T     -0.145000
      5 C04         3.9260   -0.8630    0.0690 ca        1 S2T     -0.097000
      6 C05         3.2450   -0.8680    1.2970 ca        1 S2T     -0.001300
      7 C06         3.8480   -1.5130    2.3860 ca        1 S2T      0.031400
      8 C07         1.9280   -0.1720    1.3970 c3        1 S2T      0.046400
      9 O08         1.1760   -0.5710    0.2260 os        1 S2T     -0.461900
     10 C09         2.0470    1.3910    1.3630 c         1 S2T      0.916600
     11 O11        -0.8070   -0.1140    1.1770 o         1 S2T     -0.573000
     12 C12        -0.5210    0.3030   -1.2160 c3        1 S2T     -0.154100
     13 CL          3.0950   -1.5930    3.9150 cl        1 S2T     -0.112400
     14 O14         2.8660    1.9550    2.1250 o         1 S2T     -0.813300
     15 O15         1.2580    1.9640    0.5580 o         1 S2T     -0.813300
     16 H3          5.6850   -1.4570   -1.0370 ha        1 S2T      0.116000
     17 H4          3.4530   -0.3510   -0.7850 ha        1 S2T      0.155000
     18 H5          1.3540   -0.4730    2.3130 h1        1 S2T      0.075700
     19 H6         -0.1540    1.3500   -1.3750 hc        1 S2T      0.062367
     20 H7         -1.6310    0.2700   -1.3080 hc        1 S2T      0.062367
     21 H8         -0.0540   -0.3690   -1.9740 hc        1 S2T      0.062367
     22 H1          5.5690   -2.6130    3.1200 ha        1 S2T      0.125000
     23 H2          6.7420   -2.5850    0.9250 ha        1 S2T      0.113000
@<TRIPOS>BOND
     1    1    9 1   
     2    1   11 2   
     3    1   12 1   
     4    2    3 ar  
     5    2    7 ar  
     6    2   22 1   
     7    3    4 ar  
     8    3   23 1   
     9    4    5 ar  
    10    4   16 1   
    11    5    6 ar  
    12    5   17 1   
    13    6    7 ar  
    14    6    8 1   
    15    7   13 1   
    16    8    9 1   
    17    8   10 1   
    18    8   18 1   
    19   10   14 1   
    20   10   15 1   
    21   12   19 1   
    22   12   20 1   
    23   12   21 1   
@<TRIPOS>SUBSTRUCTURE
     1 S2T         1 TEMP              0 ****  ****    0 ROOT
