@<TRIPOS>MOLECULE
S2T
   23    23     1     0     0
SMALL
bcc


@<TRIPOS>ATOM
      1 C10        -0.1340   -0.0860    0.4820 c         1 S2T      0.688100
      2 C01         4.6670   -2.5850    1.9620 ca        1 S2T     -0.155000
      3 C02         5.7400   -2.1750    1.1770 ca        1 S2T     -0.141000
      4 C03         5.6380   -1.0110    0.4160 ca        1 S2T     -0.153000
      5 C04         4.4640   -0.2630    0.4340 ca        1 S2T     -0.078000
      6 C05         3.3660   -0.6580    1.2120 ca        1 S2T     -0.020300
      7 C06         3.4890   -1.8290    1.9790 ca        1 S2T      0.027400
      8 C07         2.1150    0.1650    1.2240 c3        1 S2T      0.056400
      9 O08         1.1480   -0.5730    0.4420 os        1 S2T     -0.448900
     10 C09         2.2190    1.5880    0.5930 c         1 S2T      0.909600
     11 O11        -0.6000    0.2960    1.5590 o         1 S2T     -0.574000
     12 C12        -0.8420   -0.1980   -0.8250 c3        1 S2T     -0.153100
     13 Cl          2.2160   -2.3800    2.9750 cl        1 S2T     -0.116400
     14 O14         3.2120    2.3120    0.8650 o         1 S2T     -0.822800
     15 O15         1.2500    1.9230   -0.1460 o         1 S2T     -0.822800
     16 H3          6.4870   -0.6790   -0.1980 ha        1 S2T      0.120000
     17 H4          4.3890    0.6770   -0.1450 ha        1 S2T      0.186000
     18 H5          1.7320    0.2760    2.2760 h1        1 S2T      0.071700
     19 H6         -0.5260   -1.1190   -1.3680 hc        1 S2T      0.062700
     20 H7         -1.9450   -0.2060   -0.6650 hc        1 S2T      0.062700
     21 H8         -0.5480    0.7020   -1.4250 hc        1 S2T      0.062700
     22 H1          4.7440   -3.5000    2.5670 ha        1 S2T      0.125000
     23 H2          6.6650   -2.7680    1.1630 ha        1 S2T      0.113000
@<TRIPOS>BOND
     1    1    9 1   
     2    1   11 2   
     3    1   12 1   
     4    2    3 ar  
     5    2    7 ar  
     6    2   22 1   
     7    3    4 ar  
     8    3   23 1   
     9    4    5 ar  
    10    4   16 1   
    11    5    6 ar  
    12    5   17 1   
    13    6    7 ar  
    14    6    8 1   
    15    7   13 1   
    16    8    9 1   
    17    8   10 1   
    18    8   18 1   
    19   10   14 1   
    20   10   15 1   
    21   12   19 1   
    22   12   20 1   
    23   12   21 1   
@<TRIPOS>SUBSTRUCTURE
     1 S2T         1 TEMP              0 ****  ****    0 ROOT
