@<TRIPOS>MOLECULE
S30
   56    60     1     0     0
SMALL
bcc


@<TRIPOS>ATOM
      1 CAT         0.0200   -0.3800    0.1610 c3        1 S30     -0.064800
      2 CAL         1.4850   -0.1660    0.1080 ca        1 S30     -0.045300
      3 CAM         2.2330   -0.1820    1.2920 ca        1 S30     -0.125000
      4 CAE         3.6150   -0.0200    1.2710 ca        1 S30     -0.104000
      5 CAD         4.2770    0.1590    0.0570 ca        1 S30     -0.130000
      6 CAC         3.5600    0.1800   -1.1350 ca        1 S30     -0.125000
      7 CAK         2.1570    0.0290   -1.1210 ca        1 S30     -0.008400
      8 NAJ         1.4390    0.0430   -2.3570 n         1 S30     -0.316500
      9 CAI         1.0250   -1.1740   -2.9700 c         1 S30      0.717100
     10 OAB         1.2380   -2.2420   -2.3780 o         1 S30     -0.580500
     11 CAH         0.3600   -1.0530   -4.2850 ca        1 S30     -0.181600
     12 CAG        -0.0660   -2.1970   -4.9890 ca        1 S30      0.013700
     13 CAA         0.1340   -3.5610   -4.4500 c3        1 S30     -0.070800
     14 CAF        -0.6910   -2.0340   -6.2280 ca        1 S30     -0.148000
     15 CAN        -0.8970   -0.7640   -6.7660 ca        1 S30     -0.084000
     16 CAO        -0.4830    0.3720   -6.0860 ca        1 S30     -0.135000
     17 CAP         0.1550    0.2440   -4.8320 ca        1 S30      0.179400
     18 NAQ         0.5680    1.3990   -4.1540 nc        1 S30     -0.647100
     19 CAR         1.1670    1.2650   -2.9890 cd        1 S30      0.468900
     20 CAS         1.6240    2.5200   -2.2270 c3        1 S30      0.013000
     21 NAV         1.2110    3.7820   -2.8260 na        1 S30      0.044200
     22 NAU        -0.0240    4.2970   -2.6570 nc        1 S30     -0.388100
     23 C6          1.8260    4.3090   -3.9900 ca        1 S30      0.490800
     24 N1          3.0370    4.0660   -4.5590 nb        1 S30     -0.619000
     25 C2          3.2920    4.8240   -5.6530 ca        1 S30      0.690900
     26 N3          2.5050    5.7830   -6.2340 nb        1 S30     -0.697000
     27 C4          1.3050    6.0190   -5.6480 ca        1 S30      0.558200
     28 NBE         0.4240    7.0470   -6.2440 n4        1 S30     -0.829300
     29 C5          0.8910    5.3140   -4.5120 ca        1 S30     -0.413500
     30 CAZ        -0.2490    5.2400   -3.6030 cd        1 S30      0.423800
     31 CBD        -1.3450    6.0820   -3.7890 ch        1 S30     -0.127200
     32 CBF        -2.1850    6.8750   -4.1070 c1        1 S30     -0.079100
     33 CBG        -3.0660    7.8800   -4.6410 c3        1 S30      0.199500
     34 OBH        -2.3640    8.4280   -5.7680 oh        1 S30     -0.663800
     35 HAT1       -0.2520   -1.2910   -0.4320 hc        1 S30      0.056367
     36 HAT2       -0.5240    0.4980   -0.2690 hc        1 S30      0.056367
     37 HAT3       -0.3300   -0.5280    1.2120 hc        1 S30      0.056367
     38 HAM         1.7150   -0.3390    2.2520 ha        1 S30      0.148000
     39 HAE         4.1860   -0.0430    2.2120 ha        1 S30      0.147000
     40 HAD         5.3720    0.2710    0.0360 ha        1 S30      0.146000
     41 HAC         4.0970    0.2980   -2.0890 ha        1 S30      0.142000
     42 HAA1       -0.3910   -3.6700   -3.4660 hc        1 S30      0.066033
     43 HAA2        1.2230   -3.7520   -4.2690 hc        1 S30      0.066033
     44 HAA3       -0.2560   -4.3380   -5.1530 hc        1 S30      0.066033
     45 HAF        -1.0280   -2.9220   -6.7860 ha        1 S30      0.150000
     46 HAN        -1.3940   -0.6620   -7.7440 ha        1 S30      0.143000
     47 HAO        -0.6520    1.3690   -6.5190 ha        1 S30      0.139000
     48 HAS1        2.7530    2.5240   -2.1890 h1        1 S30      0.122200
     49 HAS2        1.2090    2.4770   -1.1750 h1        1 S30      0.122200
     50 H2          4.2710    4.6480   -6.1590 h5        1 S30      0.100100
     51 HBE1       -0.4020    7.2060   -5.6390 hn        1 S30      0.481467
     52 HBE2        0.1050    6.7300   -7.1680 hn        1 S30      0.481467
     53 HBG1       -4.0390    7.4280   -4.9810 h1        1 S30      0.084700
     54 HBG2       -3.2660    8.6890   -3.8830 h1        1 S30      0.084700
     55 HBH        -2.9290    9.1200   -6.1330 ho        1 S30      0.443000
     56 HBE3        0.9370    7.9300   -6.3570 hn        1 S30      0.481467
@<TRIPOS>BOND
     1    1    2 1   
     2    1   35 1   
     3    1   36 1   
     4    1   37 1   
     5    2    3 ar  
     6    2    7 ar  
     7    3    4 ar  
     8    3   38 1   
     9    4    5 ar  
    10    4   39 1   
    11    5    6 ar  
    12    5   40 1   
    13    6    7 ar  
    14    6   41 1   
    15    7    8 1   
    16    8    9 1   
    17    8   19 1   
    18    9   10 2   
    19    9   11 1   
    20   11   12 ar  
    21   11   17 ar  
    22   12   13 1   
    23   12   14 ar  
    24   13   42 1   
    25   13   43 1   
    26   13   44 1   
    27   14   15 ar  
    28   14   45 1   
    29   15   16 ar  
    30   15   46 1   
    31   16   17 ar  
    32   16   47 1   
    33   17   18 1   
    34   18   19 2   
    35   19   20 1   
    36   20   21 1   
    37   20   48 1   
    38   20   49 1   
    39   21   22 1   
    40   21   23 1   
    41   22   30 2   
    42   23   24 ar  
    43   23   29 ar  
    44   24   25 ar  
    45   25   26 ar  
    46   25   50 1   
    47   26   27 ar  
    48   27   28 1   
    49   27   29 ar  
    50   28   51 1   
    51   28   52 1   
    52   28   56 1   
    53   29   30 1   
    54   30   31 1   
    55   31   32 3   
    56   32   33 1   
    57   33   34 1   
    58   33   53 1   
    59   33   54 1   
    60   34   55 1   
@<TRIPOS>SUBSTRUCTURE
     1 S30         1 TEMP              0 ****  ****    0 ROOT
