@<TRIPOS>MOLECULE
S30
   55    59     1     0     0
SMALL
bcc


@<TRIPOS>ATOM
      1 CAT         0.1120   -0.2920    0.2170 c3        1 S30     -0.063800
      2 CAL         1.5750   -0.0900    0.1010 ca        1 S30     -0.047300
      3 CAM         2.3710   -0.0930    1.2520 ca        1 S30     -0.130000
      4 CAE         3.7510    0.0710    1.1730 ca        1 S30     -0.113000
      5 CAD         4.3610    0.2380   -0.0700 ca        1 S30     -0.132000
      6 CAC         3.5940    0.2450   -1.2310 ca        1 S30     -0.118000
      7 CAK         2.1940    0.0890   -1.1590 ca        1 S30      0.013600
      8 NAJ         1.4240    0.0970   -2.3620 n         1 S30     -0.324500
      9 CAI         0.9860   -1.1230   -2.9400 c         1 S30      0.717100
     10 OAB         1.2230   -2.1900   -2.3480 o         1 S30     -0.610500
     11 CAH         0.2640   -1.0200   -4.2260 ca        1 S30     -0.187600
     12 CAG        -0.1890   -2.1700   -4.9020 ca        1 S30      0.003700
     13 CAA         0.0350   -3.5300   -4.3580 c3        1 S30     -0.063800
     14 CAF        -0.8640   -2.0210   -6.1140 ca        1 S30     -0.160000
     15 CAN        -1.0920   -0.7540   -6.6570 ca        1 S30     -0.090000
     16 CAO        -0.6530    0.3870   -6.0060 ca        1 S30     -0.128000
     17 CAP         0.0350    0.2710   -4.7750 ca        1 S30      0.188400
     18 NAQ         0.4700    1.4330   -4.1280 nc        1 S30     -0.614100
     19 CAR         1.1230    1.3210   -2.9920 cd        1 S30      0.472900
     20 CAS         1.6070    2.5840   -2.2550 c3        1 S30      0.023000
     21 NAV         1.2630    3.8480   -2.8670 na        1 S30      0.014200
     22 NAU        -0.0060    4.3270   -2.8680 nc        1 S30     -0.479100
     23 C6          2.0090    4.4030   -3.9450 ca        1 S30      0.491800
     24 N1          3.2950    4.1770   -4.3370 nb        1 S30     -0.742000
     25 C2          3.6710    4.9700   -5.3730 ca        1 S30      0.700900
     26 N3          2.9750    5.9210   -6.0440 nb        1 S30     -0.793000
     27 C4          1.6750    6.1550   -5.6400 ca        1 S30      0.770200
     28 NBE         0.9160    7.1140   -6.2520 nv        1 S30     -0.961500
     29 C5          1.1410    5.3860   -4.5630 ca        1 S30     -0.495500
     30 CAZ        -0.1120    5.2790   -3.8290 cd        1 S30      0.450800
     31 CBD        -1.2510    6.0530   -4.0800 ch        1 S30     -0.102200
     32 CBF        -2.2170    6.7210   -4.3130 c1        1 S30     -0.151100
     33 CBG        -3.3760    7.5360   -4.5770 c3        1 S30      0.206500
     34 OBH        -3.6720    7.6440   -5.9580 oh        1 S30     -0.590800
     35 HAT1       -0.4400    0.5930   -0.1870 hc        1 S30      0.054033
     36 HAT2       -0.1940   -1.1980   -0.3690 hc        1 S30      0.054033
     37 HAT3       -0.1940   -0.4410    1.2810 hc        1 S30      0.054033
     38 HAM         1.8930   -0.2350    2.2340 ha        1 S30      0.139000
     39 HAE         4.3590    0.0630    2.0890 ha        1 S30      0.137000
     40 HAD         5.4520    0.3590   -0.1380 ha        1 S30      0.140000
     41 HAC         4.0900    0.3670   -2.2080 ha        1 S30      0.146000
     42 HAA1        1.1310   -3.7150   -4.2210 hc        1 S30      0.058700
     43 HAA2       -0.4470   -3.6270   -3.3520 hc        1 S30      0.058700
     44 HAA3       -0.3820   -4.3130   -5.0360 hc        1 S30      0.058700
     45 HAF        -1.2220   -2.9130   -6.6510 ha        1 S30      0.139000
     46 HAN        -1.6270   -0.6630   -7.6160 ha        1 S30      0.136000
     47 HAO        -0.8350    1.3830   -6.4390 ha        1 S30      0.153000
     48 HAS1        2.7340    2.5390   -2.1890 h1        1 S30      0.105200
     49 HAS2        1.1640    2.5620   -1.2150 h1        1 S30      0.105200
     50 H2          4.7120    4.8140   -5.7330 h5        1 S30      0.054100
     51 HBE1        1.2710    7.6360   -7.0140 hn        1 S30      0.450800
     52 HBE2       -0.0260    7.2310   -5.9690 hn        1 S30      0.450800
     53 HBG1       -3.1930    8.5990   -4.2470 h1        1 S30      0.071200
     54 HBG2       -4.2630    7.1200   -4.0200 h1        1 S30      0.071200
     55 HBH        -3.8610    6.7560   -6.2870 ho        1 S30      0.407000
@<TRIPOS>BOND
     1    1    2 1   
     2    1   35 1   
     3    1   36 1   
     4    1   37 1   
     5    2    3 ar  
     6    2    7 ar  
     7    3    4 ar  
     8    3   38 1   
     9    4    5 ar  
    10    4   39 1   
    11    5    6 ar  
    12    5   40 1   
    13    6    7 ar  
    14    6   41 1   
    15    7    8 1   
    16    8    9 1   
    17    8   19 1   
    18    9   10 2   
    19    9   11 1   
    20   11   12 ar  
    21   11   17 ar  
    22   12   13 1   
    23   12   14 ar  
    24   13   42 1   
    25   13   43 1   
    26   13   44 1   
    27   14   15 ar  
    28   14   45 1   
    29   15   16 ar  
    30   15   46 1   
    31   16   17 ar  
    32   16   47 1   
    33   17   18 1   
    34   18   19 2   
    35   19   20 1   
    36   20   21 1   
    37   20   48 1   
    38   20   49 1   
    39   21   22 1   
    40   21   23 1   
    41   22   30 2   
    42   23   24 ar  
    43   23   29 ar  
    44   24   25 ar  
    45   25   26 ar  
    46   25   50 1   
    47   26   27 ar  
    48   27   28 1   
    49   27   29 ar  
    50   28   51 1   
    51   28   52 1   
    52   29   30 1   
    53   30   31 1   
    54   31   32 3   
    55   32   33 1   
    56   33   34 1   
    57   33   53 1   
    58   33   54 1   
    59   34   55 1   
@<TRIPOS>SUBSTRUCTURE
     1 S30         1 TEMP              0 ****  ****    0 ROOT
