@<TRIPOS>MOLECULE
S30
   55    59     1     0     0
SMALL
bcc


@<TRIPOS>ATOM
      1 CAT         0.0580   -0.3770    0.1930 c3        1 S30     -0.062800
      2 CAL         1.5170   -0.1420    0.0940 ca        1 S30     -0.047300
      3 CAM         2.3010   -0.1320    1.2540 ca        1 S30     -0.130000
      4 CAE         3.6770    0.0620    1.1900 ca        1 S30     -0.114000
      5 CAD         4.2970    0.2470   -0.0460 ca        1 S30     -0.132000
      6 CAC         3.5430    0.2410   -1.2150 ca        1 S30     -0.118000
      7 CAK         2.1460    0.0550   -1.1580 ca        1 S30      0.014600
      8 NAJ         1.3890    0.0500   -2.3700 n         1 S30     -0.324500
      9 CAI         0.9840   -1.1770   -2.9560 c         1 S30      0.717100
     10 OAB         1.2370   -2.2410   -2.3640 o         1 S30     -0.611500
     11 CAH         0.2720   -1.0860   -4.2480 ca        1 S30     -0.188600
     12 CAG        -0.1490   -2.2440   -4.9330 ca        1 S30      0.002700
     13 CAA         0.0990   -3.5990   -4.3900 c3        1 S30     -0.063800
     14 CAF        -0.8150   -2.1050   -6.1510 ca        1 S30     -0.161000
     15 CAN        -1.0650   -0.8420   -6.6930 ca        1 S30     -0.091000
     16 CAO        -0.6570    0.3070   -6.0340 ca        1 S30     -0.127000
     17 CAP         0.0210    0.2020   -4.7960 ca        1 S30      0.188400
     18 NAQ         0.4260    1.3710   -4.1420 nc        1 S30     -0.613100
     19 CAR         1.0690    1.2700   -2.9990 cd        1 S30      0.472900
     20 CAS         1.5170    2.5400   -2.2550 c3        1 S30      0.023000
     21 NAV         1.1540    3.7990   -2.8660 na        1 S30      0.013200
     22 NAU        -0.1270    4.2460   -2.8850 nc        1 S30     -0.484100
     23 C6          1.8970    4.3640   -3.9420 ca        1 S30      0.492800
     24 N1          3.1930    4.1690   -4.3190 nb        1 S30     -0.745000
     25 C2          3.5590    4.9650   -5.3570 ca        1 S30      0.700900
     26 N3          2.8460    5.8940   -6.0420 nb        1 S30     -0.795000
     27 C4          1.5350    6.0970   -5.6530 ca        1 S30      0.771200
     28 NBE         0.7580    7.0310   -6.2790 nh        1 S30     -0.959500
     29 C5          1.0130    5.3210   -4.5760 ca        1 S30     -0.497500
     30 CAZ        -0.2450    5.1870   -3.8540 cd        1 S30      0.457800
     31 CBD        -1.3910    5.9390   -4.1370 ch        1 S30     -0.100200
     32 CBF        -2.3490    6.6000   -4.4140 c1        1 S30     -0.107100
     33 CBG        -3.4970    7.3980   -4.7520 c3        1 S30      0.212500
     34 OBH        -3.1480    8.2470   -5.8440 oh        1 S30     -0.599800
     35 HAT1       -0.5090    0.4980   -0.2140 hc        1 S30      0.054033
     36 HAT2       -0.2220   -1.2860   -0.3990 hc        1 S30      0.054033
     37 HAT3       -0.2560   -0.5350    1.2540 hc        1 S30      0.054033
     38 HAM         1.8160   -0.2870    2.2300 ha        1 S30      0.138000
     39 HAE         4.2760    0.0650    2.1120 ha        1 S30      0.137000
     40 HAD         5.3860    0.3930   -0.1020 ha        1 S30      0.139000
     41 HAC         4.0460    0.3780   -2.1860 ha        1 S30      0.147000
     42 HAA1       -0.3910   -3.7100   -3.3890 hc        1 S30      0.058700
     43 HAA2       -0.2940   -4.3900   -5.0750 hc        1 S30      0.058700
     44 HAA3        1.1980   -3.7620   -4.2430 hc        1 S30      0.058700
     45 HAF        -1.1480   -3.0030   -6.6940 ha        1 S30      0.138000
     46 HAN        -1.5920   -0.7590   -7.6560 ha        1 S30      0.136000
     47 HAO        -0.8560    1.3000   -6.4650 ha        1 S30      0.154000
     48 HAS1        1.0630    2.5070   -1.2200 h1        1 S30      0.105200
     49 HAS2        2.6440    2.5190   -2.1750 h1        1 S30      0.105200
     50 H2          4.6070    4.8330   -5.7060 h5        1 S30      0.053100
     51 HBE1        1.1100    7.5620   -7.0360 hn        1 S30      0.453300
     52 HBE2       -0.1890    7.1350   -6.0020 hn        1 S30      0.453300
     53 HBG1       -4.3560    6.7300   -5.0490 h1        1 S30      0.050200
     54 HBG2       -3.8040    8.0240   -3.8670 h1        1 S30      0.050200
     55 HBH        -3.9370    8.7680   -6.0380 ho        1 S30      0.409000
@<TRIPOS>BOND
     1    1    2 1   
     2    1   35 1   
     3    1   36 1   
     4    1   37 1   
     5    2    3 ar  
     6    2    7 ar  
     7    3    4 ar  
     8    3   38 1   
     9    4    5 ar  
    10    4   39 1   
    11    5    6 ar  
    12    5   40 1   
    13    6    7 ar  
    14    6   41 1   
    15    7    8 1   
    16    8    9 1   
    17    8   19 1   
    18    9   10 2   
    19    9   11 1   
    20   11   12 ar  
    21   11   17 ar  
    22   12   13 1   
    23   12   14 ar  
    24   13   42 1   
    25   13   43 1   
    26   13   44 1   
    27   14   15 ar  
    28   14   45 1   
    29   15   16 ar  
    30   15   46 1   
    31   16   17 ar  
    32   16   47 1   
    33   17   18 1   
    34   18   19 2   
    35   19   20 1   
    36   20   21 1   
    37   20   48 1   
    38   20   49 1   
    39   21   22 1   
    40   21   23 1   
    41   22   30 2   
    42   23   24 ar  
    43   23   29 ar  
    44   24   25 ar  
    45   25   26 ar  
    46   25   50 1   
    47   26   27 ar  
    48   27   28 1   
    49   27   29 ar  
    50   28   51 1   
    51   28   52 1   
    52   29   30 1   
    53   30   31 1   
    54   31   32 3   
    55   32   33 1   
    56   33   34 1   
    57   33   53 1   
    58   33   54 1   
    59   34   55 1   
@<TRIPOS>SUBSTRUCTURE
     1 S30         1 TEMP              0 ****  ****    0 ROOT
