@<TRIPOS>MOLECULE
S30
   55    59     1     0     0
SMALL
bcc


@<TRIPOS>ATOM
      1 CAT        -3.3710    1.4020   -2.7010 c3        1 S30     -0.062800
      2 CAL        -3.4940    2.1480   -1.4280 ca        1 S30     -0.047300
      3 CAM        -4.0850    3.4170   -1.4180 ca        1 S30     -0.130000
      4 CAE        -4.2350    4.1320   -0.2340 ca        1 S30     -0.114000
      5 CAD        -3.7960    3.5820    0.9700 ca        1 S30     -0.132000
      6 CAC        -3.2060    2.3230    0.9910 ca        1 S30     -0.118000
      7 CAK        -3.0400    1.5960   -0.2060 ca        1 S30      0.014600
      8 NAJ        -2.4340    0.3030   -0.1650 n         1 S30     -0.324500
      9 CAI        -3.2370   -0.8660   -0.2020 c         1 S30      0.717100
     10 OAB        -4.4660   -0.7490   -0.3400 o         1 S30     -0.611500
     11 CAH        -2.5270   -2.1570   -0.0740 ca        1 S30     -0.188600
     12 CAG        -3.2280   -3.3790   -0.0690 ca        1 S30      0.002700
     13 CAA        -4.7040   -3.4260   -0.1910 c3        1 S30     -0.063800
     14 CAF        -2.5120   -4.5700    0.0550 ca        1 S30     -0.161000
     15 CAN        -1.1210   -4.5610    0.1730 ca        1 S30     -0.091000
     16 CAO        -0.4140   -3.3700    0.1700 ca        1 S30     -0.127000
     17 CAP        -1.1100   -2.1430    0.0460 ca        1 S30      0.188400
     18 NAQ        -0.3830   -0.9470    0.0430 nc        1 S30     -0.613100
     19 CAR        -1.0330    0.1910   -0.0570 cd        1 S30      0.472900
     20 CAS        -0.2560    1.5210   -0.0720 c3        1 S30      0.023000
     21 NAV         1.1840    1.4180   -0.0080 na        1 S30      0.013200
     22 NAU         1.9190    0.9620   -1.0540 nc        1 S30     -0.484100
     23 C6          1.8790    1.2140    1.2180 ca        1 S30      0.492800
     24 N1          1.5050    1.4850    2.5010 nb        1 S30     -0.745000
     25 C2          2.4910    1.2220    3.3980 ca        1 S30      0.700900
     26 N3          3.7470    0.7510    3.2040 nb        1 S30     -0.795000
     27 C4          4.1290    0.4840    1.9020 ca        1 S30      0.771200
     28 NBE         5.3860    0.0260    1.6220 nh        1 S30     -0.959500
     29 C5          3.1870    0.7070    0.8550 ca        1 S30     -0.497500
     30 CAZ         3.1340    0.5740   -0.5950 cd        1 S30      0.457800
     31 CBD         4.2020    0.1160   -1.3760 ch        1 S30     -0.100200
     32 CBF         5.1380   -0.2840   -2.0060 c1        1 S30     -0.107100
     33 CBG         6.2660   -0.7650   -2.7560 c3        1 S30      0.212500
     34 OBH         7.3220   -1.0550   -1.8430 oh        1 S30     -0.599800
     35 HAT1       -2.2960    1.1890   -2.9300 hc        1 S30      0.054033
     36 HAT2       -3.9170    0.4260   -2.6240 hc        1 S30      0.054033
     37 HAT3       -3.8030    1.9820   -3.5540 hc        1 S30      0.054033
     38 HAM        -4.4400    3.8500   -2.3660 ha        1 S30      0.138000
     39 HAE        -4.7040    5.1270   -0.2470 ha        1 S30      0.137000
     40 HAD        -3.9200    4.1410    1.9100 ha        1 S30      0.139000
     41 HAC        -2.8730    1.8950    1.9510 ha        1 S30      0.147000
     42 HAA1       -5.0270   -2.9590   -1.1560 hc        1 S30      0.058700
     43 HAA2       -5.0810   -4.4770   -0.1540 hc        1 S30      0.058700
     44 HAA3       -5.1790   -2.8420    0.6380 hc        1 S30      0.058700
     45 HAF        -3.0510   -5.5300    0.0610 ha        1 S30      0.138000
     46 HAN        -0.5790   -5.5150    0.2710 ha        1 S30      0.136000
     47 HAO         0.6820   -3.3690    0.2640 ha        1 S30      0.154000
     48 HAS1       -0.5300    2.0640   -1.0240 h1        1 S30      0.105200
     49 HAS2       -0.5880    2.1280    0.8210 h1        1 S30      0.105200
     50 H2          2.2270    1.4200    4.4600 h5        1 S30      0.053100
     51 HBE1        6.0380   -0.1450    2.3460 hn        1 S30      0.453300
     52 HBE2        5.6230   -0.1890    0.6830 hn        1 S30      0.453300
     53 HBG1        5.9830   -1.7010   -3.3190 h1        1 S30      0.050200
     54 HBG2        6.6030    0.0210   -3.4900 h1        1 S30      0.050200
     55 HBH         8.0590   -1.3690   -2.3800 ho        1 S30      0.409000
@<TRIPOS>BOND
     1    1    2 1   
     2    1   35 1   
     3    1   36 1   
     4    1   37 1   
     5    2    3 ar  
     6    2    7 ar  
     7    3    4 ar  
     8    3   38 1   
     9    4    5 ar  
    10    4   39 1   
    11    5    6 ar  
    12    5   40 1   
    13    6    7 ar  
    14    6   41 1   
    15    7    8 1   
    16    8    9 1   
    17    8   19 1   
    18    9   10 2   
    19    9   11 1   
    20   11   12 ar  
    21   11   17 ar  
    22   12   13 1   
    23   12   14 ar  
    24   13   42 1   
    25   13   43 1   
    26   13   44 1   
    27   14   15 ar  
    28   14   45 1   
    29   15   16 ar  
    30   15   46 1   
    31   16   17 ar  
    32   16   47 1   
    33   17   18 1   
    34   18   19 2   
    35   19   20 1   
    36   20   21 1   
    37   20   48 1   
    38   20   49 1   
    39   21   22 1   
    40   21   23 1   
    41   22   30 2   
    42   23   24 ar  
    43   23   29 ar  
    44   24   25 ar  
    45   25   26 ar  
    46   25   50 1   
    47   26   27 ar  
    48   27   28 1   
    49   27   29 ar  
    50   28   51 1   
    51   28   52 1   
    52   29   30 1   
    53   30   31 1   
    54   31   32 3   
    55   32   33 1   
    56   33   34 1   
    57   33   53 1   
    58   33   54 1   
    59   34   55 1   
@<TRIPOS>SUBSTRUCTURE
     1 S30         1 TEMP              0 ****  ****    0 ROOT
