@<TRIPOS>MOLECULE
S33
   81    84     1     0     0
SMALL
bcc


@<TRIPOS>ATOM
      1 S26        -1.5330    2.9180    0.5360 sy        1 S33      1.540200
      2 CL4         0.2760    5.9180   -3.4800 cl        1 S33     -0.052400
      3 C1         -0.4160    4.0180   -0.0510 ca        1 S33     -0.434500
      4 C45         3.3180    7.3330   -0.6990 c3        1 S33      0.108700
      5 O44         2.2960    6.8240   -1.5550 os        1 S33     -0.302900
      6 C43         1.4310    5.9110   -1.0120 ca        1 S33      0.209100
      7 O5         -1.7660    3.1370    1.9060 o         1 S33     -0.666800
      8 O42        -2.6800    2.9330   -0.2860 o         1 S33     -0.666800
      9 C47         0.5860    4.5310    0.7820 ca        1 S33      0.033000
     10 C40        -0.4870    4.4760   -1.3750 ca        1 S33      0.018000
     11 C46         1.5020    5.4640    0.3180 ca        1 S33     -0.231000
     12 C41         0.4180    5.4100   -1.8680 ca        1 S33     -0.045600
     13 C8          0.2810   -0.3740    1.5410 c         1 S33      0.654100
     14 N3         -0.7420    1.5140    0.3260 n3        1 S33     -0.919100
     15 C31        -5.4680    0.4380    0.5910 c3        1 S33      0.131300
     16 C32        -6.3720   -0.1890   -0.4360 ca        1 S33     -0.096300
     17 C33        -6.4600   -1.5830   -0.5220 ca        1 S33     -0.121500
     18 C34        -7.3130   -2.1770   -1.4480 ca        1 S33     -0.095500
     19 C35        -8.0870   -1.3730   -2.2980 ca        1 S33     -0.017000
     20 C36        -7.9990    0.0240   -2.2140 ca        1 S33     -0.095500
     21 C37        -7.1410    0.6100   -1.2860 ca        1 S33     -0.121500
     22 C38        -8.9600   -1.9740   -3.2440 cg        1 S33      0.233800
     23 N39        -9.6750   -2.4670   -4.0190 n1        1 S33     -0.365800
     24 C6         -1.0250    0.3150    1.0630 c3        1 S33      0.193500
     25 C7         -1.8310   -0.7290    0.2600 c3        1 S33     -0.178400
     26 C28        -3.2920   -0.7110    0.6820 c         1 S33      0.646100
     27 O29        -3.7430   -1.6210    1.4110 o         1 S33     -0.621100
     28 N30        -4.0660    0.3550    0.2840 n         1 S33     -0.558900
     29 N10         0.2010   -1.2650    2.5870 n         1 S33     -0.454800
     30 C11         1.3770   -1.9160    3.1550 c3        1 S33      0.036700
     31 C15         1.8200   -3.1720    2.3650 c         1 S33      0.650100
     32 O16         1.8870   -4.2890    2.9160 o         1 S33     -0.621100
     33 C12         1.0120   -2.2930    4.6080 c3        1 S33     -0.087400
     34 C13        -0.5040   -2.1640    4.7110 c3        1 S33     -0.087400
     35 C14        -0.9500   -1.3750    3.4710 c3        1 S33      0.074000
     36 N17         2.1320   -3.0010    1.0350 n         1 S33     -0.554900
     37 C18         2.6670   -4.0660    0.2290 c3        1 S33      0.128300
     38 C19         4.1280   -3.9140   -0.1040 ca        1 S33     -0.106300
     39 C20         5.1330   -4.6110    0.5800 ca        1 S33     -0.060300
     40 C25         4.8350   -5.5050    1.7510 c3        1 S33      0.182100
     41 N27         4.6130   -6.8840    1.3720 n3        1 S33     -0.905800
     42 C21         6.4670   -4.4630    0.1790 ca        1 S33     -0.106000
     43 C22         6.8110   -3.6150   -0.8700 ca        1 S33     -0.121000
     44 C23         5.8050   -2.9040   -1.5320 ca        1 S33      0.015400
     45 CL2         6.2090   -1.8550   -2.8080 cl        1 S33     -0.096400
     46 C24         4.4700   -3.0520   -1.1540 ca        1 S33     -0.119000
     47 H45         2.8690    7.8770    0.1670 h1        1 S33      0.056367
     48 H45A        3.9840    6.5080   -0.3500 h1        1 S33      0.056367
     49 H45B        3.8750    8.0390   -1.3670 h1        1 S33      0.056367
     50 H47         0.6370    4.1950    1.8340 ha        1 S33      0.159000
     51 H40        -1.2920    4.0940   -2.0320 ha        1 S33      0.173000
     52 H46         2.2760    5.8500    0.9970 ha        1 S33      0.154000
     53 HN3         0.0370    1.4160   -0.2860 hn        1 S33      0.465800
     54 H31        -5.6500   -0.0740    1.5820 h1        1 S33      0.074700
     55 H31A       -5.7260    1.5320    0.7000 h1        1 S33      0.074700
     56 H33        -5.8460   -2.2050    0.1520 ha        1 S33      0.153000
     57 H34        -7.3820   -3.2730   -1.5120 ha        1 S33      0.146000
     58 H36        -8.6060    0.6550   -2.8810 ha        1 S33      0.146000
     59 H37        -7.0720    1.7070   -1.2240 ha        1 S33      0.153000
     60 H6         -1.6240    0.6170    1.9800 h1        1 S33      0.095700
     61 H7         -1.7390   -0.5550   -0.8430 hc        1 S33      0.090700
     62 H7A        -1.4440   -1.7630    0.4670 hc        1 S33      0.090700
     63 HN30       -3.7120    0.9990   -0.3900 hn        1 S33      0.340500
     64 H11         2.2500   -1.1980    3.1370 h1        1 S33      0.083700
     65 H12         1.3480   -3.3320    4.8500 hc        1 S33      0.075200
     66 H12A        1.5200   -1.5860    5.3100 hc        1 S33      0.075200
     67 H13        -0.9870   -3.1720    4.7190 hc        1 S33      0.063200
     68 H13A       -0.8040   -1.6280    5.6440 hc        1 S33      0.063200
     69 H14        -1.3050   -0.3510    3.7780 h1        1 S33      0.065700
     70 H14A       -1.7910   -1.8930    2.9280 h1        1 S33      0.065700
     71 HN17        2.2330   -2.0750    0.6780 hn        1 S33      0.336500
     72 H18         2.4860   -5.0490    0.7500 h1        1 S33      0.068200
     73 H18A        2.0860   -4.0800   -0.7410 h1        1 S33      0.068200
     74 H25         5.7260   -5.4980    2.4470 h1        1 S33      0.049700
     75 H25A        3.9670   -5.0630    2.3300 h1        1 S33      0.049700
     76 HN27        4.2610   -7.3960    2.1580 hn        1 S33      0.350300
     77 HN2A        3.9520   -6.9470    0.6220 hn        1 S33      0.350300
     78 H21         7.2540   -5.0310    0.7000 ha        1 S33      0.147000
     79 H22         7.8630   -3.5070   -1.1750 ha        1 S33      0.148000
     80 H24         3.6790   -2.4950   -1.6810 ha        1 S33      0.146000
     81 O9          1.3660   -0.1650    0.9540 o         1 S33     -0.633100
@<TRIPOS>BOND
     1    1    3 1   
     2    1    7 2   
     3    1    8 2   
     4    1   14 1   
     5    2   12 1   
     6    3    9 ar  
     7    3   10 ar  
     8    4    5 1   
     9    4   47 1   
    10    4   48 1   
    11    4   49 1   
    12    5    6 1   
    13    6   11 ar  
    14    6   12 ar  
    15    9   11 ar  
    16    9   50 1   
    17   10   12 ar  
    18   10   51 1   
    19   11   52 1   
    20   13   24 1   
    21   13   29 1   
    22   13   81 2   
    23   14   24 1   
    24   14   53 1   
    25   15   16 1   
    26   15   28 1   
    27   15   54 1   
    28   15   55 1   
    29   16   17 ar  
    30   16   21 ar  
    31   17   18 ar  
    32   17   56 1   
    33   18   19 ar  
    34   18   57 1   
    35   19   20 ar  
    36   19   22 1   
    37   20   21 ar  
    38   20   58 1   
    39   21   59 1   
    40   22   23 3   
    41   24   25 1   
    42   24   60 1   
    43   25   26 1   
    44   25   61 1   
    45   25   62 1   
    46   26   27 2   
    47   26   28 1   
    48   28   63 1   
    49   29   30 1   
    50   29   35 1   
    51   30   31 1   
    52   30   33 1   
    53   30   64 1   
    54   31   32 2   
    55   31   36 1   
    56   33   34 1   
    57   33   65 1   
    58   33   66 1   
    59   34   35 1   
    60   34   67 1   
    61   34   68 1   
    62   35   69 1   
    63   35   70 1   
    64   36   37 1   
    65   36   71 1   
    66   37   38 1   
    67   37   72 1   
    68   37   73 1   
    69   38   39 ar  
    70   38   46 ar  
    71   39   40 1   
    72   39   42 ar  
    73   40   41 1   
    74   40   74 1   
    75   40   75 1   
    76   41   76 1   
    77   41   77 1   
    78   42   43 ar  
    79   42   78 1   
    80   43   44 ar  
    81   43   79 1   
    82   44   45 1   
    83   44   46 ar  
    84   46   80 1   
@<TRIPOS>SUBSTRUCTURE
     1 S33         1 TEMP              0 ****  ****    0 ROOT
