@<TRIPOS>MOLECULE
S33
   81    84     1     0     0
SMALL
bcc


@<TRIPOS>ATOM
      1 S26         1.2940   -0.0910    3.0380 s6        1 S33      2.787000
      2 CL4         2.1140    4.4190    0.3670 cl        1 S33      0.041000
      3 C1          2.2730    0.8390    2.1030 ca        1 S33     -0.955000
      4 C45         6.0960    2.8660   -0.4810 c3        1 S33     -0.084000
      5 O44         4.7750    3.3080   -0.1600 os        1 S33     -0.179000
      6 C43         3.9990    2.4650    0.5810 ca        1 S33      0.183000
      7 O5          1.9910   -0.6780    4.0890 o         1 S33     -0.877500
      8 O42         0.0780    0.5360    3.3070 o         1 S33     -0.877500
      9 C47         3.5750    0.4120    1.7850 ca        1 S33      0.034000
     10 C40         1.8510    2.0980    1.6400 ca        1 S33      0.027000
     11 C46         4.4290    1.2050    1.0370 ca        1 S33     -0.232000
     12 C41         2.6870    2.9140    0.8900 ca        1 S33     -0.127000
     13 C8          2.1330   -3.2220    2.6770 c2        1 S33      0.329000
     14 N3          0.9070   -1.3370    1.7820 n4        1 S33     -0.368000
     15 C31        -1.9910   -4.9600   -0.3990 c3        1 S33     -0.003000
     16 C32        -3.4570   -5.2820   -0.3090 ca        1 S33     -0.081000
     17 C33        -4.3630   -4.2970    0.1010 ca        1 S33     -0.122500
     18 C34        -5.7250   -4.5760    0.1590 ca        1 S33     -0.095500
     19 C35        -6.1900   -5.8510   -0.1970 ca        1 S33     -0.016000
     20 C36        -5.2850   -6.8380   -0.6110 ca        1 S33     -0.095500
     21 C37        -3.9220   -6.5510   -0.6640 ca        1 S33     -0.122500
     22 C38        -7.5810   -6.1400   -0.1370 c1        1 S33     -0.093000
     23 N39        -8.7190   -6.3760   -0.0880 n1        1 S33     -0.045000
     24 C6          0.8700   -2.5980    2.4870 c2        1 S33     -0.534000
     25 C7         -0.4640   -3.2180    2.6770 c3        1 S33     -0.092000
     26 C28        -1.1470   -3.4130    1.3210 c2        1 S33      0.296000
     27 O29        -1.4640   -2.4010    0.6400 o         1 S33     -0.455000
     28 N30        -1.3670   -4.6810    0.8670 n         1 S33     -0.341000
     29 N10         2.2330   -4.3800    3.6370 n4        1 S33      0.087000
     30 C11         2.4520   -5.6550    2.9650 c2        1 S33     -0.499000
     31 C15         1.3640   -6.4730    2.6380 c2        1 S33      0.346000
     32 O16         0.1530   -6.2500    2.9280 o         1 S33     -0.494000
     33 C12         3.8980   -6.0080    2.9320 c3        1 S33     -0.060000
     34 C13         4.5620   -5.0860    3.9610 c3        1 S33     -0.162000
     35 C14         3.4410   -4.2080    4.5330 c3        1 S33     -0.095000
     36 N17         1.6520   -7.6840    1.9010 n         1 S33     -0.182000
     37 C18         0.7610   -8.6300    1.6850 c2        1 S33      0.079000
     38 C19         0.9360   -9.7350    0.6370 c3        1 S33      0.079000
     39 C20         2.3140   -9.7880    0.1060 c2        1 S33     -0.323000
     40 C25         3.3240  -10.5850    0.8600 c3        1 S33     -0.020000
     41 N27         3.4150  -10.2430    2.2670 n3        1 S33     -0.359000
     42 C21         2.6370   -9.1670   -1.0720 c2        1 S33     -0.007000
     43 C22         1.6690   -8.5370   -1.8760 c2        1 S33     -0.341000
     44 C23         0.3310   -8.6610   -1.5090 c2        1 S33      0.074000
     45 CL2        -0.8760   -8.0420   -2.5660 cl        1 S33     -0.085000
     46 C24        -0.0740   -9.2790   -0.3450 c2        1 S33     -0.406000
     47 H45         6.5050    3.7210   -1.0780 h1        1 S33      0.100667
     48 H45A        6.6930    2.7100    0.4500 h1        1 S33      0.100667
     49 H45B        6.0580    1.9340   -1.0950 h1        1 S33      0.100667
     50 H47         3.9220   -0.5810    2.1390 ha        1 S33      0.183000
     51 H40         0.8280    2.4460    1.8890 ha        1 S33      0.179000
     52 H46         5.4410    0.8420    0.8040 ha        1 S33      0.163000
     53 HN3         1.6060   -1.3790    1.0340 hn        1 S33      0.264500
     54 H31        -1.4440   -5.8310   -0.8690 h1        1 S33      0.120000
     55 H31A       -1.8690   -4.0590   -1.0710 h1        1 S33      0.120000
     56 H33        -3.9870   -3.2960    0.3710 ha        1 S33      0.154500
     57 H34        -6.4360   -3.8000    0.4820 ha        1 S33      0.144500
     58 H36        -5.6500   -7.8370   -0.8930 ha        1 S33      0.144500
     59 H37        -3.2120   -7.3280   -0.9920 ha        1 S33      0.154500
     60 H6         -0.0140   -1.1790    1.3360 hn        1 S33      0.264500
     61 H7         -0.3900   -4.1880    3.2340 hc        1 S33      0.124500
     62 H7A        -1.1350   -2.5410    3.2760 hc        1 S33      0.124500
     63 HN30       -1.1480   -5.4570    1.4570 hn        1 S33      0.264000
     64 H11         1.3720   -4.4230    4.1900 hn        1 S33      0.236000
     65 H12         4.0560   -7.0830    3.2030 hc        1 S33      0.092500
     66 H12A        4.3360   -5.8380    1.9140 hc        1 S33      0.092500
     67 H13         5.3380   -4.4460    3.4740 hc        1 S33      0.100500
     68 H13A        5.0440   -5.6710    4.7800 hc        1 S33      0.100500
     69 H14         3.1470   -4.5490    5.5610 hx        1 S33      0.124500
     70 H14A        3.7280   -3.1230    4.5630 hx        1 S33      0.124500
     71 HN17        2.5820   -7.7840    1.5220 hn        1 S33      0.279000
     72 H18         0.6430  -10.7010    1.1360 hc        1 S33      0.084000
     73 H18A       -0.2440   -8.5150    2.1450 h4        1 S33      0.170000
     74 H25         4.3470  -10.4180    0.4130 h1        1 S33      0.062500
     75 H25A        3.0790  -11.6830    0.7150 h1        1 S33      0.062500
     76 HN27        4.0670  -10.8520    2.7230 hn        1 S33      0.133500
     77 HN2A        2.5230  -10.3460    2.7110 hn        1 S33      0.133500
     78 H21         3.6800   -9.1750   -1.4290 ha        1 S33      0.110000
     79 H22         1.9650   -8.0180   -2.7930 ha        1 S33      0.131000
     80 H24        -1.1240   -9.4990   -0.1330 ha        1 S33      0.128000
     81 O9          3.2100   -2.7890    2.2050 o         1 S33     -0.407000
@<TRIPOS>BOND
     1    1    3 1   
     2    1    7 1   
     3    1    8 1   
     4    1   14 1   
     5    2   12 1   
     6    3    9 1   
     7    3   10 1   
     8    4    5 1   
     9    4   47 1   
    10    4   48 1   
    11    4   49 1   
    12    5    6 1   
    13    6   11 1   
    14    6   12 1   
    15    9   11 1   
    16    9   50 1   
    17   10   12 1   
    18   10   51 1   
    19   11   52 1   
    20   13   24 1   
    21   13   29 1   
    22   13   81 1   
    23   14   24 1   
    24   14   53 1   
    25   14   60 1   
    26   15   16 1   
    27   15   28 1   
    28   15   54 1   
    29   15   55 1   
    30   16   17 1   
    31   16   21 1   
    32   17   18 1   
    33   17   56 1   
    34   18   19 1   
    35   18   57 1   
    36   19   20 1   
    37   19   22 1   
    38   20   21 1   
    39   20   58 1   
    40   21   59 1   
    41   22   23 1   
    42   24   25 1   
    43   25   26 1   
    44   25   61 1   
    45   25   62 1   
    46   26   27 1   
    47   26   28 1   
    48   28   63 1   
    49   29   30 1   
    50   29   35 1   
    51   29   64 1   
    52   30   31 1   
    53   30   33 1   
    54   31   32 1   
    55   31   36 1   
    56   33   34 1   
    57   33   65 1   
    58   33   66 1   
    59   34   35 1   
    60   34   67 1   
    61   34   68 1   
    62   35   69 1   
    63   35   70 1   
    64   36   37 1   
    65   36   71 1   
    66   37   38 1   
    67   37   73 1   
    68   38   39 1   
    69   38   46 1   
    70   38   72 1   
    71   39   40 1   
    72   39   42 1   
    73   40   41 1   
    74   40   74 1   
    75   40   75 1   
    76   41   76 1   
    77   41   77 1   
    78   42   43 1   
    79   42   78 1   
    80   43   44 1   
    81   43   79 1   
    82   44   45 1   
    83   44   46 1   
    84   46   80 1   
@<TRIPOS>SUBSTRUCTURE
     1 S33         1 TEMP              0 ****  ****    0 ROOT
