@<TRIPOS>MOLECULE
S33
   81    76     1     0     0
SMALL
bcc


@<TRIPOS>ATOM
      1 S26        -0.0960    3.8020    0.6560 ss        1 S33      2.860000
      2 CL4        -2.8230    5.6060   -3.9280 cl        1 S33      0.012000
      3 C1         -0.4780    4.8860   -0.7220 c1        1 S33     -0.839000
      4 C45        -2.8980    8.6660   -2.4110 c3        1 S33     -0.073000
      5 O44        -1.7160    8.1600   -3.0140 os        1 S33     -0.225000
      6 C43        -1.1780    7.0250   -2.3590 c2        1 S33      0.122000
      7 O5          1.1860    4.1190    1.2320 o         1 S33     -0.934000
      8 O42        -0.9730    4.0480    1.7720 o         1 S33     -0.934000
      9 C47         0.1400    6.1210   -0.5550 c2        1 S33     -0.011000
     10 C40        -1.4450    4.7200   -1.7070 c1        1 S33      0.019000
     11 C46        -0.2110    7.1910   -1.3740 c2        1 S33     -0.165000
     12 C41        -1.7960    5.7900   -2.5260 c1        1 S33     -0.117000
     13 C8          1.1140    0.2990    0.8690 c1        1 S33      0.281000
     14 N3         -0.1640    2.2130    0.1740 n2        1 S33     -0.875000
     15 O9          1.7290    0.4200   -0.1760 o         1 S33     -0.400000
     16 C31        -5.0600    1.5200    1.4340 c3        1 S33      0.003000
     17 C32        -6.3360    0.7660    1.0440 c2        1 S33     -0.095000
     18 C33        -6.9730   -0.0480    1.9750 c2        1 S33     -0.119000
     19 C34        -8.1780   -0.6640    1.6520 c1        1 S33     -0.093000
     20 C35        -8.7460   -0.4660    0.3980 c1        1 S33     -0.009000
     21 C36        -8.1090    0.3480   -0.5330 c1        1 S33     -0.094000
     22 C37        -6.9040    0.9640   -0.2100 c1        1 S33     -0.125000
     23 C38       -10.0350   -1.1750    0.0280 c1        1 S33     -0.098000
     24 N39       -11.0050   -1.7100   -0.2500 n1        1 S33     -0.035000
     25 C6         -0.1030    1.1740    1.1410 c2        1 S33      0.052000
     26 C7         -1.3630    0.3310    1.0600 c3        1 S33     -0.199000
     27 C28        -2.5860    1.2020    1.3910 c2        1 S33      0.306000
     28 O29        -2.4410    2.2510    1.9940 o         1 S33     -0.393000
     29 N30        -3.9080    0.7470    1.0450 n         1 S33     -0.361000
     30 N10         1.6040   -0.6020    1.8990 n3        1 S33     -0.310000
     31 C11         2.9160   -1.5000    1.8320 c3        1 S33      0.008000
     32 C15         2.8410   -2.6630    0.8030 c2        1 S33      0.294000
     33 O16         1.7580   -3.0660    0.4180 o         1 S33     -0.370000
     34 C12         3.0400   -1.9020    3.1130 c3        1 S33     -0.164000
     35 C13         1.5710   -1.9060    3.7450 c3        1 S33     -0.165000
     36 C14         0.9570   -0.8740    3.2680 c3        1 S33     -0.042000
     37 N17         4.0560   -3.2790    0.3180 n         1 S33     -0.373000
     38 C18         4.0240   -4.1000   -0.8690 c3        1 S33      0.004000
     39 C19         5.4620   -4.4910   -1.2620 c2        1 S33     -0.081000
     40 C20         5.6970   -5.6800   -1.9510 c2        1 S33     -0.068000
     41 C25         4.5240   -6.5930   -2.3260 c3        1 S33     -0.046000
     42 N27         4.9060   -7.4410   -3.4190 n3        1 S33     -0.351000
     43 C21         6.9880   -6.0040   -2.3600 c1        1 S33     -0.104000
     44 C22         8.0430   -5.1420   -2.0800 c1        1 S33     -0.126000
     45 C23         7.8090   -3.9550   -1.3910 c1        1 S33     -0.062000
     46 CL2         9.1390   -2.8830   -1.0200 cl        1 S33     -0.043000
     47 C24         6.5180   -3.6300   -0.9830 c2        1 S33     -0.126000
     48 H45        -3.2440    9.5840   -2.3190 h1        1 S33      0.088333
     49 H45A       -3.0960    8.8640   -3.3540 h1        1 S33      0.088333
     50 H45B       -2.2280    9.0340   -1.7950 h1        1 S33      0.088333
     51 H47         0.8230    6.2390    0.1400 ha        1 S33      0.165000
     52 H40        -1.8570    3.8410   -1.8460 ha        1 S33      0.186000
     53 H46         0.2250    8.0630   -1.2560 ha        1 S33      0.159000
     54 HN3        -0.2010    2.0060   -0.7180 hn        1 S33      0.252000
     55 H31        -5.0470    1.6600    2.4070 h1        1 S33      0.115000
     56 H31A       -5.0410    2.3900    0.9770 h1        1 S33      0.115000
     57 H33        -6.5730   -0.1880    2.8600 ha        1 S33      0.162000
     58 H34        -8.6280   -1.2380    2.3090 ha        1 S33      0.148000
     59 H36        -8.5100    0.4880   -1.4180 ha        1 S33      0.146000
     60 H37        -6.4550    1.5380   -0.8670 ha        1 S33      0.139000
     61 H6         -0.0290    1.5680    2.0400 h4        1 S33      0.155000
     62 H7         -1.4560   -0.0330    0.1510 hc        1 S33      0.130500
     63 H7A        -1.3040   -0.4080    1.7040 hc        1 S33      0.130500
     64 HN30       -4.0170   -0.0400    0.5860 hn        1 S33      0.228000
     65 H11         3.7010   -0.9970    1.5170 h1        1 S33      0.120000
     66 H12         3.6170   -1.2760    3.6080 hc        1 S33      0.113000
     67 H12A        3.4230   -2.8090    3.1450 hc        1 S33      0.113000
     68 H13         1.6260   -1.8420    4.7280 hc        1 S33      0.100500
     69 H13A        1.0960   -2.7290    3.4880 hc        1 S33      0.100500
     70 H14         0.0000   -1.0680    3.1590 h1        1 S33      0.109500
     71 H14A        1.0810   -0.0980    3.8640 h1        1 S33      0.109500
     72 HN17        4.8370   -3.1840    0.7880 hn        1 S33      0.253000
     73 H18         3.5010   -4.9120   -0.6910 h1        1 S33      0.110500
     74 H18A        3.6090   -3.5960   -1.6050 h1        1 S33      0.110500
     75 H25         3.7540   -6.0450   -2.5900 h1        1 S33      0.080500
     76 H25A        4.2800   -7.1480   -1.5510 h1        1 S33      0.080500
     77 HN27        4.4410   -8.2320   -3.3710 hn        1 S33      0.151000
     78 HN2A        4.7160   -7.0220   -4.2120 hn        1 S33      0.151000
     79 H21         7.1540   -6.8410   -2.8450 ha        1 S33      0.156000
     80 H22         8.9530   -5.3710   -2.3670 ha        1 S33      0.148000
     81 H24         6.3530   -2.7940   -0.4980 ha        1 S33      0.159000
@<TRIPOS>BOND
     1    1    7 1   
     2    1    8 1   
     3    2   12 1   
     4    3    9 1   
     5    3   10 1   
     6    4    5 1   
     7    4   48 1   
     8    4   49 1   
     9    4   50 1   
    10    5    6 1   
    11    6   11 1   
    12    6   12 1   
    13    9   11 1   
    14    9   51 1   
    15   10   52 1   
    16   11   53 1   
    17   13   15 1   
    18   13   30 1   
    19   14   25 1   
    20   14   54 1   
    21   16   17 1   
    22   16   29 1   
    23   16   55 1   
    24   16   56 1   
    25   17   18 1   
    26   17   22 1   
    27   18   19 1   
    28   18   57 1   
    29   19   58 1   
    30   20   21 1   
    31   20   23 1   
    32   21   59 1   
    33   22   60 1   
    34   23   24 1   
    35   25   26 1   
    36   25   61 1   
    37   26   27 1   
    38   26   62 1   
    39   26   63 1   
    40   27   28 1   
    41   27   29 1   
    42   29   64 1   
    43   30   31 1   
    44   30   36 1   
    45   31   32 1   
    46   31   34 1   
    47   31   65 1   
    48   32   33 1   
    49   32   37 1   
    50   34   35 1   
    51   34   66 1   
    52   34   67 1   
    53   35   36 1   
    54   35   68 1   
    55   35   69 1   
    56   36   70 1   
    57   36   71 1   
    58   37   38 1   
    59   37   72 1   
    60   38   39 1   
    61   38   73 1   
    62   38   74 1   
    63   39   40 1   
    64   39   47 1   
    65   40   41 1   
    66   40   43 1   
    67   41   42 1   
    68   41   75 1   
    69   41   76 1   
    70   42   77 1   
    71   42   78 1   
    72   43   79 1   
    73   44   45 1   
    74   44   80 1   
    75   45   47 1   
    76   47   81 1   
@<TRIPOS>SUBSTRUCTURE
     1 S33         1 TEMP              0 ****  ****    0 ROOT
