@<TRIPOS>MOLECULE
S35
   65    67     1     0     0
SMALL
bcc


@<TRIPOS>ATOM
      1 C35         0.4200    0.8900   -0.1070 c3        1 S35     -0.073800
      2 C30         1.7460    0.2270   -0.1220 ca        1 S35     -0.041300
      3 C31         2.5300    0.2390    1.0410 ca        1 S35     -0.134000
      4 C32         3.7870   -0.3570    1.0640 ca        1 S35     -0.115000
      5 C33         4.2850   -0.9750   -0.0830 ca        1 S35     -0.135000
      6 C34         3.5150   -0.9980   -1.2430 ca        1 S35     -0.122000
      7 C29         2.2450   -0.4090   -1.2700 ca        1 S35     -0.126300
      8 C24         1.4400   -0.4590   -2.5500 c3        1 S35      0.135000
      9 C25         1.2650   -1.9340   -2.9630 c3        1 S35     -0.181400
     10 C26         0.1740   -2.1030   -3.9770 c         1 S35      0.630100
     11 O28        -0.9660   -2.5150   -3.7590 o         1 S35     -0.492000
     12 O27         0.4150   -1.8330   -5.2930 oh        1 S35     -0.578100
     13 N23         2.0370    0.3240   -3.6180 ns        1 S35     -0.552900
     14 C21         1.6010    1.6230   -3.8640 c         1 S35      0.598600
     15 O22         0.5640    2.0800   -3.3460 o         1 S35     -0.588100
     16 C10         2.3730    2.4380   -4.8320 cc        1 S35      0.252800
     17 N9          3.5490    2.0810   -5.4310 nd        1 S35     -0.464800
     18 C11         1.9560    3.7520   -5.2680 cc        1 S35     -0.224300
     19 C12         2.9570    4.1520   -6.1610 cd        1 S35      0.062800
     20 O13         3.0480    5.2720   -6.9380 os        1 S35     -0.323900
     21 C14         3.5940    6.4120   -6.2300 c3        1 S35      0.087400
     22 C15         3.5630    7.5520   -7.2530 c3        1 S35      0.148100
     23 C17         3.9740    8.9040   -6.6340 c3        1 S35     -0.045000
     24 C19         5.3720    8.8220   -6.0420 c3        1 S35     -0.089767
     25 C20         3.9560    9.9540   -7.7390 c3        1 S35     -0.089767
     26 C18         2.9750    9.2990   -5.5570 c3        1 S35     -0.089767
     27 O16         4.4670    7.2710   -8.3130 oh        1 S35     -0.596800
     28 N8          3.9230    3.1040   -6.2060 na        1 S35      0.162300
     29 C6          5.0500    3.0570   -7.0760 ca        1 S35     -0.031200
     30 C5          4.9330    3.5240   -8.4010 ca        1 S35     -0.101000
     31 C4          6.0260    3.4890   -9.2590 ca        1 S35     -0.134000
     32 C3          7.2510    2.9820   -8.8260 ca        1 S35     -0.096000
     33 C2          7.3940    2.5140   -7.5260 ca        1 S35     -0.162000
     34 C1          6.3040    2.5490   -6.6350 ca        1 S35      0.145900
     35 F7          6.4790    2.1000   -5.3720 f         1 S35     -0.120900
     36 H351        0.3330    1.6190   -0.9550 hc        1 S35      0.057700
     37 H352        0.2590    1.4450    0.8490 hc        1 S35      0.057700
     38 H353       -0.3960    0.1310   -0.2100 hc        1 S35      0.057700
     39 H31         2.1430    0.7310    1.9470 ha        1 S35      0.136000
     40 H32         4.3880   -0.3380    1.9850 ha        1 S35      0.134000
     41 H33         5.2800   -1.4420   -0.0720 ha        1 S35      0.134000
     42 H34         3.9110   -1.4860   -2.1460 ha        1 S35      0.125000
     43 H24         0.4030   -0.0380   -2.3610 h1        1 S35      0.112700
     44 H251        2.2210   -2.3590   -3.3670 hc        1 S35      0.083700
     45 H252        0.9860   -2.5170   -2.0440 hc        1 S35      0.083700
     46 H23         2.9890    0.1120   -3.8150 hn        1 S35      0.313500
     47 H11         1.0580    4.2820   -4.9660 ha        1 S35      0.197000
     48 H141        4.6410    6.1780   -5.9120 h1        1 S35      0.062200
     49 H142        2.9490    6.6360   -5.3430 h1        1 S35      0.062200
     50 H15         2.5190    7.6400   -7.6710 h1        1 S35      0.050700
     51 H16         4.2060    6.4140   -8.6750 ho        1 S35      0.409000
     52 H191        6.0850    8.4270   -6.8060 hc        1 S35      0.040700
     53 H192        5.7110    9.8360   -5.7200 hc        1 S35      0.040700
     54 H193        5.3850    8.1470   -5.1530 hc        1 S35      0.040700
     55 H201        4.2640   10.9460   -7.3300 hc        1 S35      0.040700
     56 H202        4.6610    9.6620   -8.5540 hc        1 S35      0.040700
     57 H203        2.9300   10.0460   -8.1670 hc        1 S35      0.040700
     58 H181        1.9310    9.2300   -5.9460 hc        1 S35      0.040700
     59 H182        3.1660   10.3520   -5.2370 hc        1 S35      0.040700
     60 H183        3.0700    8.6410   -4.6610 hc        1 S35      0.040700
     61 H5          3.9690    3.9300   -8.7530 ha        1 S35      0.161000
     62 H4          5.9170    3.8610  -10.2900 ha        1 S35      0.148000
     63 H3          8.1100    2.9520   -9.5140 ha        1 S35      0.146000
     64 H2          8.3560    2.1140   -7.1710 ha        1 S35      0.157000
     65 H232        1.2920   -1.4410   -5.3980 ho        1 S35      0.432000
@<TRIPOS>BOND
     1    1    2 1   
     2    1   36 1   
     3    1   37 1   
     4    1   38 1   
     5    2    3 ar  
     6    2    7 ar  
     7    3    4 ar  
     8    3   39 1   
     9    4    5 ar  
    10    4   40 1   
    11    5    6 ar  
    12    5   41 1   
    13    6    7 ar  
    14    6   42 1   
    15    7    8 1   
    16    8    9 1   
    17    8   13 1   
    18    8   43 1   
    19    9   10 1   
    20    9   44 1   
    21    9   45 1   
    22   10   11 2   
    23   10   12 1   
    24   12   65 1   
    25   13   14 1   
    26   13   46 1   
    27   14   15 2   
    28   14   16 1   
    29   16   17 2   
    30   16   18 1   
    31   17   28 1   
    32   18   19 2   
    33   18   47 1   
    34   19   20 1   
    35   19   28 1   
    36   20   21 1   
    37   21   22 1   
    38   21   48 1   
    39   21   49 1   
    40   22   23 1   
    41   22   27 1   
    42   22   50 1   
    43   23   24 1   
    44   23   25 1   
    45   23   26 1   
    46   24   52 1   
    47   24   53 1   
    48   24   54 1   
    49   25   55 1   
    50   25   56 1   
    51   25   57 1   
    52   26   58 1   
    53   26   59 1   
    54   26   60 1   
    55   27   51 1   
    56   28   29 1   
    57   29   30 ar  
    58   29   34 ar  
    59   30   31 ar  
    60   30   61 1   
    61   31   32 ar  
    62   31   62 1   
    63   32   33 ar  
    64   32   63 1   
    65   33   34 ar  
    66   33   64 1   
    67   34   35 1   
@<TRIPOS>SUBSTRUCTURE
     1 S35         1 TEMP              0 ****  ****    0 ROOT
