@<TRIPOS>MOLECULE
S35
   65    67     1     0     0
SMALL
bcc


@<TRIPOS>ATOM
      1 C35         0.9390    0.5610    0.3920 c3        1 S35     -0.062800
      2 C30         2.1060   -0.2650    0.0010 ca        1 S35     -0.053300
      3 C31         3.0160   -0.6630    0.9910 ca        1 S35     -0.131000
      4 C32         4.1290   -1.4360    0.6720 ca        1 S35     -0.116000
      5 C33         4.3480   -1.8260   -0.6490 ca        1 S35     -0.131000
      6 C34         3.4500   -1.4410   -1.6410 ca        1 S35     -0.119000
      7 C29         2.3280   -0.6630   -1.3270 ca        1 S35     -0.115300
      8 C24         1.3770   -0.2660   -2.4360 c3        1 S35      0.143000
      9 C25         0.6970   -1.5450   -2.9580 c3        1 S35     -0.189400
     10 C26        -0.2120   -1.3610   -4.1340 c         1 S35      0.632100
     11 O28        -0.3680   -2.1890   -5.0350 o         1 S35     -0.505000
     12 O27        -1.0080   -0.2640   -4.2680 oh        1 S35     -0.581100
     13 N23         2.0400    0.4830   -3.4820 n         1 S35     -0.555900
     14 C21         1.5940    1.7340   -3.8600 c         1 S35      0.609600
     15 O22         0.4930    2.1730   -3.4570 o         1 S35     -0.627100
     16 C10         2.4210    2.5270   -4.7960 cc        1 S35      0.254800
     17 N9          3.6930    2.2270   -5.1990 nd        1 S35     -0.458800
     18 C11         1.9660    3.7550   -5.4100 cc        1 S35     -0.221300
     19 C12         3.0460    4.1630   -6.2020 cd        1 S35      0.061800
     20 O13         3.1550    5.2130   -7.0690 os        1 S35     -0.322900
     21 C14         3.5150    6.4550   -6.4160 c3        1 S35      0.087400
     22 C15         3.5400    7.4910   -7.5440 c3        1 S35      0.148100
     23 C17         3.7610    8.9240   -7.0180 c3        1 S35     -0.045000
     24 C19         5.0660    9.0170   -6.2440 c3        1 S35     -0.089767
     25 C20         3.8170    9.8640   -8.2150 c3        1 S35     -0.089767
     26 C18         2.5980    9.3260   -6.1250 c3        1 S35     -0.089767
     27 O16         4.5980    7.1950   -8.4460 oh        1 S35     -0.596800
     28 N8          4.0880    3.2070   -6.0170 na        1 S35      0.163300
     29 C6          5.3250    3.1860   -6.7250 ca        1 S35     -0.031200
     30 C5          5.3520    3.5130   -8.0960 ca        1 S35     -0.100000
     31 C4          6.5510    3.5000   -8.7990 ca        1 S35     -0.135000
     32 C3          7.7430    3.1550   -8.1600 ca        1 S35     -0.095000
     33 C2          7.7440    2.8290   -6.8100 ca        1 S35     -0.162000
     34 C1          6.5420    2.8440   -6.0740 ca        1 S35      0.147900
     35 F7          6.5790    2.5370   -4.7590 f         1 S35     -0.119900
     36 H351       -0.0170    0.0320    0.1470 hc        1 S35      0.051033
     37 H352        0.9450    0.7730    1.4900 hc        1 S35      0.051033
     38 H353        0.9510    1.5410   -0.1490 hc        1 S35      0.051033
     39 H31         2.8470   -0.3570    2.0350 ha        1 S35      0.136000
     40 H32         4.8350   -1.7370    1.4600 ha        1 S35      0.135000
     41 H33         5.2260   -2.4360   -0.9080 ha        1 S35      0.137000
     42 H34         3.6260   -1.7590   -2.6800 ha        1 S35      0.133000
     43 H24         0.5650    0.4000   -2.0040 h1        1 S35      0.089700
     44 H251        1.4740   -2.3060   -3.2410 hc        1 S35      0.088700
     45 H252        0.0880   -1.9770   -2.1180 hc        1 S35      0.088700
     46 H23        -0.7820    0.4150   -3.6130 ho        1 S35      0.447000
     47 H11         0.9970    4.2260   -5.2800 ha        1 S35      0.197000
     48 H141        2.7430    6.7020   -5.6460 h1        1 S35      0.062200
     49 H142        4.5240    6.3420   -5.9450 h1        1 S35      0.062200
     50 H15         2.5590    7.4490   -8.1000 h1        1 S35      0.050700
     51 H16         4.4540    6.2890   -8.7480 ho        1 S35      0.409000
     52 H191        5.9040    8.6180   -6.8650 hc        1 S35      0.040700
     53 H192        5.0070    8.4290   -5.2970 hc        1 S35      0.040700
     54 H193        5.2820   10.0820   -5.9860 hc        1 S35      0.040700
     55 H201        4.6470    9.5620   -8.8990 hc        1 S35      0.040700
     56 H202        2.8550    9.8270   -8.7810 hc        1 S35      0.040700
     57 H203        3.9920   10.9120   -7.8730 hc        1 S35      0.040700
     58 H181        2.6640   10.4160   -5.8900 hc        1 S35      0.040700
     59 H182        2.6160    8.7620   -5.1620 hc        1 S35      0.040700
     60 H183        1.6240    9.1330   -6.6360 hc        1 S35      0.040700
     61 H5          4.4150    3.7890   -8.6100 ha        1 S35      0.161000
     62 H4          6.5560    3.7610   -9.8680 ha        1 S35      0.147000
     63 H3          8.6870    3.1410   -8.7250 ha        1 S35      0.146000
     64 H2          8.6770    2.5570   -6.2940 ha        1 S35      0.157000
     65 H232        2.9490    0.1800   -3.7460 hn        1 S35      0.332500
@<TRIPOS>BOND
     1    1    2 1   
     2    1   36 1   
     3    1   37 1   
     4    1   38 1   
     5    2    3 ar  
     6    2    7 ar  
     7    3    4 ar  
     8    3   39 1   
     9    4    5 ar  
    10    4   40 1   
    11    5    6 ar  
    12    5   41 1   
    13    6    7 ar  
    14    6   42 1   
    15    7    8 1   
    16    8    9 1   
    17    8   13 1   
    18    8   43 1   
    19    9   10 1   
    20    9   44 1   
    21    9   45 1   
    22   10   11 2   
    23   10   12 1   
    24   12   46 1   
    25   13   14 1   
    26   13   65 1   
    27   14   15 2   
    28   14   16 1   
    29   16   17 2   
    30   16   18 1   
    31   17   28 1   
    32   18   19 2   
    33   18   47 1   
    34   19   20 1   
    35   19   28 1   
    36   20   21 1   
    37   21   22 1   
    38   21   48 1   
    39   21   49 1   
    40   22   23 1   
    41   22   27 1   
    42   22   50 1   
    43   23   24 1   
    44   23   25 1   
    45   23   26 1   
    46   24   52 1   
    47   24   53 1   
    48   24   54 1   
    49   25   55 1   
    50   25   56 1   
    51   25   57 1   
    52   26   58 1   
    53   26   59 1   
    54   26   60 1   
    55   27   51 1   
    56   28   29 1   
    57   29   30 ar  
    58   29   34 ar  
    59   30   31 ar  
    60   30   61 1   
    61   31   32 ar  
    62   31   62 1   
    63   32   33 ar  
    64   32   63 1   
    65   33   34 ar  
    66   33   64 1   
    67   34   35 1   
@<TRIPOS>SUBSTRUCTURE
     1 S35         1 TEMP              0 ****  ****    0 ROOT
