@<TRIPOS>MOLECULE
S35
   64    59     1     0     0
SMALL
bcc


@<TRIPOS>ATOM
      1 C35        -3.5340   -3.2900    4.5530 c3        1 S35     -0.192000
      2 C30        -2.5400   -4.3200    4.0350 c2        1 S35     -0.048000
      3 C31        -2.1260   -5.3760    4.8640 c2        1 S35     -0.146000
      4 C32        -1.1970   -6.3180    4.3930 c1        1 S35     -0.142000
      5 C33        -0.6820   -6.2030    3.0950 c1        1 S35     -0.135500
      6 C34        -1.0940   -5.1520    2.2720 c1        1 S35     -0.135500
      7 C29        -2.0300   -4.2060    2.7510 c1        1 S35     -0.055000
      8 C24        -2.4720   -3.0860    1.8750 c3        1 S35      0.057000
      9 C25        -3.6150   -3.5710    0.9720 c3        1 S35     -0.241000
     10 C26        -4.3000   -2.3550    0.3090 c2        1 S35      0.328000
     11 O28        -5.0580   -1.5980    0.9980 o         1 S35     -0.582000
     12 O27        -4.1450   -2.1380   -0.9230 o         1 S35     -0.582000
     13 N23        -1.3740   -2.6450    1.0660 n         1 S35     -0.326000
     14 C21        -0.7660   -1.3020    1.3040 c2        1 S35      0.371000
     15 O22        -0.9280   -0.7380    2.3790 o         1 S35     -0.375000
     16 C10         0.1160   -0.6490    0.2140 c2        1 S35     -0.137000
     17 N9          0.9760   -1.3040   -0.6210 n2        1 S35     -0.033000
     18 C11         0.1670    0.6810   -0.0870 c1        1 S35     -0.194000
     19 C12         1.0680    0.8470   -1.1210 c1        1 S35      0.041000
     20 O13         1.3780    2.0970   -1.7970 o         1 S35     -0.209000
     21 C14         0.9090    3.2510   -1.1180 c3        1 S35     -0.065000
     22 C15         1.5140    4.4780   -1.7390 c3        1 S35      0.041000
     23 C17         0.8680    5.7560   -1.1000 c3        1 S35     -0.049000
     24 C19         1.1430    5.7680    0.4070 c3        1 S35     -0.206333
     25 C20         1.4660    7.0010   -1.7290 c3        1 S35     -0.206333
     26 C18        -0.6060    5.7350   -1.3330 c3        1 S35     -0.206333
     27 O16         2.8890    4.4880   -1.5120 oh        1 S35     -0.334000
     28 N8          1.5620   -0.3780   -1.4450 n2        1 S35     -0.115000
     29 C6          2.4810   -0.6620   -2.5120 c1        1 S35      0.054000
     30 C5          3.8310   -0.7280   -2.2550 c2        1 S35     -0.095000
     31 C4          4.7330   -1.0140   -3.2980 c1        1 S35     -0.144000
     32 C3          4.2650   -1.2260   -4.5720 c1        1 S35     -0.135500
     33 C2          2.8840   -1.1590   -4.8360 c1        1 S35     -0.135500
     34 C1          2.0010   -0.8810   -3.8180 c1        1 S35      0.100000
     35 F7          0.6760   -0.8970   -4.0550 f         1 S35     -0.097000
     36 H351       -3.7210   -3.4650    5.5170 hc        1 S35      0.091000
     37 H352       -3.1470   -2.3690    4.4490 hc        1 S35      0.091000
     38 H353       -4.3640   -3.3530    4.0430 hc        1 S35      0.091000
     39 H31        -2.4760   -5.4530    5.7480 ha        1 S35      0.116000
     40 H32        -0.9100   -7.0500    4.9680 ha        1 S35      0.112000
     41 H33        -0.0860   -6.9090    2.7340 ha        1 S35      0.132500
     42 H34        -0.7330   -5.0700    1.3570 ha        1 S35      0.132500
     43 H24        -2.7910   -2.3280    2.4410 h1        1 S35      0.110000
     44 H251       -4.2950   -4.0790    1.5310 hc        1 S35      0.082500
     45 H252       -3.2480   -4.1740    0.2660 hc        1 S35      0.082500
     46 H23        -0.9910   -3.2240    0.4490 hn        1 S35      0.258000
     47 H11        -0.3800    1.3640    0.2970 DU        1 S35      0.250000
     48 H141       -0.0680    3.2950   -1.1890 h1        1 S35      0.112500
     49 H142        1.1640    3.2030   -0.1800 h1        1 S35      0.112500
     50 H15         1.3400    4.4730   -2.7150 h1        1 S35      0.079000
     51 H16         3.3340    4.2630   -2.2920 ho        1 S35      0.220000
     52 H191        0.7320    6.5980    0.8200 hc        1 S35      0.077556
     53 H192        0.7460    4.9630    0.8220 hc        1 S35      0.077556
     54 H193        2.1090    5.7710    0.5620 hc        1 S35      0.077556
     55 H201        2.4460    6.9620   -1.6590 hc        1 S35      0.077556
     56 H202        1.1220    7.8270   -1.2400 hc        1 S35      0.077556
     57 H203        1.2120    7.0480   -2.6540 hc        1 S35      0.077556
     58 H181       -1.0320    5.2050   -0.6430 hc        1 S35      0.077556
     59 H182       -0.7930    5.3390   -2.2130 hc        1 S35      0.077556
     60 H183       -0.9500    6.6370   -1.3060 hc        1 S35      0.077556
     61 H5          4.1640   -0.5740   -1.3510 ha        1 S35      0.164000
     62 H4          5.7170   -1.0630   -3.1110 ha        1 S35      0.135000
     63 H3          4.8960   -1.4240   -5.3010 ha        1 S35      0.132500
     64 H2          2.5440   -1.3150   -5.7640 ha        1 S35      0.132500
@<TRIPOS>BOND
     1    1    2 1   
     2    1   36 1   
     3    1   37 1   
     4    1   38 1   
     5    2    3 1   
     6    2    7 1   
     7    3    4 1   
     8    3   39 1   
     9    4   40 1   
    10    5    6 1   
    11    5   41 1   
    12    6   42 1   
    13    7    8 1   
    14    8    9 1   
    15    8   13 1   
    16    8   43 1   
    17    9   10 1   
    18    9   44 1   
    19    9   45 1   
    20   10   11 1   
    21   10   12 1   
    22   13   14 1   
    23   13   46 1   
    24   14   15 1   
    25   14   16 1   
    26   16   17 1   
    27   16   18 1   
    28   17   28 1   
    29   18   19 1   
    30   19   28 1   
    31   20   21 1   
    32   21   22 1   
    33   21   48 1   
    34   21   49 1   
    35   22   23 1   
    36   22   27 1   
    37   22   50 1   
    38   23   24 1   
    39   23   25 1   
    40   23   26 1   
    41   24   52 1   
    42   24   53 1   
    43   24   54 1   
    44   25   55 1   
    45   25   56 1   
    46   25   57 1   
    47   26   58 1   
    48   26   59 1   
    49   26   60 1   
    50   27   51 1   
    51   29   30 1   
    52   29   34 1   
    53   30   31 1   
    54   30   61 1   
    55   31   62 1   
    56   32   33 1   
    57   32   63 1   
    58   33   64 1   
    59   34   35 1   
@<TRIPOS>SUBSTRUCTURE
     1 S35         1 TEMP              0 ****  ****    0 ROOT
