@<TRIPOS>MOLECULE
S35
   65    67     1     0     0
SMALL
bcc


@<TRIPOS>ATOM
      1 C35         0.3860    0.8750   -0.1370 c3        1 S35     -0.073800
      2 C30         1.7140    0.2170   -0.1410 ca        1 S35     -0.041300
      3 C31         2.4870    0.2300    1.0290 ca        1 S35     -0.134000
      4 C32         3.7460   -0.3610    1.0630 ca        1 S35     -0.115000
      5 C33         4.2570   -0.9760   -0.0800 ca        1 S35     -0.135000
      6 C34         3.4980   -1.0000   -1.2470 ca        1 S35     -0.122000
      7 C29         2.2260   -0.4160   -1.2860 ca        1 S35     -0.126300
      8 C24         1.4330   -0.4670   -2.5730 c3        1 S35      0.135000
      9 C25         1.2670   -1.9430   -2.9890 c3        1 S35     -0.181400
     10 C26         0.1860   -2.1150   -4.0120 c         1 S35      0.630100
     11 O28        -0.9540   -2.5310   -3.8050 o         1 S35     -0.492000
     12 O27         0.4370   -1.8420   -5.3260 oh        1 S35     -0.578100
     13 N23         2.0360    0.3190   -3.6340 n         1 S35     -0.552900
     14 C21         1.5980    1.6160   -3.8830 c         1 S35      0.598600
     15 O22         0.5540    2.0690   -3.3740 o         1 S35     -0.588100
     16 C10         2.3760    2.4350   -4.8420 cc        1 S35      0.252800
     17 N9          3.5580    2.0830   -5.4320 nd        1 S35     -0.464800
     18 C11         1.9580    3.7490   -5.2790 cc        1 S35     -0.224300
     19 C12         2.9660    4.1540   -6.1630 cd        1 S35      0.061800
     20 O13         3.0590    5.2750   -6.9380 os        1 S35     -0.323900
     21 C14         3.6050    6.4130   -6.2260 c3        1 S35      0.087400
     22 C15         3.5610    7.5600   -7.2410 c3        1 S35      0.148100
     23 C17         3.9770    8.9080   -6.6180 c3        1 S35     -0.045000
     24 C19         5.3820    8.8260   -6.0470 c3        1 S35     -0.089767
     25 C20         3.9390    9.9670   -7.7140 c3        1 S35     -0.089767
     26 C18         2.9920    9.2920   -5.5240 c3        1 S35     -0.089767
     27 O16         4.4520    7.2880   -8.3140 oh        1 S35     -0.596800
     28 N8          3.9350    3.1080   -6.2030 na        1 S35      0.162300
     29 C6          5.0710    3.0660   -7.0630 ca        1 S35     -0.031200
     30 C5          4.9640    3.5340   -8.3870 ca        1 S35     -0.101000
     31 C4          6.0640    3.5030   -9.2370 ca        1 S35     -0.134000
     32 C3          7.2870    2.9990   -8.7930 ca        1 S35     -0.096000
     33 C2          7.4190    2.5310   -7.4920 ca        1 S35     -0.162000
     34 C1          6.3210    2.5610   -6.6100 ca        1 S35      0.145900
     35 F7          6.4870    2.1120   -5.3470 f         1 S35     -0.120900
     36 H351       -0.4260    0.1130   -0.2490 hc        1 S35      0.057700
     37 H352        0.2140    1.4280    0.8180 hc        1 S35      0.057700
     38 H353        0.3040    1.6050   -0.9850 hc        1 S35      0.057700
     39 H31         2.0900    0.7200    1.9320 ha        1 S35      0.136000
     40 H32         4.3390   -0.3410    1.9890 ha        1 S35      0.134000
     41 H33         5.2540   -1.4400   -0.0610 ha        1 S35      0.134000
     42 H34         3.9030   -1.4860   -2.1470 ha        1 S35      0.125000
     43 H24         0.3920   -0.0510   -2.3930 h1        1 S35      0.112700
     44 H251        0.9820   -2.5270   -2.0730 hc        1 S35      0.083700
     45 H252        2.2280   -2.3640   -3.3840 hc        1 S35      0.083700
     46 H23         1.3140   -1.4470   -5.4230 ho        1 S35      0.432000
     47 H11         1.0570    4.2760   -4.9840 ha        1 S35      0.197000
     48 H141        4.6560    6.1810   -5.9200 h1        1 S35      0.062200
     49 H142        2.9680    6.6280   -5.3330 h1        1 S35      0.062200
     50 H15         2.5120    7.6480   -7.6460 h1        1 S35      0.050700
     51 H16         4.1860    6.4350   -8.6810 ho        1 S35      0.409000
     52 H191        5.7230    9.8390   -5.7220 hc        1 S35      0.040700
     53 H192        6.0850    8.4400   -6.8240 hc        1 S35      0.040700
     54 H193        5.4110    8.1450   -5.1630 hc        1 S35      0.040700
     55 H201        2.9060   10.0600   -8.1260 hc        1 S35      0.040700
     56 H202        4.2510   10.9570   -7.3030 hc        1 S35      0.040700
     57 H203        4.6320    9.6830   -8.5420 hc        1 S35      0.040700
     58 H181        3.1030    8.6270   -4.6330 hc        1 S35      0.040700
     59 H182        3.1830   10.3430   -5.1990 hc        1 S35      0.040700
     60 H183        1.9420    9.2220   -5.8970 hc        1 S35      0.040700
     61 H5          4.0020    3.9380   -8.7480 ha        1 S35      0.161000
     62 H4          5.9630    3.8770  -10.2670 ha        1 S35      0.148000
     63 H3          8.1520    2.9730   -9.4730 ha        1 S35      0.146000
     64 H2          8.3790    2.1340   -7.1290 ha        1 S35      0.157000
     65 H232        2.9910    0.1100   -3.8230 hn        1 S35      0.313500
@<TRIPOS>BOND
     1    1    2 1   
     2    1   36 1   
     3    1   37 1   
     4    1   38 1   
     5    2    3 ar  
     6    2    7 ar  
     7    3    4 ar  
     8    3   39 1   
     9    4    5 ar  
    10    4   40 1   
    11    5    6 ar  
    12    5   41 1   
    13    6    7 ar  
    14    6   42 1   
    15    7    8 1   
    16    8    9 1   
    17    8   13 1   
    18    8   43 1   
    19    9   10 1   
    20    9   44 1   
    21    9   45 1   
    22   10   11 2   
    23   10   12 1   
    24   12   46 1   
    25   13   14 1   
    26   13   65 1   
    27   14   15 2   
    28   14   16 1   
    29   16   17 2   
    30   16   18 1   
    31   17   28 1   
    32   18   19 2   
    33   18   47 1   
    34   19   20 1   
    35   19   28 1   
    36   20   21 1   
    37   21   22 1   
    38   21   48 1   
    39   21   49 1   
    40   22   23 1   
    41   22   27 1   
    42   22   50 1   
    43   23   24 1   
    44   23   25 1   
    45   23   26 1   
    46   24   52 1   
    47   24   53 1   
    48   24   54 1   
    49   25   55 1   
    50   25   56 1   
    51   25   57 1   
    52   26   58 1   
    53   26   59 1   
    54   26   60 1   
    55   27   51 1   
    56   28   29 1   
    57   29   30 ar  
    58   29   34 ar  
    59   30   31 ar  
    60   30   61 1   
    61   31   32 ar  
    62   31   62 1   
    63   32   33 ar  
    64   32   63 1   
    65   33   34 ar  
    66   33   64 1   
    67   34   35 1   
@<TRIPOS>SUBSTRUCTURE
     1 S35         1 TEMP              0 ****  ****    0 ROOT
