@<TRIPOS>MOLECULE
S35
   64    66     1     0     0
SMALL
bcc


@<TRIPOS>ATOM
      1 C35         5.2800    2.9940   -0.1160 c3        1 S35     -0.065800
      2 C30         5.5390    1.7760   -0.9210 ca        1 S35     -0.055300
      3 C31         6.3400    1.8730   -2.0660 ca        1 S35     -0.147000
      4 C32         6.5760    0.7610   -2.8700 ca        1 S35     -0.143000
      5 C33         6.0050   -0.4660   -2.5380 ca        1 S35     -0.151000
      6 C34         5.2130   -0.5750   -1.3980 ca        1 S35     -0.106000
      7 C29         4.9820    0.5330   -0.5740 ca        1 S35     -0.065300
      8 C24         4.1480    0.3560    0.6810 c3        1 S35      0.145000
      9 C25         4.8620   -0.6320    1.6160 c3        1 S35     -0.213400
     10 C26         4.0160   -0.9920    2.8520 c         1 S35      0.906600
     11 O28         2.9730   -1.6920    2.6680 o         1 S35     -0.841300
     12 O27         4.4110   -0.5950    3.9800 o         1 S35     -0.841300
     13 N23         2.7890   -0.0620    0.3640 n         1 S35     -0.507900
     14 C21         1.8070    0.8750    0.1640 c         1 S35      0.588600
     15 O22         2.0190    2.0980    0.0030 o         1 S35     -0.640100
     16 C10         0.4030    0.3690    0.0950 cc        1 S35      0.297800
     17 N9         -0.0270   -0.6700   -0.6680 nd        1 S35     -0.447800
     18 C11        -0.6970    0.9600    0.8330 cc        1 S35     -0.240300
     19 C12        -1.8080    0.2000    0.4590 cd        1 S35      0.045800
     20 O13        -3.1110    0.2720    0.8790 os        1 S35     -0.303900
     21 C14        -3.8200    1.3760    0.2780 c3        1 S35      0.095400
     22 C15        -5.1790    1.4300    0.9830 c3        1 S35      0.139100
     23 C17        -5.7680    2.8570    0.9980 c3        1 S35     -0.085000
     24 C19        -5.8370    3.4330   -0.4070 c3        1 S35     -0.088767
     25 C20        -7.1750    2.7860    1.5800 c3        1 S35     -0.088767
     26 C18        -4.9200    3.7600    1.8810 c3        1 S35     -0.088767
     27 O16        -6.0800    0.5030    0.4030 oh        1 S35     -0.587800
     28 N8         -1.3630   -0.7590   -0.4980 na        1 S35      0.136300
     29 C6         -2.1320   -1.8550   -0.9710 ca        1 S35     -0.005200
     30 C5         -3.0580   -2.4920   -0.1190 ca        1 S35     -0.097000
     31 C4         -3.8230   -3.5580   -0.5770 ca        1 S35     -0.139000
     32 C3         -3.6780   -4.0260   -1.8820 ca        1 S35     -0.115000
     33 C2         -2.7720   -3.4200   -2.7430 ca        1 S35     -0.172000
     34 C1         -1.9960   -2.3290   -2.3070 ca        1 S35      0.140900
     35 F7         -1.1410   -1.7510   -3.1800 f         1 S35     -0.119900
     36 H351        4.1740    3.1610   -0.0240 hc        1 S35      0.050367
     37 H352        5.7080    2.8820    0.9120 hc        1 S35      0.050367
     38 H353        5.7370    3.8970   -0.5890 hc        1 S35      0.050367
     39 H31         6.7830    2.8430   -2.3360 ha        1 S35      0.115000
     40 H32         7.2060    0.8540   -3.7660 ha        1 S35      0.111000
     41 H33         6.1770   -1.3450   -3.1750 ha        1 S35      0.116000
     42 H34         4.7570   -1.5440   -1.1370 ha        1 S35      0.142000
     43 H24         4.0870    1.3500    1.2240 h1        1 S35      0.068700
     44 H251        5.0990   -1.5800    1.0710 hc        1 S35      0.040700
     45 H252        5.8200   -0.1610    1.9460 hc        1 S35      0.040700
     46 H23         2.5220   -0.9480    0.7690 hn        1 S35      0.365500
     47 H11        -0.6420    1.7930    1.5230 ha        1 S35      0.185000
     48 H141       -3.2330    2.3170    0.4350 h1        1 S35      0.051200
     49 H142       -3.9390    1.1800   -0.8190 h1        1 S35      0.051200
     50 H15        -5.0660    1.0620    2.0450 h1        1 S35      0.098700
     51 H16        -6.1760    0.7350   -0.5290 ho        1 S35      0.394000
     52 H191       -6.4890    2.8010   -1.0580 hc        1 S35      0.038033
     53 H192       -6.2650    4.4640   -0.3760 hc        1 S35      0.038033
     54 H193       -4.8190    3.4880   -0.8630 hc        1 S35      0.038033
     55 H201       -7.1360    2.4180    2.6330 hc        1 S35      0.038033
     56 H202       -7.6490    3.7970    1.5680 hc        1 S35      0.038033
     57 H203       -7.8040    2.0840    0.9820 hc        1 S35      0.038033
     58 H181       -3.9350    3.9810    1.4050 hc        1 S35      0.038033
     59 H182       -5.4490    4.7290    2.0500 hc        1 S35      0.038033
     60 H183       -4.7380    3.2770    2.8710 hc        1 S35      0.038033
     61 H5         -3.1810   -2.1310    0.9170 ha        1 S35      0.169000
     62 H4         -4.5420   -4.0380    0.1040 ha        1 S35      0.138000
     63 H3         -4.2770   -4.8780   -2.2330 ha        1 S35      0.131000
     64 H2         -2.6440   -3.7800   -3.7740 ha        1 S35      0.145000
@<TRIPOS>BOND
     1    1    2 1   
     2    1   36 1   
     3    1   37 1   
     4    1   38 1   
     5    2    3 ar  
     6    2    7 ar  
     7    3    4 ar  
     8    3   39 1   
     9    4    5 ar  
    10    4   40 1   
    11    5    6 ar  
    12    5   41 1   
    13    6    7 ar  
    14    6   42 1   
    15    7    8 1   
    16    8    9 1   
    17    8   13 1   
    18    8   43 1   
    19    9   10 1   
    20    9   44 1   
    21    9   45 1   
    22   10   11 1   
    23   10   12 1   
    24   13   14 1   
    25   13   46 1   
    26   14   15 2   
    27   14   16 1   
    28   16   17 2   
    29   16   18 1   
    30   17   28 1   
    31   18   19 2   
    32   18   47 1   
    33   19   20 1   
    34   19   28 1   
    35   20   21 1   
    36   21   22 1   
    37   21   48 1   
    38   21   49 1   
    39   22   23 1   
    40   22   27 1   
    41   22   50 1   
    42   23   24 1   
    43   23   25 1   
    44   23   26 1   
    45   24   52 1   
    46   24   53 1   
    47   24   54 1   
    48   25   55 1   
    49   25   56 1   
    50   25   57 1   
    51   26   58 1   
    52   26   59 1   
    53   26   60 1   
    54   27   51 1   
    55   28   29 1   
    56   29   30 ar  
    57   29   34 ar  
    58   30   31 ar  
    59   30   61 1   
    60   31   32 ar  
    61   31   62 1   
    62   32   33 ar  
    63   32   63 1   
    64   33   34 ar  
    65   33   64 1   
    66   34   35 1   
@<TRIPOS>SUBSTRUCTURE
     1 S35         1 TEMP              0 ****  ****    0 ROOT
