@<TRIPOS>MOLECULE
S36
   44    46     1     0     0
SMALL
bcc


@<TRIPOS>ATOM
      1 C01         0.4590   -0.7710    0.2770 ca        1 S36     -0.306000
      2 C02         1.7230   -0.1970    0.0840 ca        1 S36      0.178100
      3 C03         2.4500    0.3570    1.1590 ca        1 S36     -0.131300
      4 C04         1.8710    0.3260    2.4290 ca        1 S36     -0.029000
      5 C05         0.6150   -0.2430    2.6520 ca        1 S36     -0.192600
      6 C06        -0.0890   -0.7920    1.5660 ca        1 S36      0.186100
      7 C07         0.0150   -0.1710    4.0160 c         1 S36      0.693700
      8 N08         0.1200   -1.2740    4.8570 n         1 S36     -0.457800
      9 O09        -0.4930    0.8910    4.4280 o         1 S36     -0.594100
     10 O10        -1.3130   -1.3570    1.8290 oh        1 S36     -0.487100
     11 O11         2.3040   -0.1570   -1.1610 oh        1 S36     -0.491100
     12 C12         3.7980    0.9700    0.9460 c3        1 S36     -0.015400
     13 C13         3.7870    2.4440    1.3070 c3        1 S36     -0.088100
     14 C14         4.8600    0.2370    1.7430 c3        1 S36     -0.088100
     15 C15        -0.5170   -1.2530    6.1560 c3        1 S36      0.086000
     16 C16        -1.7080   -2.2070    6.2750 c3        1 S36     -0.061100
     17 C17        -1.3930   -3.5530    5.7310 ca        1 S36     -0.064300
     18 C18        -0.3410   -3.7230    4.8200 ca        1 S36     -0.094300
     19 C19         0.5240   -2.5750    4.3800 c3        1 S36      0.140300
     20 C20        -2.1580   -4.6610    6.1150 ca        1 S36     -0.127000
     21 C21        -1.8790   -5.9240    5.5990 ca        1 S36     -0.128000
     22 C22        -0.8290   -6.0910    4.6940 ca        1 S36     -0.131000
     23 C23        -0.0640   -4.9950    4.3060 ca        1 S36     -0.126000
     24 H1         -0.0970   -1.1940   -0.5700 ha        1 S36      0.139000
     25 H2          2.4150    0.7700    3.2800 ha        1 S36      0.153000
     26 H3         -1.7150   -1.6140    0.9860 ho        1 S36      0.425000
     27 H4          1.6850   -0.5460   -1.7960 ho        1 S36      0.422000
     28 H5          4.0620    0.8830   -0.1490 hc        1 S36      0.071700
     29 H6          4.7900    2.8920    1.1060 hc        1 S36      0.036533
     30 H7          3.0240    2.9880    0.7000 hc        1 S36      0.036533
     31 H8          3.5460    2.5860    2.3890 hc        1 S36      0.036533
     32 H9          5.8630    0.6860    1.5430 hc        1 S36      0.036533
     33 H10         4.6530    0.3060    2.8380 hc        1 S36      0.036533
     34 H11         4.8890   -0.8410    1.4540 hc        1 S36      0.036533
     35 H12         0.2620   -1.5490    6.9160 h1        1 S36      0.066200
     36 H13        -0.8600   -0.2050    6.3890 h1        1 S36      0.066200
     37 H14        -1.9940   -2.2800    7.3570 hc        1 S36      0.062200
     38 H15        -2.5890   -1.7860    5.7200 hc        1 S36      0.062200
     39 H16         0.5590   -2.5770    3.2510 h1        1 S36      0.059200
     40 H17         1.5730   -2.7700    4.7590 h1        1 S36      0.059200
     41 H18        -2.9840   -4.5280    6.8290 ha        1 S36      0.132000
     42 H19        -2.4840   -6.7890    5.9050 ha        1 S36      0.131000
     43 H20        -0.6070   -7.0880    4.2870 ha        1 S36      0.131000
     44 H21         0.7640   -5.1250    3.5930 ha        1 S36      0.130000
@<TRIPOS>BOND
     1    1    2 ar  
     2    1    6 ar  
     3    1   24 1   
     4    2    3 ar  
     5    2   11 1   
     6    3    4 ar  
     7    3   12 1   
     8    4    5 ar  
     9    4   25 1   
    10    5    6 ar  
    11    5    7 1   
    12    6   10 1   
    13    7    8 1   
    14    7    9 2   
    15    8   15 1   
    16    8   19 1   
    17   10   26 1   
    18   11   27 1   
    19   12   13 1   
    20   12   14 1   
    21   12   28 1   
    22   13   29 1   
    23   13   30 1   
    24   13   31 1   
    25   14   32 1   
    26   14   33 1   
    27   14   34 1   
    28   15   16 1   
    29   15   35 1   
    30   15   36 1   
    31   16   17 1   
    32   16   37 1   
    33   16   38 1   
    34   17   18 ar  
    35   17   20 ar  
    36   18   19 1   
    37   18   23 ar  
    38   19   39 1   
    39   19   40 1   
    40   20   21 ar  
    41   20   41 1   
    42   21   22 ar  
    43   21   42 1   
    44   22   23 ar  
    45   22   43 1   
    46   23   44 1   
@<TRIPOS>SUBSTRUCTURE
     1 S36         1 TEMP              0 ****  ****    0 ROOT
