@<TRIPOS>MOLECULE
S36
   44    46     1     0     0
SMALL
bcc


@<TRIPOS>ATOM
      1 C01         0.4450   -0.7560    0.2810 ca        1 S36     -0.306000
      2 C02         1.7050   -0.1740    0.0880 ca        1 S36      0.178100
      3 C03         2.4320    0.3790    1.1640 ca        1 S36     -0.131300
      4 C04         1.8560    0.3370    2.4350 ca        1 S36     -0.029000
      5 C05         0.6050   -0.2420    2.6580 ca        1 S36     -0.192600
      6 C06        -0.0990   -0.7880    1.5710 ca        1 S36      0.186100
      7 C07         0.0080   -0.1810    4.0240 c         1 S36      0.694700
      8 N08         0.1220   -1.2880    4.8590 n         1 S36     -0.457800
      9 O09        -0.5050    0.8760    4.4440 o         1 S36     -0.594100
     10 O10        -1.3180   -1.3630    1.8340 oh        1 S36     -0.487100
     11 O11         2.2830   -0.1220   -1.1580 oh        1 S36     -0.491100
     12 C12         3.7750    1.0020    0.9500 c3        1 S36     -0.015400
     13 C13         3.7560    2.4740    1.3190 c3        1 S36     -0.088100
     14 C14         4.8440    0.2710    1.7410 c3        1 S36     -0.088100
     15 C15        -0.5110   -1.2790    6.1590 c3        1 S36      0.086000
     16 C16        -1.6940   -2.2420    6.2770 c3        1 S36     -0.061100
     17 C17        -1.3710   -3.5830    5.7250 ca        1 S36     -0.064300
     18 C18        -0.3210   -3.7400    4.8100 ca        1 S36     -0.094300
     19 C19         0.5340   -2.5840    4.3720 c3        1 S36      0.140300
     20 C20        -2.1260   -4.6990    6.1060 ca        1 S36     -0.127000
     21 C21        -1.8390   -5.9570    5.5830 ca        1 S36     -0.128000
     22 C22        -0.7910   -6.1120    4.6740 ca        1 S36     -0.131000
     23 C23        -0.0360   -5.0070    4.2890 ca        1 S36     -0.126000
     24 H1         -0.1110   -1.1780   -0.5670 ha        1 S36      0.139000
     25 H2          2.4000    0.7800    3.2870 ha        1 S36      0.153000
     26 H3         -1.7210   -1.6180    0.9900 ho        1 S36      0.425000
     27 H4          1.6650   -0.5120   -1.7940 ho        1 S36      0.422000
     28 H5          4.0380    0.9220   -0.1450 hc        1 S36      0.071700
     29 H6          2.9880    3.0150    0.7170 hc        1 S36      0.036533
     30 H7          3.5160    2.6080    2.4010 hc        1 S36      0.036533
     31 H8          4.7550    2.9290    1.1180 hc        1 S36      0.036533
     32 H9          5.8430    0.7280    1.5410 hc        1 S36      0.036533
     33 H10         4.8790   -0.8050    1.4470 hc        1 S36      0.036533
     34 H11         4.6400    0.3340    2.8370 hc        1 S36      0.036533
     35 H12        -0.8610   -0.2350    6.3990 h1        1 S36      0.066200
     36 H13         0.2730   -1.5730    6.9160 h1        1 S36      0.066200
     37 H14        -2.5810   -1.8250    5.7260 hc        1 S36      0.062200
     38 H15        -1.9770   -2.3220    7.3600 hc        1 S36      0.062200
     39 H16         0.5640   -2.5790    3.2440 h1        1 S36      0.059200
     40 H17         1.5860   -2.7730    4.7460 h1        1 S36      0.059200
     41 H18        -2.9510   -4.5750    6.8240 ha        1 S36      0.132000
     42 H19        -2.4360   -6.8290    5.8880 ha        1 S36      0.131000
     43 H20        -0.5630   -7.1050    4.2610 ha        1 S36      0.131000
     44 H21         0.7910   -5.1280    3.5730 ha        1 S36      0.130000
@<TRIPOS>BOND
     1    1    2 ar  
     2    1    6 ar  
     3    1   24 1   
     4    2    3 ar  
     5    2   11 1   
     6    3    4 ar  
     7    3   12 1   
     8    4    5 ar  
     9    4   25 1   
    10    5    6 ar  
    11    5    7 1   
    12    6   10 1   
    13    7    8 1   
    14    7    9 2   
    15    8   15 1   
    16    8   19 1   
    17   10   26 1   
    18   11   27 1   
    19   12   13 1   
    20   12   14 1   
    21   12   28 1   
    22   13   29 1   
    23   13   30 1   
    24   13   31 1   
    25   14   32 1   
    26   14   33 1   
    27   14   34 1   
    28   15   16 1   
    29   15   35 1   
    30   15   36 1   
    31   16   17 1   
    32   16   37 1   
    33   16   38 1   
    34   17   18 ar  
    35   17   20 ar  
    36   18   19 1   
    37   18   23 ar  
    38   19   39 1   
    39   19   40 1   
    40   20   21 ar  
    41   20   41 1   
    42   21   22 ar  
    43   21   42 1   
    44   22   23 ar  
    45   22   43 1   
    46   23   44 1   
@<TRIPOS>SUBSTRUCTURE
     1 S36         1 TEMP              0 ****  ****    0 ROOT
