@<TRIPOS>MOLECULE
S36
   44    46     1     0     0
SMALL
bcc


@<TRIPOS>ATOM
      1 C01         0.4500   -0.7580    0.2800 ca        1 S36     -0.306000
      2 C02         1.7140   -0.1850    0.0860 ca        1 S36      0.178100
      3 C03         2.4450    0.3640    1.1610 ca        1 S36     -0.131300
      4 C04         1.8690    0.3280    2.4330 ca        1 S36     -0.029000
      5 C05         0.6140   -0.2410    2.6570 ca        1 S36     -0.192600
      6 C06        -0.0950   -0.7840    1.5700 ca        1 S36      0.186100
      7 C07         0.0170   -0.1740    4.0230 c         1 S36      0.693700
      8 N08         0.1240   -1.2810    4.8590 n         1 S36     -0.457800
      9 O09        -0.4880    0.8870    4.4410 o         1 S36     -0.594100
     10 O10        -1.3180   -1.3490    1.8340 oh        1 S36     -0.487100
     11 O11         2.2920   -0.1390   -1.1610 oh        1 S36     -0.491100
     12 C12         3.7920    0.9770    0.9470 c3        1 S36     -0.015400
     13 C13         3.7840    2.4490    1.3150 c3        1 S36     -0.088100
     14 C14         4.8570    0.2380    1.7370 c3        1 S36     -0.088100
     15 C15        -0.5090   -1.2650    6.1590 c3        1 S36      0.086000
     16 C16        -1.7000   -2.2190    6.2780 c3        1 S36     -0.061100
     17 C17        -1.3870   -3.5630    5.7280 ca        1 S36     -0.064300
     18 C18        -0.3380   -3.7290    4.8130 ca        1 S36     -0.094300
     19 C19         0.5260   -2.5800    4.3750 c3        1 S36      0.140300
     20 C20        -2.1510   -4.6730    6.1100 ca        1 S36     -0.127000
     21 C21        -1.8730   -5.9330    5.5890 ca        1 S36     -0.128000
     22 C22        -0.8270   -6.0970    4.6800 ca        1 S36     -0.131000
     23 C23        -0.0620   -4.9990    4.2940 ca        1 S36     -0.126000
     24 H1         -0.1100   -1.1770   -0.5670 ha        1 S36      0.139000
     25 H2          2.4160    0.7680    3.2840 ha        1 S36      0.153000
     26 H3         -1.7230   -1.6020    0.9910 ho        1 S36      0.425000
     27 H4          1.6700   -0.5250   -1.7960 ho        1 S36      0.422000
     28 H5          4.0540    0.8940   -0.1490 hc        1 S36      0.071700
     29 H6          3.0200    2.9960    0.7120 hc        1 S36      0.036533
     30 H7          4.7870    2.8960    1.1120 hc        1 S36      0.036533
     31 H8          3.5470    2.5860    2.3970 hc        1 S36      0.036533
     32 H9          4.6530    0.3030    2.8330 hc        1 S36      0.036533
     33 H10         5.8590    0.6880    1.5360 hc        1 S36      0.036533
     34 H11         4.8830   -0.8380    1.4430 hc        1 S36      0.036533
     35 H12        -0.8510   -0.2180    6.3970 h1        1 S36      0.066200
     36 H13         0.2720   -1.5640    6.9160 h1        1 S36      0.066200
     37 H14        -2.5830   -1.7960    5.7270 hc        1 S36      0.062200
     38 H15        -1.9830   -2.2960    7.3610 hc        1 S36      0.062200
     39 H16         0.5560   -2.5770    3.2460 h1        1 S36      0.059200
     40 H17         1.5760   -2.7760    4.7480 h1        1 S36      0.059200
     41 H18        -2.9740   -4.5420    6.8280 ha        1 S36      0.132000
     42 H19        -2.4770   -6.8000    5.8940 ha        1 S36      0.131000
     43 H20        -0.6050   -7.0930    4.2690 ha        1 S36      0.131000
     44 H21         0.7630   -5.1270    3.5780 ha        1 S36      0.130000
@<TRIPOS>BOND
     1    1    2 ar  
     2    1    6 ar  
     3    1   24 1   
     4    2    3 ar  
     5    2   11 1   
     6    3    4 ar  
     7    3   12 1   
     8    4    5 ar  
     9    4   25 1   
    10    5    6 ar  
    11    5    7 1   
    12    6   10 1   
    13    7    8 1   
    14    7    9 2   
    15    8   15 1   
    16    8   19 1   
    17   10   26 1   
    18   11   27 1   
    19   12   13 1   
    20   12   14 1   
    21   12   28 1   
    22   13   29 1   
    23   13   30 1   
    24   13   31 1   
    25   14   32 1   
    26   14   33 1   
    27   14   34 1   
    28   15   16 1   
    29   15   35 1   
    30   15   36 1   
    31   16   17 1   
    32   16   37 1   
    33   16   38 1   
    34   17   18 ar  
    35   17   20 ar  
    36   18   19 1   
    37   18   23 ar  
    38   19   39 1   
    39   19   40 1   
    40   20   21 ar  
    41   20   41 1   
    42   21   22 ar  
    43   21   42 1   
    44   22   23 ar  
    45   22   43 1   
    46   23   44 1   
@<TRIPOS>SUBSTRUCTURE
     1 S36         1 TEMP              0 ****  ****    0 ROOT
