@<TRIPOS>MOLECULE
S38
   35    37     1     0     0
SMALL
bcc


@<TRIPOS>ATOM
      1 C1          0.1410   -0.1160    0.0450 ca        1 S38     -0.091000
      2 C2          1.0580    0.9340    0.2190 ca        1 S38      0.076000
      3 C3          1.5130    1.2680    1.5020 ca        1 S38     -0.091000
      4 C4          1.0470    0.5600    2.6090 ca        1 S38     -0.075000
      5 C5          0.1140   -0.4740    2.4360 ca        1 S38     -0.188600
      6 C6         -0.3300   -0.8180    1.1500 ca        1 S38     -0.075000
      7 C7         -0.3180   -1.1960    3.6350 c         1 S38      0.577700
      8 N8         -1.7810   -1.6230    3.6680 n4        1 S38     -0.641800
      9 C9         -2.5140   -0.9360    4.7450 cx        1 S38     -0.015500
     10 C10        -4.0430   -0.9620    4.7830 cx        1 S38     -0.008400
     11 C11        -3.3130    0.3190    4.4850 cx        1 S38     -0.099400
     12 C12        -4.7090   -1.2060    6.0680 ca        1 S38     -0.114300
     13 C13        -5.8320   -2.0440    6.1020 ca        1 S38     -0.110000
     14 C14        -6.4900   -2.2860    7.3070 ca        1 S38     -0.118000
     15 C15        -6.0320   -1.6970    8.4860 ca        1 S38     -0.094000
     16 C16        -4.9150   -0.8610    8.4580 ca        1 S38     -0.118000
     17 C17        -4.2560   -0.6150    7.2550 ca        1 S38     -0.110000
     18 O18         0.3340   -1.4880    4.6250 o         1 S38     -0.404100
     19 C19         1.5300    1.6540   -0.9130 cg        1 S38      0.186800
     20 N20         1.9160    2.2430   -1.8390 n1        1 S38     -0.265800
     21 H1         -0.1990   -0.3880   -0.9690 ha        1 S38      0.179500
     22 H3          2.2430    2.0840    1.6390 ha        1 S38      0.179500
     23 H4          1.4170    0.8090    3.6190 ha        1 S38      0.155500
     24 H6         -1.0180   -1.6610    0.9830 ha        1 S38      0.155500
     25 HN8        -2.2230   -1.4250    2.7650 hn        1 S38      0.456800
     26 H9         -1.9550   -1.0350    5.7080 hx        1 S38      0.158700
     27 H10        -4.5730   -1.4400    3.9290 hc        1 S38      0.098700
     28 H11        -3.2660    1.1190    5.2510 hc        1 S38      0.110200
     29 H11A       -3.3800    0.7370    3.4630 hc        1 S38      0.110200
     30 H13        -6.2050   -2.5080    5.1770 ha        1 S38      0.130000
     31 H14        -7.3740   -2.9420    7.3250 ha        1 S38      0.152000
     32 H15        -6.5540   -1.8880    9.4370 ha        1 S38      0.154000
     33 H16        -4.5540   -0.3920    9.3860 ha        1 S38      0.152000
     34 H17        -3.3810    0.0520    7.2460 ha        1 S38      0.130000
     35 H82        -1.8300   -2.6330    3.8530 hn        1 S38      0.456800
@<TRIPOS>BOND
     1    1    2 ar  
     2    1    6 ar  
     3    1   21 1   
     4    2    3 ar  
     5    2   19 1   
     6    3    4 ar  
     7    3   22 1   
     8    4    5 ar  
     9    4   23 1   
    10    5    6 ar  
    11    5    7 1   
    12    6   24 1   
    13    7    8 1   
    14    7   18 2   
    15    8    9 1   
    16    8   25 1   
    17    8   35 1   
    18    9   10 1   
    19    9   11 1   
    20    9   26 1   
    21   10   11 1   
    22   10   12 1   
    23   10   27 1   
    24   11   28 1   
    25   11   29 1   
    26   12   13 ar  
    27   12   17 ar  
    28   13   14 ar  
    29   13   30 1   
    30   14   15 ar  
    31   14   31 1   
    32   15   16 ar  
    33   15   32 1   
    34   16   17 ar  
    35   16   33 1   
    36   17   34 1   
    37   19   20 3   
@<TRIPOS>SUBSTRUCTURE
     1 S38         1 TEMP              0 ****  ****    0 ROOT
