@<TRIPOS>MOLECULE
S38
   35    38     1     0     0
SMALL
bcc


@<TRIPOS>ATOM
      1 C1         -0.0600   -0.4580    0.2230 ca        1 S38     -0.093000
      2 C2          1.2570    0.0290    0.1520 ca        1 S38      0.081000
      3 C3          1.8940    0.5050    1.3050 ca        1 S38     -0.093000
      4 C4          1.2160    0.5010    2.5230 ca        1 S38     -0.071500
      5 C5         -0.1050    0.0280    2.5930 ca        1 S38     -0.195600
      6 C6         -0.7370   -0.4580    1.4370 ca        1 S38     -0.071500
      7 C7         -0.7400    0.0490    3.9140 c         1 S38      0.569700
      8 N8         -2.2600    0.0090    3.9120 ny        1 S38     -0.641800
      9 C9         -2.8820    0.3510    5.2060 cx        1 S38      0.043500
     10 C10        -3.7240   -0.6550    5.9150 cx        1 S38     -0.191000
     11 C11        -4.3940    0.5050    5.2960 cx        1 S38     -0.046400
     12 C12        -3.8440   -2.1410    5.9420 cx        1 S38     -0.023000
     13 C13        -5.1520   -2.7690    5.7370 c2        1 S38     -0.157700
     14 C14        -6.1510   -2.6150    6.6280 ce        1 S38     -0.103000
     15 C15        -5.9710   -1.8540    7.8470 ce        1 S38     -0.103000
     16 C16        -4.7930   -1.2710    8.1490 c2        1 S38     -0.157700
     17 C17        -3.6500   -1.3430    7.2340 cx        1 S38     -0.023000
     18 O18        -0.1920    0.1150    5.0040 o         1 S38     -0.406100
     19 C19         1.9420    0.0300   -1.0940 cg        1 S38      0.185800
     20 N20         2.5030    0.0320   -2.1130 n1        1 S38     -0.264800
     21 H1         -0.5530   -0.8430   -0.6850 ha        1 S38      0.180000
     22 H3          2.9310    0.8800    1.2540 ha        1 S38      0.180000
     23 H4          1.7200    0.8670    3.4360 ha        1 S38      0.154500
     24 H6         -1.7590   -0.8670    1.4600 ha        1 S38      0.154500
     25 HN8        -2.5520   -0.9390    3.6420 hn        1 S38      0.458300
     26 H9         -2.2210    1.0270    5.7980 hx        1 S38      0.157700
     27 H10        -2.9920   -2.7320    5.5490 hc        1 S38      0.099700
     28 H11        -4.7820    1.3220    5.9370 hc        1 S38      0.108200
     29 H11A       -5.0260    0.3460    4.4010 hc        1 S38      0.108200
     30 H13        -5.2610   -3.4100    4.8490 ha        1 S38      0.148000
     31 H14        -7.1300   -3.1000    6.4780 ha        1 S38      0.153500
     32 H15        -6.8250   -1.8080    8.5430 ha        1 S38      0.153500
     33 H16        -4.6270   -0.7530    9.1060 ha        1 S38      0.148000
     34 H17        -2.6630   -1.3690    7.7420 hc        1 S38      0.099700
     35 H82        -2.5970    0.6680    3.2000 hn        1 S38      0.458300
@<TRIPOS>BOND
     1    1    2 ar  
     2    1    6 ar  
     3    1   21 1   
     4    2    3 ar  
     5    2   19 1   
     6    3    4 ar  
     7    3   22 1   
     8    4    5 ar  
     9    4   23 1   
    10    5    6 ar  
    11    5    7 1   
    12    6   24 1   
    13    7    8 1   
    14    7   18 2   
    15    8    9 1   
    16    8   25 1   
    17    8   35 1   
    18    9   10 1   
    19    9   11 1   
    20    9   26 1   
    21   10   11 1   
    22   10   12 1   
    23   10   17 1   
    24   11   28 1   
    25   11   29 1   
    26   12   13 1   
    27   12   17 1   
    28   12   27 1   
    29   13   14 2   
    30   13   30 1   
    31   14   15 1   
    32   14   31 1   
    33   15   16 2   
    34   15   32 1   
    35   16   17 1   
    36   16   33 1   
    37   17   34 1   
    38   19   20 3   
@<TRIPOS>SUBSTRUCTURE
     1 S38         1 TEMP              0 ****  ****    0 ROOT
