@<TRIPOS>MOLECULE
S38
   34    36     1     0     0
SMALL
bcc


@<TRIPOS>ATOM
      1 C1         -4.2310    0.5600   -0.8980 ca        1 S38     -0.099500
      2 C2         -4.8750    0.2200    0.3010 ca        1 S38      0.003000
      3 C3         -4.1850   -0.4950    1.2910 ca        1 S38     -0.099500
      4 C4         -2.8570   -0.8600    1.0830 ca        1 S38     -0.098000
      5 C5         -2.2110   -0.5060   -0.1070 ca        1 S38     -0.120600
      6 C6         -2.9010    0.1970   -1.0990 ca        1 S38     -0.098000
      7 C7         -0.7900   -0.9330   -0.2870 c         1 S38      0.673700
      8 N8          0.0640   -0.0230   -0.8850 n         1 S38     -0.538900
      9 C9          1.4480   -0.2790   -1.0500 cx        1 S38      0.060700
     10 C10         2.4920    0.8110   -0.8070 cx        1 S38     -0.100400
     11 C11         2.2270    0.3090   -2.2050 cx        1 S38     -0.138400
     12 C12         3.7370    0.4870   -0.1010 ca        1 S38     -0.049300
     13 C13         4.2790    1.4190    0.7970 ca        1 S38     -0.125000
     14 C14         5.4590    1.1370    1.4820 ca        1 S38     -0.126000
     15 C15         6.1130   -0.0780    1.2800 ca        1 S38     -0.130000
     16 C16         5.5820   -1.0100    0.3890 ca        1 S38     -0.126000
     17 C17         4.4020   -0.7310   -0.2970 ca        1 S38     -0.125000
     18 O18        -0.3980   -2.0560    0.0840 o         1 S38     -0.588100
     19 C19        -6.2300    0.5970    0.5090 cg        1 S38      0.227800
     20 N20        -7.3380    0.9050    0.6800 n1        1 S38     -0.350800
     21 H1         -4.7770    1.1110   -1.6790 ha        1 S38      0.151500
     22 H3         -4.6930   -0.7700    2.2280 ha        1 S38      0.151500
     23 H4         -2.3110   -1.4390    1.8450 ha        1 S38      0.154000
     24 H6         -2.4100    0.4540   -2.0500 ha        1 S38      0.154000
     25 HN8        -0.2700    0.8860   -1.1010 hn        1 S38      0.311500
     26 H9          1.7070   -1.3150   -0.7230 h1        1 S38      0.127700
     27 H10         2.1240    1.8340   -0.5730 hc        1 S38      0.081700
     28 H11         2.9770   -0.3320   -2.7020 hc        1 S38      0.078200
     29 H11A        1.7320    0.9920   -2.9180 hc        1 S38      0.078200
     30 H13         3.7680    2.3790    0.9630 ha        1 S38      0.130500
     31 H14         5.8740    1.8750    2.1840 ha        1 S38      0.132000
     32 H15         7.0440   -0.3000    1.8210 ha        1 S38      0.132000
     33 H16         6.0930   -1.9710    0.2280 ha        1 S38      0.132000
     34 H17         3.9890   -1.4740   -0.9960 ha        1 S38      0.130500
@<TRIPOS>BOND
     1    1    2 ar  
     2    1    6 ar  
     3    1   21 1   
     4    2    3 ar  
     5    2   19 1   
     6    3    4 ar  
     7    3   22 1   
     8    4    5 ar  
     9    4   23 1   
    10    5    6 ar  
    11    5    7 1   
    12    6   24 1   
    13    7    8 1   
    14    7   18 2   
    15    8    9 1   
    16    8   25 1   
    17    9   10 1   
    18    9   11 1   
    19    9   26 1   
    20   10   11 1   
    21   10   12 1   
    22   10   27 1   
    23   11   28 1   
    24   11   29 1   
    25   12   13 ar  
    26   12   17 ar  
    27   13   14 ar  
    28   13   30 1   
    29   14   15 ar  
    30   14   31 1   
    31   15   16 ar  
    32   15   32 1   
    33   16   17 ar  
    34   16   33 1   
    35   17   34 1   
    36   19   20 3   
@<TRIPOS>SUBSTRUCTURE
     1 S38         1 TEMP              0 ****  ****    0 ROOT
