@<TRIPOS>MOLECULE
S3B
   26    26     1     0     0
SMALL
bcc


@<TRIPOS>ATOM
      1 C1          0.1730    0.2000   -0.0270 ca        1 S3B      0.149100
      2 O2         -0.3960    0.3420   -1.2910 os        1 S3B     -0.385200
      3 C3         -1.0250    1.5360   -1.6020 c         1 S3B      0.710100
      4 C4         -2.0690    1.3530   -2.6600 c3        1 S3B     -0.135400
      5 C5         -2.0900    2.5050   -3.6280 c3        1 S3B     -0.087100
      6 O6         -0.6020    2.5760   -1.0990 o         1 S3B     -0.558000
      7 C7          1.5720    0.0490    0.0410 ca        1 S3B     -0.113300
      8 C8          2.4060    0.1760   -1.1750 c3        1 S3B     -0.032800
      9 C9          2.1510   -0.2350    1.2810 ca        1 S3B     -0.142000
     10 C10         1.3590   -0.3580    2.4210 ca        1 S3B     -0.169000
     11 C11        -0.0230   -0.1980    2.3360 ca        1 S3B     -0.097000
     12 C12        -0.6380    0.0870    1.1130 ca        1 S3B     -0.134600
     13 C13        -2.1450    0.2640    1.0590 c         1 S3B      0.923200
     14 O14        -2.6440    0.8340    0.0430 o         1 S3B     -0.831300
     15 O15        -2.8300   -0.1610    2.0290 o         1 S3B     -0.831300
     16 H4         -3.0490    1.2700   -2.1070 hc        1 S3B      0.092700
     17 H4A        -1.8960    0.3830   -3.1950 hc        1 S3B      0.092700
     18 H5         -2.9670    2.4120   -4.3130 hc        1 S3B      0.030700
     19 H5A        -2.1640    3.4740   -3.0750 hc        1 S3B      0.030700
     20 H5B        -1.1590    2.5260   -4.2450 hc        1 S3B      0.030700
     21 H8          2.3490   -0.7630   -1.7800 hc        1 S3B      0.031700
     22 H8A         3.4750    0.3670   -0.9150 hc        1 S3B      0.031700
     23 H8B         2.0320    1.0180   -1.8100 hc        1 S3B      0.031700
     24 H9          3.2410   -0.3570    1.3530 ha        1 S3B      0.105000
     25 H10         1.8280   -0.5800    3.3890 ha        1 S3B      0.106000
     26 H11        -0.6660   -0.3010    3.2250 ha        1 S3B      0.152000
@<TRIPOS>BOND
     1    1    2 1   
     2    1    7 ar  
     3    1   12 ar  
     4    2    3 1   
     5    3    4 1   
     6    3    6 2   
     7    4    5 1   
     8    4   16 1   
     9    4   17 1   
    10    5   18 1   
    11    5   19 1   
    12    5   20 1   
    13    7    8 1   
    14    7    9 ar  
    15    8   21 1   
    16    8   22 1   
    17    8   23 1   
    18    9   10 ar  
    19    9   24 1   
    20   10   11 ar  
    21   10   25 1   
    22   11   12 ar  
    23   11   26 1   
    24   12   13 1   
    25   13   14 1   
    26   13   15 1   
@<TRIPOS>SUBSTRUCTURE
     1 S3B         1 TEMP              0 ****  ****    0 ROOT
