@<TRIPOS>MOLECULE
S3B
   26    26     1     0     0
SMALL
bcc


@<TRIPOS>ATOM
      1 C1          0.1730    0.1970   -0.0310 ca        1 S3B      0.149100
      2 O2         -0.3920    0.3480   -1.2950 os        1 S3B     -0.385200
      3 C3         -1.0250    1.5430   -1.5970 c         1 S3B      0.710100
      4 C4         -2.0650    1.3660   -2.6590 c3        1 S3B     -0.135400
      5 C5         -2.0870    2.5270   -3.6170 c3        1 S3B     -0.087100
      6 O6         -0.6070    2.5790   -1.0830 o         1 S3B     -0.558000
      7 C7          1.5730    0.0490    0.0400 ca        1 S3B     -0.113300
      8 C8          2.4090    0.1920   -1.1720 c3        1 S3B     -0.032800
      9 C9          2.1490   -0.2440    1.2790 ca        1 S3B     -0.142000
     10 C10         1.3540   -0.3800    2.4160 ca        1 S3B     -0.169000
     11 C11        -0.0280   -0.2250    2.3280 ca        1 S3B     -0.097000
     12 C12        -0.6400    0.0700    1.1060 ca        1 S3B     -0.134600
     13 C13        -2.1480    0.2420    1.0490 c         1 S3B      0.923200
     14 O14        -2.6460    0.8200    0.0370 o         1 S3B     -0.831300
     15 O15        -2.8350   -0.1950    2.0130 o         1 S3B     -0.831300
     16 H4         -3.0460    1.2740   -2.1100 hc        1 S3B      0.092700
     17 H4A        -1.8870    0.4020   -3.2030 hc        1 S3B      0.092700
     18 H5         -2.9620    2.4380   -4.3050 hc        1 S3B      0.030700
     19 H5A        -2.1670    3.4900   -3.0550 hc        1 S3B      0.030700
     20 H5B        -1.1550    2.5570   -4.2310 hc        1 S3B      0.030700
     21 H8          2.3590   -0.7430   -1.7850 hc        1 S3B      0.031700
     22 H8A         3.4770    0.3860   -0.9070 hc        1 S3B      0.031700
     23 H8B         2.0330    1.0370   -1.8010 hc        1 S3B      0.031700
     24 H9          3.2390   -0.3620    1.3530 ha        1 S3B      0.105000
     25 H10         1.8210   -0.6100    3.3830 ha        1 S3B      0.106000
     26 H11        -0.6740   -0.3380    3.2140 ha        1 S3B      0.152000
@<TRIPOS>BOND
     1    1    2 1   
     2    1    7 ar  
     3    1   12 ar  
     4    2    3 1   
     5    3    4 1   
     6    3    6 2   
     7    4    5 1   
     8    4   16 1   
     9    4   17 1   
    10    5   18 1   
    11    5   19 1   
    12    5   20 1   
    13    7    8 1   
    14    7    9 ar  
    15    8   21 1   
    16    8   22 1   
    17    8   23 1   
    18    9   10 ar  
    19    9   24 1   
    20   10   11 ar  
    21   10   25 1   
    22   11   12 ar  
    23   11   26 1   
    24   12   13 1   
    25   13   14 1   
    26   13   15 1   
@<TRIPOS>SUBSTRUCTURE
     1 S3B         1 TEMP              0 ****  ****    0 ROOT
