@<TRIPOS>MOLECULE
S3B
   26    26     1     0     0
SMALL
bcc


@<TRIPOS>ATOM
      1 C1         -0.4240    0.6700    0.2100 ca        1 S3B      0.149100
      2 O2          0.9190    0.5830    0.5690 os        1 S3B     -0.385200
      3 C3          1.8290    0.1410   -0.3790 c         1 S3B      0.710100
      4 C4          3.0370   -0.4750    0.2570 c3        1 S3B     -0.135400
      5 C5          4.2990   -0.1180   -0.4830 c3        1 S3B     -0.087100
      6 O6          1.6180    0.3970   -1.5640 o         1 S3B     -0.558000
      7 C7         -1.0080    1.9520    0.1950 ca        1 S3B     -0.113300
      8 C8         -0.1840    3.1610    0.4160 c3        1 S3B     -0.032800
      9 C9         -2.3850    2.0530   -0.0230 ca        1 S3B     -0.142000
     10 C10        -3.1550    0.9100   -0.2270 ca        1 S3B     -0.169000
     11 C11        -2.5590   -0.3490   -0.2150 ca        1 S3B     -0.097000
     12 C12        -1.1850   -0.4900   -0.0010 ca        1 S3B     -0.134600
     13 C13        -0.5680   -1.8770   -0.0040 c         1 S3B      0.923200
     14 O14         0.6900   -1.9710   -0.1380 o         1 S3B     -0.831300
     15 O15        -1.3330   -2.8710    0.1240 o         1 S3B     -0.831300
     16 H4          3.0990   -0.1590    1.3300 hc        1 S3B      0.092700
     17 H4A         2.8550   -1.5880    0.2360 hc        1 S3B      0.092700
     18 H5          5.1570   -0.7040   -0.0760 hc        1 S3B      0.030700
     19 H5A         4.1870   -0.3480   -1.5710 hc        1 S3B      0.030700
     20 H5B         4.5300    0.9690   -0.3770 hc        1 S3B      0.030700
     21 H8          0.7960    3.0590   -0.1140 hc        1 S3B      0.031700
     22 H8A        -0.7020    4.0790    0.0450 hc        1 S3B      0.031700
     23 H8B         0.0260    3.2880    1.5080 hc        1 S3B      0.031700
     24 H9         -2.8580    3.0450   -0.0380 ha        1 S3B      0.105000
     25 H10        -4.2370    1.0040   -0.3990 ha        1 S3B      0.106000
     26 H11        -3.1540   -1.2650   -0.3650 ha        1 S3B      0.152000
@<TRIPOS>BOND
     1    1    2 1   
     2    1    7 ar  
     3    1   12 ar  
     4    2    3 1   
     5    3    4 1   
     6    3    6 2   
     7    4    5 1   
     8    4   16 1   
     9    4   17 1   
    10    5   18 1   
    11    5   19 1   
    12    5   20 1   
    13    7    8 1   
    14    7    9 ar  
    15    8   21 1   
    16    8   22 1   
    17    8   23 1   
    18    9   10 ar  
    19    9   24 1   
    20   10   11 ar  
    21   10   25 1   
    22   11   12 ar  
    23   11   26 1   
    24   12   13 1   
    25   13   14 1   
    26   13   15 1   
@<TRIPOS>SUBSTRUCTURE
     1 S3B         1 TEMP              0 ****  ****    0 ROOT
