@<TRIPOS>MOLECULE
S3C
   19    19     1     0     0
SMALL
bcc


@<TRIPOS>ATOM
      1 C10        -0.1650   -0.1900    0.0850 ca        1 S3C      0.029400
      2 C15         1.3640    0.1150    2.4060 ca        1 S3C     -0.132000
      3 Cl1         3.6480    0.4510    1.0820 cl        1 S3C     -0.075400
      4 C2          1.9700    0.1930    1.1480 ca        1 S3C      0.028400
      5 C3          1.2190    0.0550   -0.0330 ca        1 S3C      0.030200
      6 C4          1.8540    0.1060   -1.3430 ce        1 S3C     -0.195200
      7 C5          2.1150    1.2030   -2.0670 cf        1 S3C      0.010400
      8 C6          2.8050    1.0450   -3.4320 c         1 S3C      0.906800
      9 O7          3.0430    2.0980   -4.0900 o         1 S3C     -0.815300
     10 O8          3.0930   -0.1180   -3.8150 o         1 S3C     -0.815300
     11 S9          1.7110    2.7710   -1.5440 sh        1 S3C     -0.406400
     12 Cl2        -1.1030   -0.3930   -1.3130 cl        1 S3C     -0.056400
     13 C12        -0.7660   -0.2720    1.3480 ca        1 S3C      0.009400
     14 Cl3        -2.4370   -0.5630    1.5120 cl        1 S3C     -0.104400
     15 C14        -0.0030   -0.1150    2.5080 ca        1 S3C     -0.135000
     16 H1          1.9670    0.2350    3.3180 ha        1 S3C      0.138000
     17 H2          2.1390   -0.8800   -1.7630 ha        1 S3C      0.176000
     18 H5         -0.4800   -0.1740    3.4970 ha        1 S3C      0.137000
     19 H3          2.1810    3.4490   -2.6070 hs        1 S3C      0.270800
@<TRIPOS>BOND
     1    1    5 ar  
     2    1   12 1   
     3    1   13 ar  
     4    2    4 ar  
     5    2   15 ar  
     6    2   16 1   
     7    3    4 1   
     8    4    5 ar  
     9    5    6 1   
    10    6    7 2   
    11    6   17 1   
    12    7    8 1   
    13    7   11 1   
    14    8    9 1   
    15    8   10 1   
    16   11   19 1   
    17   13   14 1   
    18   13   15 ar  
    19   15   18 1   
@<TRIPOS>SUBSTRUCTURE
     1 S3C         1 TEMP              0 ****  ****    0 ROOT
