@<TRIPOS>MOLECULE
S3G
   52    54     1     0     0
SMALL
bcc


@<TRIPOS>ATOM
      1 C1         -0.1750    0.1010   -0.1650 ca        1 S3G     -0.133000
      2 C2          1.2120    0.2520   -0.3240 ca        1 S3G     -0.070000
      3 C3         -1.5550    6.6240   -1.4460 ca        1 S3G     -0.212300
      4 C4         -2.3510    6.3120    0.8080 ca        1 S3G     -0.212300
      5 C5         -1.5570    8.0090   -1.1980 ca        1 S3G      0.389200
      6 C6         -2.3120    7.7120    0.9550 ca        1 S3G      0.389200
      7 C7         -1.9670    5.7650   -0.4210 ca        1 S3G     -0.101600
      8 C8         -0.1090    0.7560    2.1930 ca        1 S3G     -0.154600
      9 C9         -0.8340    0.3390    1.0460 ca        1 S3G     -0.018300
     10 C10         1.9100    0.6580    0.7940 ca        1 S3G      0.050100
     11 C11         1.2590    0.9120    2.0270 ca        1 S3G      0.080100
     12 C12        -1.9520    4.2920   -0.6670 c         1 S3G      0.664700
     13 C13        -0.7540    0.9930    3.4970 c         1 S3G      0.657700
     14 C14         3.4910    1.3030    2.3040 c3        1 S3G      0.326200
     15 C15        -6.8190    1.8670    2.1520 c3        1 S3G     -0.093100
     16 C16        -4.8980    3.2390    2.9170 c3        1 S3G     -0.093100
     17 C17        -2.3080    0.1280    1.1130 c3        1 S3G     -0.051100
     18 C18        -4.5180    1.1220    1.6100 c3        1 S3G     -0.078400
     19 C19        -3.0540    2.1260   -0.2100 c3        1 S3G      0.084000
     20 C20        -5.4130    2.3340    1.8170 c3        1 S3G     -0.067700
     21 C21        -3.0970    1.4370    1.1670 c3        1 S3G     -0.079700
     22 N22        -1.9280    8.5540   -0.0230 nb        1 S3G     -0.650000
     23 N23        -3.0090    3.5620   -0.1640 ns        1 S3G     -0.560900
     24 O24        -0.2690    1.9650    4.3240 oh        1 S3G     -0.578100
     25 O25        -1.0470    3.7610   -1.3430 o         1 S3G     -0.601100
     26 O26        -1.7290    0.4050    3.9700 o         1 S3G     -0.497000
     27 O27         3.2760    0.8870    0.9370 os        1 S3G     -0.326900
     28 O28         2.2010    1.3170    2.9660 os        1 S3G     -0.350900
     29 H1         -0.7650   -0.2150   -1.0420 ha        1 S3G      0.149000
     30 H2          1.7080    0.0630   -1.2850 ha        1 S3G      0.165000
     31 H6         -2.6040    8.1850    1.9100 h4        1 S3G      0.028100
     32 H171       -2.6500   -0.4680    0.2240 hc        1 S3G      0.072200
     33 H172       -2.5430   -0.4780    2.0330 hc        1 S3G      0.072200
     34 H23         0.5300    2.3670    3.9540 ho        1 S3G      0.441000
     35 H141        3.8980    2.3440    2.3040 h2        1 S3G      0.080200
     36 H142        4.1410    0.5490    2.8120 h2        1 S3G      0.080200
     37 H151       -7.2190    1.2190    1.3360 hc        1 S3G      0.036033
     38 H152       -7.4980    2.7450    2.2730 hc        1 S3G      0.036033
     39 H153       -6.8210    1.2830    3.1030 hc        1 S3G      0.036033
     40 H20        -5.4680    2.9180    0.8560 hc        1 S3G      0.038700
     41 H161       -4.7410    2.6590    3.8590 hc        1 S3G      0.036033
     42 H162       -3.9260    3.7070    2.6290 hc        1 S3G      0.036033
     43 H163       -5.6330    4.0550    3.1210 hc        1 S3G      0.036033
     44 H21        -2.6180    2.0920    1.9500 hc        1 S3G      0.062700
     45 H181       -4.9950    0.4490    0.8470 hc        1 S3G      0.051200
     46 H182       -4.4670    0.5500    2.5770 hc        1 S3G      0.051200
     47 H191       -3.9730    1.8250   -0.7930 h1        1 S3G      0.064200
     48 H192       -2.1480    1.7620   -0.7780 h1        1 S3G      0.064200
     49 H3         -1.2270    6.2190   -2.4150 ha        1 S3G      0.156000
     50 H5         -1.2410    8.7220   -1.9810 h4        1 S3G      0.028100
     51 H232       -3.6650    4.0150    0.4290 hn        1 S3G      0.313500
     52 H4         -2.6630    5.6820    1.6520 ha        1 S3G      0.156000
@<TRIPOS>BOND
     1    1    2 ar  
     2    1    9 ar  
     3    1   29 1   
     4    2   10 ar  
     5    2   30 1   
     6    3    5 ar  
     7    3    7 ar  
     8    3   49 1   
     9    4    6 ar  
    10    4    7 ar  
    11    4   52 1   
    12    5   22 ar  
    13    5   50 1   
    14    6   22 ar  
    15    6   31 1   
    16    7   12 1   
    17    8    9 ar  
    18    8   11 ar  
    19    8   13 1   
    20    9   17 1   
    21   10   11 ar  
    22   10   27 1   
    23   11   28 1   
    24   12   23 1   
    25   12   25 2   
    26   13   24 1   
    27   13   26 2   
    28   14   27 1   
    29   14   28 1   
    30   14   35 1   
    31   14   36 1   
    32   15   20 1   
    33   15   37 1   
    34   15   38 1   
    35   15   39 1   
    36   16   20 1   
    37   16   41 1   
    38   16   42 1   
    39   16   43 1   
    40   17   21 1   
    41   17   32 1   
    42   17   33 1   
    43   18   20 1   
    44   18   21 1   
    45   18   45 1   
    46   18   46 1   
    47   19   21 1   
    48   19   23 1   
    49   19   47 1   
    50   19   48 1   
    51   20   40 1   
    52   21   44 1   
    53   23   51 1   
    54   24   34 1   
@<TRIPOS>SUBSTRUCTURE
     1 S3G         1 TEMP              0 ****  ****    0 ROOT
