@<TRIPOS>MOLECULE
S3G
   52    54     1     0     0
SMALL
bcc


@<TRIPOS>ATOM
      1 C1         -0.1560    0.1270   -0.1890 ca        1 S3G     -0.133000
      2 C2          1.2320    0.2860   -0.3380 ca        1 S3G     -0.070000
      3 C3         -1.5620    6.6600   -1.3930 ca        1 S3G     -0.212300
      4 C4         -2.3650    6.3150    0.8540 ca        1 S3G     -0.212300
      5 C5         -1.5710    8.0410   -1.1260 ca        1 S3G      0.389200
      6 C6         -2.3330    7.7120    1.0200 ca        1 S3G      0.389200
      7 C7         -1.9740    5.7860   -0.3800 ca        1 S3G     -0.101600
      8 C8         -0.1060    0.7510    2.1780 ca        1 S3G     -0.154600
      9 C9         -0.8220    0.3450    1.0210 ca        1 S3G     -0.018300
     10 C10         1.9220    0.6800    0.7890 ca        1 S3G      0.050100
     11 C11         1.2620    0.9150    2.0210 ca        1 S3G      0.080100
     12 C12        -1.9510    4.3160   -0.6460 c         1 S3G      0.664700
     13 C13        -0.7590    0.9670    3.4810 c         1 S3G      0.657700
     14 C14         3.4910    1.3130    2.3160 c3        1 S3G      0.326200
     15 C15        -6.8200    1.8320    2.1160 c3        1 S3G     -0.093100
     16 C16        -4.9090    3.2020    2.9090 c3        1 S3G     -0.093100
     17 C17        -2.2960    0.1270    1.0770 c3        1 S3G     -0.051100
     18 C18        -4.5130    1.1040    1.5760 c3        1 S3G     -0.078400
     19 C19        -3.0450    2.1390   -0.2230 c3        1 S3G      0.084000
     20 C20        -5.4150    2.3090    1.7950 c3        1 S3G     -0.067700
     21 C21        -3.0910    1.4320    1.1450 c3        1 S3G     -0.079700
     22 N22        -1.9490    8.5690    0.0540 nb        1 S3G     -0.650000
     23 N23        -3.0060    3.5740   -0.1570 n         1 S3G     -0.560900
     24 O24        -0.2830    1.9300    4.3240 oh        1 S3G     -0.578100
     25 O25        -1.0400    3.7980   -1.3250 o         1 S3G     -0.601100
     26 O26        -1.7340    0.3690    3.9410 o         1 S3G     -0.497000
     27 O27         3.2850    0.9140    0.9430 os        1 S3G     -0.326900
     28 O28         2.1970    1.3120    2.9710 os        1 S3G     -0.350900
     29 H1         -0.7390   -0.1800   -1.0730 ha        1 S3G      0.149000
     30 H2          1.7330    0.1120   -1.2990 ha        1 S3G      0.165000
     31 H6         -2.6310    8.1720    1.9790 h4        1 S3G      0.028100
     32 H171       -2.6300   -0.4580    0.1790 hc        1 S3G      0.072200
     33 H172       -2.5340   -0.4920    1.9870 hc        1 S3G      0.072200
     34 H23         0.5160    2.3410    3.9630 ho        1 S3G      0.441000
     35 H141        4.1410    0.5550    2.8180 h2        1 S3G      0.080200
     36 H142        3.8940    2.3550    2.3320 h2        1 S3G      0.080200
     37 H151       -7.2130    1.1920    1.2900 hc        1 S3G      0.036033
     38 H152       -6.8240    1.2350    3.0600 hc        1 S3G      0.036033
     39 H153       -7.5040    2.7050    2.2460 hc        1 S3G      0.036033
     40 H20        -5.4670    2.9060    0.8420 hc        1 S3G      0.038700
     41 H161       -3.9380    3.6780    2.6320 hc        1 S3G      0.036033
     42 H162       -4.7540    2.6110    3.8440 hc        1 S3G      0.036033
     43 H163       -5.6490    4.0120    3.1210 hc        1 S3G      0.036033
     44 H21        -2.6190    2.0780    1.9390 hc        1 S3G      0.062700
     45 H181       -4.9830    0.4400    0.8020 hc        1 S3G      0.051200
     46 H182       -4.4640    0.5200    2.5360 hc        1 S3G      0.051200
     47 H191       -2.1340    1.7870   -0.7910 h1        1 S3G      0.064200
     48 H192       -3.9590    1.8420   -0.8150 h1        1 S3G      0.064200
     49 H3         -1.2280    6.2700   -2.3650 ha        1 S3G      0.156000
     50 H5         -1.2560    8.7660   -1.8990 h4        1 S3G      0.028100
     51 H232       -3.6670    4.0160    0.4390 hn        1 S3G      0.313500
     52 H4         -2.6770    5.6720    1.6880 ha        1 S3G      0.156000
@<TRIPOS>BOND
     1    1    2 ar  
     2    1    9 ar  
     3    1   29 1   
     4    2   10 ar  
     5    2   30 1   
     6    3    5 ar  
     7    3    7 ar  
     8    3   49 1   
     9    4    6 ar  
    10    4    7 ar  
    11    4   52 1   
    12    5   22 ar  
    13    5   50 1   
    14    6   22 ar  
    15    6   31 1   
    16    7   12 1   
    17    8    9 ar  
    18    8   11 ar  
    19    8   13 1   
    20    9   17 1   
    21   10   11 ar  
    22   10   27 1   
    23   11   28 1   
    24   12   23 1   
    25   12   25 2   
    26   13   24 1   
    27   13   26 2   
    28   14   27 1   
    29   14   28 1   
    30   14   35 1   
    31   14   36 1   
    32   15   20 1   
    33   15   37 1   
    34   15   38 1   
    35   15   39 1   
    36   16   20 1   
    37   16   41 1   
    38   16   42 1   
    39   16   43 1   
    40   17   21 1   
    41   17   32 1   
    42   17   33 1   
    43   18   20 1   
    44   18   21 1   
    45   18   45 1   
    46   18   46 1   
    47   19   21 1   
    48   19   23 1   
    49   19   47 1   
    50   19   48 1   
    51   20   40 1   
    52   21   44 1   
    53   23   51 1   
    54   24   34 1   
@<TRIPOS>SUBSTRUCTURE
     1 S3G         1 TEMP              0 ****  ****    0 ROOT
