@<TRIPOS>MOLECULE
S3G
   51    47     1     0     0
SMALL
bcc


@<TRIPOS>ATOM
      1 C1          1.8160   -1.5860   -0.6530 c1        1 S3G     -0.088500
      2 C2          3.1530   -1.6430   -0.2870 c1        1 S3G     -0.079500
      3 C3          1.0270    3.6950   -3.5740 c1        1 S3G     -0.066000
      4 C4          1.4850    3.7450   -1.2570 c1        1 S3G     -0.078500
      5 C5          1.8200    4.8070   -3.7530 c1        1 S3G     -0.066000
      6 C6          2.2850    4.8670   -1.4410 c1        1 S3G      0.291300
      7 C7          0.8630    3.1690   -2.3240 cg        1 S3G     -0.049200
      8 C8          1.1790   -2.4540    1.5160 cg        1 S3G     -0.042200
      9 C9          0.8210   -1.9930    0.2510 c1        1 S3G     -0.029100
     10 C10         3.5150   -2.1130    1.0010 c1        1 S3G      0.018600
     11 C11         2.5390   -2.5120    1.8890 c1        1 S3G      0.049600
     12 C12         0.0240    1.8940   -2.4980 c         1 S3G      0.605300
     13 C13         0.1290   -3.0010    2.4370 c         1 S3G      0.877800
     14 C14         4.5350   -2.7100    2.9330 c3        1 S3G      0.319200
     15 C15        -4.5400    0.7840    0.7040 c3        1 S3G     -0.090600
     16 C16        -3.4610   -0.5560    2.4910 c3        1 S3G     -0.090600
     17 C17        -0.6350   -2.1250   -0.2260 c3        1 S3G     -0.062300
     18 C18        -2.7920   -0.9320    0.1050 c3        1 S3G     -0.065400
     19 C19        -1.1330   -0.0800   -1.5150 c3        1 S3G      0.094000
     20 C20        -3.2410    0.1230    1.1620 c3        1 S3G     -0.071700
     21 C21        -1.3070   -0.7600   -0.1880 c3        1 S3G     -0.096700
     22 N22         2.4460    5.3860   -2.6780 n1        1 S3G     -0.473800
     23 N23        -0.3240    1.0990   -1.3510 n         1 S3G     -0.534900
     24 O24        -0.2990   -2.3010    3.3790 o         1 S3G     -0.822800
     25 O25        -0.3200    1.5370   -3.6140 o         1 S3G     -0.658100
     26 O26        -0.2460   -4.1870    2.3210 o         1 S3G     -0.822800
     27 O27         4.7550   -2.1840    1.6610 os        1 S3G     -0.338400
     28 O28         3.1780   -2.9340    3.0770 os        1 S3G     -0.300400
     29 H1          1.5750   -1.3410   -1.5570 ha        1 S3G      0.061500
     30 H2          3.8560   -1.4560   -0.9580 ha        1 S3G      0.075500
     31 H3          0.5030    3.3550   -4.3100 ha        1 S3G      0.091500
     32 H5          1.9390    5.1880   -4.6600 ha        1 S3G      0.091500
     33 H4          1.3660    3.3650   -0.3530 ha        1 S3G      0.162500
     34 H6          2.7960    5.2390   -0.6800 ha        1 S3G      0.101500
     35 H171       -1.1160   -2.7400    0.3600 hc        1 S3G      0.048700
     36 H172       -0.6490   -2.4800   -1.1640 hc        1 S3G      0.048700
     37 H23        -0.0270    1.3380   -0.5200 hn        1 S3G      0.364500
     38 H141        5.0140   -3.5420    3.0290 h2        1 S3G      0.053700
     39 H142        4.8390   -2.0750    3.6090 h2        1 S3G      0.053700
     40 H151       -5.2700    0.1330    0.7390 hc        1 S3G      0.031033
     41 H152       -4.4330    1.1090   -0.2210 hc        1 S3G      0.031033
     42 H153       -4.7500    1.5510    1.3040 hc        1 S3G      0.031033
     43 H20        -2.5140    0.8350    1.2600 hc        1 S3G      0.059700
     44 H161       -2.6050   -0.8840    2.8350 hc        1 S3G      0.031033
     45 H162       -4.0920   -1.3260    2.3740 hc        1 S3G      0.031033
     46 H163       -3.8340    0.0720    3.1110 hc        1 S3G      0.031033
     47 H21        -0.8890   -0.2040    0.5290 hc        1 S3G      0.113700
     48 H181       -3.3130   -0.8030   -0.7300 hc        1 S3G      0.032700
     49 H182       -2.9560   -1.8510    0.4610 hc        1 S3G      0.032700
     50 H191       -0.6890   -0.6990   -2.1480 h1        1 S3G      0.045700
     51 H192       -2.0270    0.1790   -1.8750 h1        1 S3G      0.045700
@<TRIPOS>BOND
     1    1    9 3   
     2    1   29 1   
     3    2   10 3   
     4    2   30 1   
     5    3    5 3   
     6    3   31 1   
     7    4    7 3   
     8    4   33 1   
     9    5   32 1   
    10    6   22 3   
    11    6   34 1   
    12    7   12 1   
    13    8   11 3   
    14    8   13 1   
    15    9   17 1   
    16   10   27 1   
    17   11   28 1   
    18   12   23 1   
    19   12   25 2   
    20   13   24 1   
    21   13   26 1   
    22   14   27 1   
    23   14   28 1   
    24   14   38 1   
    25   14   39 1   
    26   15   20 1   
    27   15   40 1   
    28   15   41 1   
    29   15   42 1   
    30   16   20 1   
    31   16   44 1   
    32   16   45 1   
    33   16   46 1   
    34   17   21 1   
    35   17   35 1   
    36   17   36 1   
    37   18   20 1   
    38   18   21 1   
    39   18   48 1   
    40   18   49 1   
    41   19   21 1   
    42   19   23 1   
    43   19   50 1   
    44   19   51 1   
    45   20   43 1   
    46   21   47 1   
    47   23   37 1   
@<TRIPOS>SUBSTRUCTURE
     1 S3G         1 TEMP              0 ****  ****    0 ROOT
