@<TRIPOS>MOLECULE
S3G
   52    54     1     0     0
SMALL
bcc


@<TRIPOS>ATOM
      1 C1         -0.1490    0.1230   -0.1700 ca        1 S3G     -0.133000
      2 C2          1.2380    0.2850   -0.3210 ca        1 S3G     -0.070000
      3 C3         -1.5730    6.6430   -1.4200 ca        1 S3G     -0.212300
      4 C4         -2.3780    6.3120    0.8280 ca        1 S3G     -0.212300
      5 C5         -1.5870    8.0270   -1.1640 ca        1 S3G      0.389200
      6 C6         -2.3510    7.7110    0.9830 ca        1 S3G      0.389200
      7 C7         -1.9840    5.7750   -0.4020 ca        1 S3G     -0.101600
      8 C8         -0.0990    0.7660    2.1920 ca        1 S3G     -0.154600
      9 C9         -0.8150    0.3490    1.0380 ca        1 S3G     -0.018300
     10 C10         1.9280    0.6910    0.8020 ca        1 S3G      0.050100
     11 C11         1.2680    0.9340    2.0330 ca        1 S3G      0.080100
     12 C12        -1.9560    4.3030   -0.6560 c         1 S3G      0.664700
     13 C13        -0.7520    0.9910    3.4940 c         1 S3G      0.657700
     14 C14         3.4960    1.3400    2.3230 c3        1 S3G      0.326200
     15 C15        -6.8170    1.8250    2.1230 c3        1 S3G     -0.093100
     16 C16        -4.9110    3.2070    2.9060 c3        1 S3G     -0.093100
     17 C17        -2.2880    0.1270    1.0970 c3        1 S3G     -0.051100
     18 C18        -4.5090    1.1000    1.5890 c3        1 S3G     -0.078400
     19 C19        -3.0430    2.1260   -0.2170 c3        1 S3G      0.084000
     20 C20        -5.4140    2.3040    1.7990 c3        1 S3G     -0.067700
     21 C21        -3.0870    1.4290    1.1560 c3        1 S3G     -0.079700
     22 N22        -1.9680    8.5620    0.0120 nb        1 S3G     -0.650000
     23 N23        -3.0090    3.5620   -0.1620 n         1 S3G     -0.560900
     24 O24        -0.2780    1.9630    4.3280 oh        1 S3G     -0.578100
     25 O25        -1.0430    3.7840   -1.3300 o         1 S3G     -0.601100
     26 O26        -1.7250    0.3930    3.9590 o         1 S3G     -0.497000
     27 O27         3.2900    0.9300    0.9530 os        1 S3G     -0.326900
     28 O28         2.2030    1.3410    2.9780 os        1 S3G     -0.350900
     29 H1         -0.7320   -0.1930   -1.0510 ha        1 S3G      0.149000
     30 H2          1.7390    0.1060   -1.2820 ha        1 S3G      0.165000
     31 H6         -2.6510    8.1770    1.9400 h4        1 S3G      0.028100
     32 H171       -2.5230   -0.4860    2.0130 hc        1 S3G      0.072200
     33 H172       -2.6210   -0.4670    0.2040 hc        1 S3G      0.072200
     34 H23        -3.6720    4.0070    0.4290 hn        1 S3G      0.313500
     35 H141        4.1490    0.5880    2.8300 h2        1 S3G      0.080200
     36 H142        3.8960    2.3840    2.3300 h2        1 S3G      0.080200
     37 H151       -6.8190    1.2350    3.0710 hc        1 S3G      0.036033
     38 H152       -7.2080    1.1780    1.3020 hc        1 S3G      0.036033
     39 H153       -7.5040    2.6960    2.2470 hc        1 S3G      0.036033
     40 H20        -5.4680    2.8930    0.8410 hc        1 S3G      0.038700
     41 H161       -3.9420    3.6840    2.6260 hc        1 S3G      0.036033
     42 H162       -4.7550    2.6230    3.8460 hc        1 S3G      0.036033
     43 H163       -5.6540    4.0160    3.1110 hc        1 S3G      0.036033
     44 H21        -2.6170    2.0830    1.9440 hc        1 S3G      0.062700
     45 H181       -4.9760    0.4280    0.8200 hc        1 S3G      0.051200
     46 H182       -4.4580    0.5240    2.5530 hc        1 S3G      0.051200
     47 H191       -3.9560    1.8220   -0.8070 h1        1 S3G      0.064200
     48 H192       -2.1310    1.7730   -0.7830 h1        1 S3G      0.064200
     49 H3         -1.2370    6.2470   -2.3890 ha        1 S3G      0.156000
     50 H5         -1.2730    8.7460   -1.9410 h4        1 S3G      0.028100
     51 H232        0.5190    2.3730    3.9640 ho        1 S3G      0.441000
     52 H4         -2.6890    5.6740    1.6670 ha        1 S3G      0.156000
@<TRIPOS>BOND
     1    1    2 ar  
     2    1    9 ar  
     3    1   29 1   
     4    2   10 ar  
     5    2   30 1   
     6    3    5 ar  
     7    3    7 ar  
     8    3   49 1   
     9    4    6 ar  
    10    4    7 ar  
    11    4   52 1   
    12    5   22 ar  
    13    5   50 1   
    14    6   22 ar  
    15    6   31 1   
    16    7   12 1   
    17    8    9 ar  
    18    8   11 ar  
    19    8   13 1   
    20    9   17 1   
    21   10   11 ar  
    22   10   27 1   
    23   11   28 1   
    24   12   23 1   
    25   12   25 2   
    26   13   24 1   
    27   13   26 2   
    28   14   27 1   
    29   14   28 1   
    30   14   35 1   
    31   14   36 1   
    32   15   20 1   
    33   15   37 1   
    34   15   38 1   
    35   15   39 1   
    36   16   20 1   
    37   16   41 1   
    38   16   42 1   
    39   16   43 1   
    40   17   21 1   
    41   17   32 1   
    42   17   33 1   
    43   18   20 1   
    44   18   21 1   
    45   18   45 1   
    46   18   46 1   
    47   19   21 1   
    48   19   23 1   
    49   19   47 1   
    50   19   48 1   
    51   20   40 1   
    52   21   44 1   
    53   23   34 1   
    54   24   51 1   
@<TRIPOS>SUBSTRUCTURE
     1 S3G         1 TEMP              0 ****  ****    0 ROOT
