@<TRIPOS>MOLECULE
S3G
   51    53     1     0     0
SMALL
bcc


@<TRIPOS>ATOM
      1 C1          2.1650    0.5180   -1.6810 ca        1 S3G     -0.146000
      2 C2          2.7770    1.7220   -1.2910 ca        1 S3G     -0.136000
      3 C3         -3.8020    3.2140   -0.0290 ca        1 S3G     -0.202800
      4 C4         -2.5470    1.9230    1.5750 ca        1 S3G     -0.202800
      5 C5         -4.0820    4.1290    0.9970 ca        1 S3G      0.365200
      6 C6         -2.8900    2.9020    2.5310 ca        1 S3G      0.365200
      7 C7         -3.0150    2.0920    0.2680 ca        1 S3G     -0.100600
      8 C8          1.4360   -0.0000    0.6040 ca        1 S3G     -0.096600
      9 C9          1.5200   -0.3280   -0.7740 ca        1 S3G     -0.061300
     10 C10         2.7080    2.0260    0.0510 ca        1 S3G      0.034100
     11 C11         2.0470    1.1810    0.9800 ca        1 S3G      0.067100
     12 C12        -2.7390    1.1170   -0.8330 c         1 S3G      0.657700
     13 C13         0.6830   -0.8850    1.5830 c         1 S3G      0.928200
     14 C14         2.8670    2.9840    2.1080 c3        1 S3G      0.319200
     15 C15        -1.7590   -5.4730   -1.4160 c3        1 S3G     -0.097600
     16 C16        -0.0050   -4.5820    0.1080 c3        1 S3G     -0.097600
     17 C17         0.9880   -1.6290   -1.2700 c3        1 S3G     -0.028100
     18 C18        -0.9210   -3.1580   -1.7560 c3        1 S3G     -0.063400
     19 C19        -1.3100   -0.6620   -1.7240 c3        1 S3G      0.099000
     20 C20        -1.2230   -4.2360   -0.7220 c3        1 S3G     -0.068700
     21 C21        -0.5170   -1.8320   -1.1170 c3        1 S3G     -0.095700
     22 N22        -3.6390    3.9870    2.2640 nb        1 S3G     -0.674000
     23 N23        -1.5760    0.3930   -0.7770 n         1 S3G     -0.537900
     24 O24        -0.4960   -0.5250    1.8830 o         1 S3G     -0.824300
     25 O25        -3.5310    1.0260   -1.8030 o         1 S3G     -0.658100
     26 O26         1.2290   -1.9390    1.9970 o         1 S3G     -0.824300
     27 O27         3.2250    3.1380    0.7170 os        1 S3G     -0.353900
     28 O28         2.1370    1.7520    2.2520 os        1 S3G     -0.316900
     29 H1          2.2000    0.2410   -2.7450 ha        1 S3G      0.120000
     30 H2          3.2770    2.3750   -2.0140 ha        1 S3G      0.133000
     31 H4         -1.9240    1.0580    1.8790 ha        1 S3G      0.187500
     32 H6         -2.5360    2.8020    3.5730 h4        1 S3G      0.014100
     33 H171        1.2620   -1.7520   -2.3530 hc        1 S3G      0.049700
     34 H172        1.4990   -2.4500   -0.6890 hc        1 S3G      0.049700
     35 H23        -1.0470    0.3740    0.0800 hn        1 S3G      0.363500
     36 H141        3.8060    2.9190    2.7110 h2        1 S3G      0.054200
     37 H142        2.2030    3.8340    2.4010 h2        1 S3G      0.054200
     38 H151       -2.0150   -6.2580   -0.6650 hc        1 S3G      0.034200
     39 H152       -2.6780   -5.2290   -2.0020 hc        1 S3G      0.034200
     40 H153       -0.9950   -5.8910   -2.1160 hc        1 S3G      0.034200
     41 H20        -2.0220   -3.8450   -0.0290 hc        1 S3G      0.056700
     42 H161        0.8460   -4.8800   -0.5490 hc        1 S3G      0.034200
     43 H162        0.3140   -3.7050    0.7340 hc        1 S3G      0.034200
     44 H163       -0.2370   -5.4330    0.7920 hc        1 S3G      0.034200
     45 H21        -0.7460   -1.8950   -0.0090 hc        1 S3G      0.114700
     46 H181       -0.1070   -3.5260   -2.4360 hc        1 S3G      0.029700
     47 H182       -1.8340   -3.0200   -2.3940 hc        1 S3G      0.029700
     48 H191       -0.7240   -0.2240   -2.5840 h1        1 S3G      0.041200
     49 H192       -2.2920   -1.0300   -2.1420 h1        1 S3G      0.041200
     50 H3         -4.1930    3.3580   -1.0460 ha        1 S3G      0.187500
     51 H5         -4.6950    5.0250    0.8010 h4        1 S3G      0.014100
@<TRIPOS>BOND
     1    1    2 ar  
     2    1    9 ar  
     3    1   29 1   
     4    2   10 ar  
     5    2   30 1   
     6    3    5 ar  
     7    3    7 ar  
     8    3   50 1   
     9    4    6 ar  
    10    4    7 ar  
    11    4   31 1   
    12    5   22 ar  
    13    5   51 1   
    14    6   22 ar  
    15    6   32 1   
    16    7   12 1   
    17    8    9 ar  
    18    8   11 ar  
    19    8   13 1   
    20    9   17 1   
    21   10   11 ar  
    22   10   27 1   
    23   11   28 1   
    24   12   23 1   
    25   12   25 2   
    26   13   24 1   
    27   13   26 1   
    28   14   27 1   
    29   14   28 1   
    30   14   36 1   
    31   14   37 1   
    32   15   20 1   
    33   15   38 1   
    34   15   39 1   
    35   15   40 1   
    36   16   20 1   
    37   16   42 1   
    38   16   43 1   
    39   16   44 1   
    40   17   21 1   
    41   17   33 1   
    42   17   34 1   
    43   18   20 1   
    44   18   21 1   
    45   18   46 1   
    46   18   47 1   
    47   19   21 1   
    48   19   23 1   
    49   19   48 1   
    50   19   49 1   
    51   20   41 1   
    52   21   45 1   
    53   23   35 1   
@<TRIPOS>SUBSTRUCTURE
     1 S3G         1 TEMP              0 ****  ****    0 ROOT
