@<TRIPOS>MOLECULE
S3H
    5     4     1     0     0
SMALL
bcc


@<TRIPOS>ATOM
      1 S3          1.7270   -0.3650   -0.0000 sh        1 S3H     -0.159800
      2 S2          0.0000    0.2060   -0.0000 ss        1 S3H      0.009000
      3 S1         -1.7270   -0.3650   -0.0000 sh        1 S3H     -0.159800
      4 HS3         2.5740    0.6520    0.0000 hs        1 S3H      0.154800
      5 HS1        -2.5740    0.6530    0.0000 hs        1 S3H      0.154800
@<TRIPOS>BOND
     1    1    2 1   
     2    1    4 1   
     3    2    3 1   
     4    3    5 1   
@<TRIPOS>SUBSTRUCTURE
     1 S3H         1 TEMP              0 ****  ****    0 ROOT
