@<TRIPOS>MOLECULE
S3H
    5     4     1     0     0
SMALL
bcc


@<TRIPOS>ATOM
      1 S3         -0.1020   -0.0000   -0.0490 sh        1 S3H     -0.159800
      2 S2          1.6190   -0.0000    0.5390 ss        1 S3H      0.009000
      3 S1          2.6510   -0.0000    2.0370 sh        1 S3H     -0.159800
      4 HS3        -0.1620    0.0000   -1.3720 hs        1 S3H      0.154800
      5 HS1         3.9410    0.0000    1.7380 hs        1 S3H      0.154800
@<TRIPOS>BOND
     1    1    2 1   
     2    1    4 1   
     3    2    3 1   
     4    3    5 1   
@<TRIPOS>SUBSTRUCTURE
     1 S3H         1 TEMP              0 ****  ****    0 ROOT
