@<TRIPOS>MOLECULE
S3P
   24    24     1     0     0
SMALL
bcc


@<TRIPOS>ATOM
      1 C1         -0.3250    0.0800    2.1750 ce        1 S3P     -0.240400
      2 C2         -0.6890    0.0730    0.8840 c2        1 S3P     -0.121200
      3 C3          0.2420   -0.0820   -0.2890 c3        1 S3P      0.197300
      4 C4          1.7220    0.1790    0.1180 c3        1 S3P      0.094100
      5 C5          2.0710   -0.3760    1.5060 c3        1 S3P      0.138100
      6 C6          1.1020    0.0610    2.5940 c3        1 S3P     -0.033200
      7 C7         -1.3030    0.1550    3.3220 c         1 S3P      0.905800
      8 O1         -0.0950    0.7600   -1.3260 os        1 S3P     -0.567200
      9 O2          2.0550    1.5600    0.1100 oh        1 S3P     -0.655800
     10 O3          2.1710   -1.7980    1.4520 oh        1 S3P     -0.648800
     11 O4         -0.8570    0.3500    4.5030 o         1 S3P     -0.888300
     12 O5         -2.5490    0.0120    3.1230 o         1 S3P     -0.888300
     13 P1         -0.2110    0.0700   -2.9270 p5        1 S3P      1.315900
     14 O6         -0.2510   -1.4160   -2.6730 o         1 S3P     -0.933167
     15 O7         -1.4770    0.6790   -3.4650 o         1 S3P     -0.933167
     16 O8          1.0650    0.5730   -3.5510 o         1 S3P     -0.933167
     17 H2         -1.7540    0.1510    0.6090 ha        1 S3P      0.137000
     18 H3          0.1730   -1.1640   -0.6380 h1        1 S3P      0.074700
     19 H4          2.3900   -0.3290   -0.6380 h1        1 S3P      0.035700
     20 H5          3.1160   -0.0510    1.7820 h1        1 S3P      0.018700
     21 H61         1.2200   -0.6100    3.4860 hc        1 S3P      0.034200
     22 H62         1.3810    1.1000    2.9190 hc        1 S3P      0.034200
     23 HO2         1.4360    1.9730   -0.5140 ho        1 S3P      0.444000
     24 HO3         1.3300   -2.1110    1.0920 ho        1 S3P      0.414000
@<TRIPOS>BOND
     1    1    2 2   
     2    1    6 1   
     3    1    7 1   
     4    2    3 1   
     5    2   17 1   
     6    3    4 1   
     7    3    8 1   
     8    3   18 1   
     9    4    5 1   
    10    4    9 1   
    11    4   19 1   
    12    5    6 1   
    13    5   10 1   
    14    5   20 1   
    15    6   21 1   
    16    6   22 1   
    17    7   11 1   
    18    7   12 1   
    19    8   13 1   
    20    9   23 1   
    21   10   24 1   
    22   13   14 1   
    23   13   15 1   
    24   13   16 1   
@<TRIPOS>SUBSTRUCTURE
     1 S3P         1 TEMP              0 ****  ****    0 ROOT
