@<TRIPOS>MOLECULE
S3P
   24    24     1     0     0
SMALL
bcc


@<TRIPOS>ATOM
      1 C1         -0.0800   -0.1150   -0.0240 ce        1 S3P     -0.240400
      2 C2          1.2620   -0.1300   -0.0000 c2        1 S3P     -0.121200
      3 C3          2.1180   -0.0920    1.2390 c3        1 S3P      0.197300
      4 C4          1.3060    0.3840    2.4790 c3        1 S3P      0.094100
      5 C5         -0.1290   -0.1610    2.5040 c3        1 S3P      0.138100
      6 C6         -0.8900    0.0770    1.2080 c3        1 S3P     -0.033200
      7 C7         -0.8970   -0.2380   -1.2860 c         1 S3P      0.905800
      8 O1          3.2150    0.7250    1.0780 os        1 S3P     -0.567200
      9 O2          1.2310    1.7990    2.5730 oh        1 S3P     -0.655800
     10 O3         -0.1190   -1.5470    2.8440 oh        1 S3P     -0.648800
     11 O4         -2.1540   -0.0200   -1.2330 o         1 S3P     -0.888300
     12 O5         -0.3500   -0.5670   -2.3840 o         1 S3P     -0.888300
     13 P1          4.7760    0.0860    1.5350 p5        1 S3P      1.315900
     14 O6          5.6600    0.5080    0.3940 o         1 S3P     -0.933167
     15 O7          5.0120    0.8060    2.8370 o         1 S3P     -0.933167
     16 O8          4.5300   -1.3970    1.6650 o         1 S3P     -0.933167
     17 H2          1.8310   -0.2100   -0.9410 ha        1 S3P      0.137000
     18 H3          2.4610   -1.1570    1.4480 h1        1 S3P      0.074700
     19 H4          1.8340    0.0160    3.4070 h1        1 S3P      0.035700
     20 H5         -0.6900    0.3140    3.3600 h1        1 S3P      0.018700
     21 H61        -1.2710    1.1330    1.2120 hc        1 S3P      0.033700
     22 H62        -1.7840   -0.6010    1.1750 hc        1 S3P      0.033700
     23 HO2         2.0100    2.1330    2.0980 ho        1 S3P      0.444000
     24 HO3         0.4630   -1.9740    2.2020 ho        1 S3P      0.414000
@<TRIPOS>BOND
     1    1    2 2   
     2    1    6 1   
     3    1    7 1   
     4    2    3 1   
     5    2   17 1   
     6    3    4 1   
     7    3    8 1   
     8    3   18 1   
     9    4    5 1   
    10    4    9 1   
    11    4   19 1   
    12    5    6 1   
    13    5   10 1   
    14    5   20 1   
    15    6   21 1   
    16    6   22 1   
    17    7   11 1   
    18    7   12 1   
    19    8   13 1   
    20    9   23 1   
    21   10   24 1   
    22   13   14 1   
    23   13   15 1   
    24   13   16 1   
@<TRIPOS>SUBSTRUCTURE
     1 S3P         1 TEMP              0 ****  ****    0 ROOT
