@<TRIPOS>MOLECULE
S41
   54    57     1     0     0
SMALL
bcc


@<TRIPOS>ATOM
      1 C1          0.0070    0.9220    2.1190 ca        1 S41      0.042100
      2 C2          1.3160    1.5060    2.2490 ca        1 S41     -0.019800
      3 C3          1.7210    1.8800    3.5360 ca        1 S41      0.073100
      4 C4          0.8670    1.6930    4.6230 ca        1 S41     -0.060000
      5 C5         -0.4180    1.1350    4.4410 ca        1 S41     -0.194600
      6 C6         -0.8680    0.7270    3.1750 ca        1 S41     -0.042000
      7 O7         -0.2390    0.6080    0.7850 os        1 S41     -0.173200
      8 C8          0.9080    1.0080    0.0720 cc        1 S41      0.140900
      9 C9          1.8640    1.5470    0.9180 cd        1 S41     -0.215200
     10 C10         0.8550    0.7890   -1.3750 c3        1 S41     -0.071900
     11 C11        -1.2280    0.9900    5.6520 c         1 S41      0.585700
     12 O12         2.8970    2.6130    3.7280 os        1 S41     -0.197200
     13 O13        -0.8430    0.8400    6.8020 o         1 S41     -0.413100
     14 N14        -2.7390    1.1200    5.4880 n4        1 S41     -0.642500
     15 C15         4.0440    1.9050    3.9860 ca        1 S41     -0.048500
     16 C16         4.1810    0.4980    4.0030 ca        1 S41      0.399700
     17 N17         5.3560   -0.0940    4.2860 nb        1 S41     -0.616500
     18 C18         6.4050    0.7410    4.5500 ca        1 S41      0.514500
     19 N19         6.3820    2.1130    4.5280 nb        1 S41     -0.616500
     20 C20         5.2070    2.6900    4.2510 ca        1 S41      0.399700
     21 C21         7.6850    0.0720    4.9590 c         1 S41      0.478600
     22 N22         8.9590    0.7440    4.4790 n4        1 S41     -0.577200
     23 O23         7.7940   -0.9310    5.6400 o         1 S41     -0.365100
     24 C24         9.9050   -0.2680    3.9350 c3        1 S41      0.082100
     25 C25         9.5750    1.5000    5.6040 c3        1 S41      0.082100
     26 C26        -3.4310   -0.1580    5.7290 ca        1 S41      0.281900
     27 N27        -3.4250   -1.0860    4.7180 nb        1 S41     -0.622000
     28 C28        -4.0690   -2.2260    4.9630 ca        1 S41      0.309900
     29 C29        -4.7370   -2.4900    6.2150 ca        1 S41      0.400300
     30 N30        -4.7230   -1.5650    7.2020 nb        1 S41     -0.606000
     31 C31        -4.0770   -0.4050    6.9720 ca        1 S41      0.377900
     32 C32        -5.4450   -3.7850    6.3990 c3        1 S41     -0.176400
     33 H4          1.1940    1.9960    5.6340 ha        1 S41      0.179000
     34 H6         -1.8430    0.2460    2.9980 ha        1 S41      0.184000
     35 H9          2.8350    1.9490    0.6370 ha        1 S41      0.190000
     36 H10         1.8700    0.5110   -1.7570 hc        1 S41      0.092367
     37 H10A        0.1290   -0.0230   -1.6330 hc        1 S41      0.092367
     38 H10B        0.5250    1.7320   -1.8870 hc        1 S41      0.092367
     39 HN14       -2.9580    1.4640    4.5440 hn        1 S41      0.471800
     40 H16         3.3310   -0.1790    3.7890 h4        1 S41      0.074600
     41 H20         5.1680    3.7970    4.2360 h4        1 S41      0.074600
     42 H24        10.8490    0.2470    3.6110 hx        1 S41      0.113367
     43 H24A       10.1420   -1.0260    4.7310 hx        1 S41      0.113367
     44 H24B        9.4310   -0.7830    3.0580 hx        1 S41      0.113367
     45 H25         8.8590    2.2920    5.9540 hx        1 S41      0.113367
     46 H25A       10.5260    1.9820    5.2480 hx        1 S41      0.113367
     47 H25B        9.8050    0.7920    6.4460 hx        1 S41      0.113367
     48 H28        -4.0720   -2.9770    4.1490 h4        1 S41      0.074100
     49 H31        -4.0850    0.3230    7.8060 h4        1 S41      0.065100
     50 H32        -6.5540   -3.6110    6.4230 hc        1 S41      0.092367
     51 H32A       -5.2060   -4.4840    5.5610 hc        1 S41      0.092367
     52 H32B       -5.1550   -4.2660    7.3700 hc        1 S41      0.092367
     53 H142       -3.0890    1.7950    6.1820 hn        1 S41      0.471800
     54 H221        8.7270    1.4090    3.7290 hn        1 S41      0.466800
@<TRIPOS>BOND
     1    1    2 ar  
     2    1    6 ar  
     3    1    7 1   
     4    2    3 ar  
     5    2    9 1   
     6    3    4 ar  
     7    3   12 1   
     8    4    5 ar  
     9    4   33 1   
    10    5    6 ar  
    11    5   11 1   
    12    6   34 1   
    13    7    8 1   
    14    8    9 2   
    15    8   10 1   
    16    9   35 1   
    17   10   36 1   
    18   10   37 1   
    19   10   38 1   
    20   11   13 2   
    21   11   14 1   
    22   12   15 1   
    23   14   26 1   
    24   14   39 1   
    25   14   53 1   
    26   15   16 ar  
    27   15   20 ar  
    28   16   17 ar  
    29   16   40 1   
    30   17   18 ar  
    31   18   19 ar  
    32   18   21 1   
    33   19   20 ar  
    34   20   41 1   
    35   21   22 1   
    36   21   23 2   
    37   22   24 1   
    38   22   25 1   
    39   22   54 1   
    40   24   42 1   
    41   24   43 1   
    42   24   44 1   
    43   25   45 1   
    44   25   46 1   
    45   25   47 1   
    46   26   27 ar  
    47   26   31 ar  
    48   27   28 ar  
    49   28   29 ar  
    50   28   48 1   
    51   29   30 ar  
    52   29   32 1   
    53   30   31 ar  
    54   31   49 1   
    55   32   50 1   
    56   32   51 1   
    57   32   52 1   
@<TRIPOS>SUBSTRUCTURE
     1 S41         1 TEMP              0 ****  ****    0 ROOT
