@<TRIPOS>MOLECULE
S41
   52    44     1     0     0
SMALL
bcc


@<TRIPOS>ATOM
      1 C1         -1.8990    2.8610   -1.7030 c1        1 S41      0.086000
      2 C2         -0.5420    2.8460   -1.9450 c1        1 S41      0.091000
      3 C3          0.3620    2.6900   -0.8760 c1        1 S41     -0.056000
      4 C4         -0.1150    2.5510    0.4270 c1        1 S41     -0.231000
      5 C5         -1.4870    2.5660    0.6720 c1        1 S41      0.032000
      6 C6         -2.3820    2.7200   -0.3850 c1        1 S41     -0.190000
      7 O7         -2.5470    3.1450   -2.9030 o         1 S41     -0.139000
      8 C8         -1.5860    3.3040   -3.8800 c1        1 S41      0.055000
      9 C9         -0.3440    3.1210   -3.2940 c1        1 S41     -0.242000
     10 C10        -1.0430    3.8170   -5.2150 c2        1 S41     -0.175000
     11 C11        -0.8040    1.8750    1.8660 c2        1 S41      0.337000
     12 O12        -0.5630    1.7070   -1.3030 os        1 S41     -0.162000
     13 O13         0.4040    1.7420    1.8810 o         1 S41     -0.315000
     14 N14        -1.5810    1.4590    2.9920 n         1 S41     -0.301000
     15 C15         0.1080    0.4600   -1.4610 c2        1 S41     -0.019000
     16 C16         1.4650    0.3860   -1.2960 c2        1 S41     -0.045000
     17 N17         2.1050   -0.7780   -1.5030 n1        1 S41     -0.120000
     18 C18         1.4000   -1.8890   -1.8790 c1        1 S41     -0.035000
     19 N19         0.0470   -1.8170   -2.0440 n1        1 S41     -0.130000
     20 C20        -0.5960   -0.6530   -1.8370 c1        1 S41     -0.055000
     21 C21         2.1180   -3.2180   -2.0650 c2        1 S41      0.387000
     22 N22         1.3800   -4.3830   -2.4590 n         1 S41     -0.323000
     23 O23         3.3210   -3.2900   -1.8880 o         1 S41     -0.332000
     24 C24         0.7310   -4.4230   -3.7400 c3        1 S41     -0.075000
     25 C25         1.2520   -5.4910   -1.5540 c3        1 S41     -0.075000
     26 C26        -0.9360    0.8860    4.1330 c2        1 S41      0.057000
     27 N27         0.3210    1.2500    4.4450 n2        1 S41     -0.152000
     28 C28         0.9760    0.6220    5.4370 c1        1 S41     -0.092000
     29 C29         0.3550   -0.4020    6.1400 c1        1 S41     -0.079000
     30 N30        -0.9010   -0.7660    5.8290 n1        1 S41     -0.088000
     31 C31        -1.5570   -0.1380    4.8360 c1        1 S41     -0.114000
     32 C32         1.1010   -1.1180    7.2590 c3        1 S41     -0.165000
     33 H4          0.5110    2.4430    1.1650 ha        1 S41      0.170000
     34 H6         -3.3500    2.7300   -0.2120 ha        1 S41      0.184000
     35 H9          0.5240    3.1750   -3.7510 DU        1 S41      0.182000
     36 H10        -0.5660    4.6620   -5.0710 ha        1 S41      0.110667
     37 H10A       -0.4240    3.1520   -5.5940 ha        1 S41      0.110667
     38 H10B       -1.7890    3.9630   -5.8380 ha        1 S41      0.110667
     39 HN14       -2.4980    1.5120    2.9610 hn        1 S41      0.255000
     40 H16         1.9700    1.1820   -1.0270 h4        1 S41      0.186000
     41 H20        -1.5680   -0.6010   -1.9560 ha        1 S41      0.183000
     42 H24         0.9140   -3.5870   -4.2270 h1        1 S41      0.084667
     43 H24A       -0.2360   -4.5220   -3.6130 h1        1 S41      0.084667
     44 H24B        1.0740   -5.1850   -4.2560 h1        1 S41      0.084667
     45 H25         1.3040   -5.1660   -0.6290 h1        1 S41      0.084667
     46 H25A        0.3860   -5.9340   -1.6980 h1        1 S41      0.084667
     47 H25B        1.9800   -6.1330   -1.7170 h1        1 S41      0.084667
     48 H28         1.8930    0.8880    5.6640 ha        1 S41      0.172000
     49 H31        -2.4740   -0.4050    4.6090 ha        1 S41      0.208000
     50 H32         1.2340   -0.5000    8.0110 hc        1 S41      0.095667
     51 H32A        0.5770   -1.8920    7.5600 hc        1 S41      0.095667
     52 H32B        1.9750   -1.4230    6.9270 hc        1 S41      0.095667
@<TRIPOS>BOND
     1    1    6 1   
     2    2    3 1   
     3    3   12 1   
     4    4    5 1   
     5    4   33 1   
     6    5   11 1   
     7    6   34 1   
     8    7    8 1   
     9    8    9 1   
    10   10   36 1   
    11   10   37 1   
    12   10   38 1   
    13   11   13 1   
    14   11   14 1   
    15   12   15 1   
    16   14   26 1   
    17   14   39 1   
    18   15   16 1   
    19   15   20 1   
    20   16   17 1   
    21   16   40 1   
    22   18   19 1   
    23   18   21 1   
    24   20   41 1   
    25   21   22 1   
    26   21   23 1   
    27   22   24 1   
    28   22   25 1   
    29   24   42 1   
    30   24   43 1   
    31   24   44 1   
    32   25   45 1   
    33   25   46 1   
    34   25   47 1   
    35   26   27 1   
    36   26   31 1   
    37   27   28 1   
    38   28   48 1   
    39   29   30 1   
    40   29   32 1   
    41   31   49 1   
    42   32   50 1   
    43   32   51 1   
    44   32   52 1   
@<TRIPOS>SUBSTRUCTURE
     1 S41         1 TEMP              0 ****  ****    0 ROOT
