@<TRIPOS>MOLECULE
S41
   53    56     1     0     0
SMALL
bcc


@<TRIPOS>ATOM
      1 C1          0.4020   -0.5010    0.6360 ca        1 S41      0.055100
      2 C2          1.5080    0.3520    0.9580 ca        1 S41     -0.072800
      3 C3          1.4630    1.0150    2.1860 ca        1 S41      0.051100
      4 C4          0.3810    0.8370    3.0530 ca        1 S41     -0.101000
      5 C5         -0.6800   -0.0070    2.6890 ca        1 S41     -0.134600
      6 C6         -0.6950   -0.6890    1.4670 ca        1 S41     -0.037000
      7 O7          0.5920   -1.0720   -0.6210 os        1 S41     -0.179200
      8 C8          1.8200   -0.5660   -1.0950 cc        1 S41      0.096900
      9 C9          2.4010    0.2870   -0.1780 cd        1 S41     -0.209200
     10 C10         2.2140   -1.0280   -2.4280 c3        1 S41     -0.056900
     11 C11        -1.8770   -0.1470    3.5810 c         1 S41      0.681700
     12 O12         2.4100    2.0040    2.5030 os        1 S41     -0.188200
     13 O13        -3.0250   -0.0520    3.1280 o         1 S41     -0.512100
     14 N14        -1.5910   -0.4210    4.9170 ns        1 S41     -0.561400
     15 C15         3.5680    1.5820    3.0800 ca        1 S41     -0.012500
     16 C16         3.9070    0.2440    3.4100 ca        1 S41      0.381700
     17 N17         5.0810   -0.0690    3.9790 nb        1 S41     -0.618500
     18 C18         5.9340    0.9740    4.2260 ca        1 S41      0.487500
     19 N19         5.6950    2.3000    3.9590 nb        1 S41     -0.618500
     20 C20         4.5250    2.5990    3.3890 ca        1 S41      0.381700
     21 C21         7.2620    0.5990    4.8010 c         1 S41      0.483600
     22 N22         7.9550    1.6850    5.6140 nx        1 S41     -0.584200
     23 O23         7.8410   -0.4680    4.6940 o         1 S41     -0.380100
     24 C24         9.4230    1.4680    5.6640 c3        1 S41      0.086100
     25 C25         7.3730    1.7240    6.9810 c3        1 S41      0.086100
     26 C26        -2.5330   -0.4500    5.9620 ca        1 S41      0.400900
     27 N27        -3.6360    0.3620    5.9340 nb        1 S41     -0.626000
     28 C28        -4.4700    0.2690    6.9800 ca        1 S41      0.310900
     29 C29        -4.2490   -0.6050    8.0850 ca        1 S41      0.285300
     30 N30        -3.1450   -1.3930    8.1230 nb        1 S41     -0.611000
     31 C31        -2.3040   -1.3230    7.0820 ca        1 S41      0.254900
     32 C32        -5.2420   -0.6510    9.1940 c3        1 S41     -0.145400
     33 H4          0.3470    1.3950    4.0010 ha        1 S41      0.161000
     34 H6         -1.5470   -1.3240    1.1750 ha        1 S41      0.189000
     35 H9          3.3350    0.8310   -0.2870 ha        1 S41      0.172000
     36 H10         2.1780   -2.1460   -2.4800 hc        1 S41      0.077367
     37 H10A        1.5090   -0.6210   -3.1980 hc        1 S41      0.077367
     38 H10B        3.2500   -0.6800   -2.6600 hc        1 S41      0.077367
     39 HN14       -0.6690   -0.6990    5.1600 hn        1 S41      0.321500
     40 H16         3.2160   -0.5970    3.2010 h4        1 S41      0.076600
     41 H20         4.3190    3.6630    3.1600 h4        1 S41      0.076600
     42 H24         9.8970    2.2890    6.2650 hx        1 S41      0.107867
     43 H24A        9.6430    0.4730    6.1400 hx        1 S41      0.107867
     44 H24B        9.8320    1.4720    4.6180 hx        1 S41      0.107867
     45 H25         6.2700    1.9230    6.9080 hx        1 S41      0.107867
     46 H25A        7.5490    0.7390    7.4890 hx        1 S41      0.107867
     47 H25B        7.8650    2.5440    7.5700 hx        1 S41      0.107867
     48 H28        -5.3600    0.9230    6.9410 h4        1 S41      0.044100
     49 H31        -1.4190   -1.9800    7.1330 h4        1 S41      0.028100
     50 H32        -4.7400   -0.5420   10.1870 hc        1 S41      0.061033
     51 H32A       -5.9890    0.1720    9.0770 hc        1 S41      0.061033
     52 H32B       -5.7840   -1.6310    9.1820 hc        1 S41      0.061033
     53 H221        7.7810    2.5950    5.1590 hn        1 S41      0.476800
@<TRIPOS>BOND
     1    1    2 ar  
     2    1    6 ar  
     3    1    7 1   
     4    2    3 ar  
     5    2    9 1   
     6    3    4 ar  
     7    3   12 1   
     8    4    5 ar  
     9    4   33 1   
    10    5    6 ar  
    11    5   11 1   
    12    6   34 1   
    13    7    8 1   
    14    8    9 2   
    15    8   10 1   
    16    9   35 1   
    17   10   36 1   
    18   10   37 1   
    19   10   38 1   
    20   11   13 2   
    21   11   14 1   
    22   12   15 1   
    23   14   26 1   
    24   14   39 1   
    25   15   16 ar  
    26   15   20 ar  
    27   16   17 ar  
    28   16   40 1   
    29   17   18 ar  
    30   18   19 ar  
    31   18   21 1   
    32   19   20 ar  
    33   20   41 1   
    34   21   22 1   
    35   21   23 2   
    36   22   24 1   
    37   22   25 1   
    38   22   53 1   
    39   24   42 1   
    40   24   43 1   
    41   24   44 1   
    42   25   45 1   
    43   25   46 1   
    44   25   47 1   
    45   26   27 ar  
    46   26   31 ar  
    47   27   28 ar  
    48   28   29 ar  
    49   28   48 1   
    50   29   30 ar  
    51   29   32 1   
    52   30   31 ar  
    53   31   49 1   
    54   32   50 1   
    55   32   51 1   
    56   32   52 1   
@<TRIPOS>SUBSTRUCTURE
     1 S41         1 TEMP              0 ****  ****    0 ROOT
