@<TRIPOS>MOLECULE
S41
   52    55     1     0     0
SMALL
bcc


@<TRIPOS>ATOM
      1 C1         -3.9800    1.0020    0.0990 ca        1 S41      0.068100
      2 C2         -3.6650   -0.3580   -0.2190 ca        1 S41     -0.084800
      3 C3         -2.3800   -0.6320   -0.6970 ca        1 S41      0.125100
      4 C4         -1.4510    0.4040   -0.8300 ca        1 S41     -0.166000
      5 C5         -1.8020    1.7210   -0.4940 ca        1 S41     -0.117600
      6 C6         -3.0790    2.0520   -0.0310 ca        1 S41     -0.074000
      7 O7         -5.2960    1.0930    0.5450 os        1 S41     -0.193200
      8 C8         -5.8100   -0.2240    0.5030 cc        1 S41      0.055900
      9 C9         -4.8660   -1.1190    0.0510 cd        1 S41     -0.169200
     10 C10        -7.2030   -0.3610    0.9340 c3        1 S41     -0.045900
     11 C11        -0.8150    2.8350   -0.6670 c         1 S41      0.682700
     12 O12        -2.1220   -1.9320   -1.1310 os        1 S41     -0.216200
     13 O13        -1.1060    3.8640   -1.2910 o         1 S41     -0.520100
     14 N14         0.4330    2.6040   -0.0850 n         1 S41     -0.556400
     15 C15        -0.9070   -2.4730   -0.7600 ca        1 S41     -0.116500
     16 C16        -0.1590   -2.1070    0.3790 ca        1 S41      0.396200
     17 N17         0.9810   -2.7420    0.7100 nb        1 S41     -0.642000
     18 C18         1.3650   -3.7630   -0.1120 ca        1 S41      0.581500
     19 N19         0.7160   -4.1860   -1.2410 nb        1 S41     -0.642000
     20 C20        -0.4170   -3.5400   -1.5590 ca        1 S41      0.396200
     21 C21         2.5960   -4.5610    0.3100 c         1 S41      0.602600
     22 N22         3.7890   -4.2520   -0.3110 n         1 S41     -0.461800
     23 O23         2.4860   -5.4250    1.1940 o         1 S41     -0.567100
     24 C24         4.9650   -5.0350   -0.0390 c3        1 S41      0.079800
     25 C25         3.8500   -3.3450   -1.4210 c3        1 S41      0.079800
     26 C26         1.4940    3.5170    0.0220 ca        1 S41      0.416900
     27 N27         1.3000    4.8650   -0.1180 nb        1 S41     -0.633000
     28 C28         2.3900    5.6400   -0.0010 ca        1 S41      0.311900
     29 C29         3.6920    5.1310    0.2640 ca        1 S41      0.267300
     30 N30         3.8850    3.7960    0.4210 nb        1 S41     -0.610000
     31 C31         2.8130    3.0030    0.3040 ca        1 S41      0.247900
     32 C32         4.8440    6.0700    0.3670 c3        1 S41     -0.139400
     33 H4         -0.4480    0.1770   -1.2240 ha        1 S41      0.150000
     34 H6         -3.3550    3.0900    0.2040 ha        1 S41      0.177000
     35 H9         -4.9750   -2.1920   -0.0880 ha        1 S41      0.178000
     36 H10        -7.8730    0.2550    0.2820 hc        1 S41      0.067700
     37 H10A       -7.5150   -1.4330    0.8720 hc        1 S41      0.067700
     38 H10B       -7.3190   -0.0050    1.9890 hc        1 S41      0.067700
     39 HN14        0.5890    1.7220    0.3470 hn        1 S41      0.326500
     40 H16        -0.4830   -1.2860    1.0440 h4        1 S41      0.047600
     41 H20        -0.9600   -3.8760   -2.4600 h4        1 S41      0.047600
     42 H24         5.2420   -5.6490   -0.9380 h1        1 S41      0.046867
     43 H24A        5.8190   -4.3480    0.2070 h1        1 S41      0.046867
     44 H24B        4.7820   -5.7200    0.8320 h1        1 S41      0.046867
     45 H25         3.1800   -2.4630   -1.2440 h1        1 S41      0.046867
     46 H25A        4.9030   -2.9740   -1.5380 h1        1 S41      0.046867
     47 H25B        3.5390   -3.8530   -2.3750 h1        1 S41      0.046867
     48 H28         2.2150    6.7250   -0.1210 h4        1 S41      0.038100
     49 H31         2.9940    1.9230    0.4400 h4        1 S41      0.030100
     50 H32         5.3520    5.9620    1.3580 hc        1 S41      0.055367
     51 H32A        5.5940    5.8560   -0.4350 hc        1 S41      0.055367
     52 H32B        4.4920    7.1240    0.2570 hc        1 S41      0.055367
@<TRIPOS>BOND
     1    1    2 ar  
     2    1    6 ar  
     3    1    7 1   
     4    2    3 ar  
     5    2    9 1   
     6    3    4 ar  
     7    3   12 1   
     8    4    5 ar  
     9    4   33 1   
    10    5    6 ar  
    11    5   11 1   
    12    6   34 1   
    13    7    8 1   
    14    8    9 2   
    15    8   10 1   
    16    9   35 1   
    17   10   36 1   
    18   10   37 1   
    19   10   38 1   
    20   11   13 2   
    21   11   14 1   
    22   12   15 1   
    23   14   26 1   
    24   14   39 1   
    25   15   16 ar  
    26   15   20 ar  
    27   16   17 ar  
    28   16   40 1   
    29   17   18 ar  
    30   18   19 ar  
    31   18   21 1   
    32   19   20 ar  
    33   20   41 1   
    34   21   22 1   
    35   21   23 2   
    36   22   24 1   
    37   22   25 1   
    38   24   42 1   
    39   24   43 1   
    40   24   44 1   
    41   25   45 1   
    42   25   46 1   
    43   25   47 1   
    44   26   27 ar  
    45   26   31 ar  
    46   27   28 ar  
    47   28   29 ar  
    48   28   48 1   
    49   29   30 ar  
    50   29   32 1   
    51   30   31 ar  
    52   31   49 1   
    53   32   50 1   
    54   32   51 1   
    55   32   52 1   
@<TRIPOS>SUBSTRUCTURE
     1 S41         1 TEMP              0 ****  ****    0 ROOT
