@<TRIPOS>MOLECULE
S42
   58    57     1     0     0
SMALL
bcc


@<TRIPOS>ATOM
      1 N01         0.3220    0.1890    0.1780 n2        1 S42     -0.265000
      2 C02         1.5670    0.5500    0.3770 c2        1 S42      0.170000
      3 N02         2.3990    0.8170   -0.7160 n3        1 S42     -0.342000
      4 C03         2.2620    0.6640    1.6960 c2        1 S42     -0.152000
      5 C04         2.2660    1.7550    2.4060 c1        1 S42     -0.131000
      6 C05        -0.1860   -0.9930    2.2760 c2        1 S42     -0.273000
      7 C06        -0.5310   -0.2640    1.1940 c2        1 S42     -0.005000
      8 C07         2.2750    2.8250    3.1390 c2        1 S42     -0.163000
      9 C08        -1.9950    0.0170    0.9430 c3        1 S42     -0.111000
     10 C09        -2.3140    1.4950    1.0290 c3        1 S42     -0.170000
     11 C11        -3.7850    1.7780    0.7280 c3        1 S42     -0.171000
     12 C12        -4.6570    1.1980    1.7880 c2        1 S42     -0.083000
     13 C13        -5.6510    0.3170    1.6030 c2        1 S42     -0.080000
     14 C14        -6.0430   -0.2010    0.3600 c1        1 S42     -0.037000
     15 C15        -6.4110   -0.6600   -0.6850 c1        1 S42     -0.210000
     16 C16        -4.2270    1.4860   -0.6290 c1        1 S42     -0.063000
     17 N21        -9.6110   -2.1810   -3.7000 n2        1 S42     -0.262000
     18 C22       -10.2510   -2.4330   -4.8880 c2        1 S42      0.340000
     19 N22        -9.9640   -1.7330   -6.0050 n3        1 S42     -0.289000
     20 C23       -11.4030   -3.3510   -4.9170 c2        1 S42     -0.208000
     21 C24       -11.8620   -3.9620   -3.8480 c1        1 S42     -0.021000
     22 C25        -7.4880   -3.4600   -3.8850 c3        1 S42     -0.269000
     23 C26        -8.4640   -2.5370   -3.2220 c2        1 S42      0.181000
     24 C28        -8.0390   -2.0290   -1.8640 c3        1 S42     -0.152000
     25 C29        -6.8050   -1.1320   -1.9800 c3        1 S42     -0.021000
     26 C30        -7.0940    0.0620   -2.9270 c3        1 S42     -0.059000
     27 N31        -6.0800    1.0650   -3.0380 n3        1 S42     -0.339000
     28 HN02        1.9730    0.8900   -1.6120 hn        1 S42      0.209000
     29 HN0A        3.1310    1.4640   -0.5400 hn        1 S42      0.209000
     30 H03         2.7960   -0.2470    2.0200 ha        1 S42      0.168000
     31 H05         0.8490   -1.2660    2.5130 ha        1 S42      0.118500
     32 H07        -0.9380   -1.3720    2.9780 ha        1 S42      0.118500
     33 H07A        1.5070    3.0200    3.9030 ha        1 S42      0.142500
     34 H07B        3.0540    3.5970    3.0430 ha        1 S42      0.142500
     35 H08        -2.6100   -0.5400    1.6990 hc        1 S42      0.088000
     36 H08A       -2.2790   -0.3710   -0.0730 hc        1 S42      0.088000
     37 H09        -2.0620    1.8750    2.0530 hc        1 S42      0.095500
     38 H09A       -1.6850    2.0640    0.2940 hc        1 S42      0.095500
     39 H12        -3.9300    2.9150    0.7660 hc        1 S42      0.166000
     40 H13        -4.4150    1.5450    2.8080 ha        1 S42      0.138000
     41 H14        -6.2350   -0.0510    2.4690 ha        1 S42      0.148000
     42 H16        -3.4220    1.2930   -1.3590 ha        1 S42      0.047000
     43 HN22      -10.5890   -1.7590   -6.7830 hn        1 S42      0.270500
     44 HN2A       -9.2110   -1.0780   -6.0440 hn        1 S42      0.270500
     45 H23       -11.8950   -3.5090   -5.8960 ha        1 S42      0.183000
     46 H25        -7.9170   -3.9850   -4.7730 hc        1 S42      0.127667
     47 H27        -7.1390   -4.2300   -3.1490 hc        1 S42      0.127667
     48 H27A      -12.0300   -5.5800   -2.5120 ha        1 S42      0.185500
     49 H27B      -13.1590   -4.1270   -2.2020 ha        1 S42      0.185500
     50 H28        -6.5940   -2.8680   -4.2160 hc        1 S42      0.127667
     51 H28A       -8.8630   -1.4580   -1.3560 hc        1 S42      0.134500
     52 H29        -7.7980   -2.9220   -1.2250 hc        1 S42      0.134500
     53 H30        -5.9540   -1.7380   -2.4120 hc        1 S42      0.102000
     54 H30A       -8.0460    0.5590   -2.5870 h1        1 S42      0.075000
     55 HN31       -7.2710   -0.3730   -3.9540 h1        1 S42      0.075000
     56 HN3A       -5.9680    1.5710   -2.1730 hn        1 S42      0.169500
     57 H313       -5.1960    0.6640   -3.2830 hn        1 S42      0.169500
     58 C27       -12.3620   -4.5740   -2.8230 c2        1 S42     -0.130000
@<TRIPOS>BOND
     1    1    2 1   
     2    1    7 1   
     3    2    3 1   
     4    2    4 1   
     5    3   28 1   
     6    3   29 1   
     7    4    5 1   
     8    4   30 1   
     9    5    8 1   
    10    6    7 1   
    11    6   31 1   
    12    6   32 1   
    13    7    9 1   
    14    8   33 1   
    15    8   34 1   
    16    9   10 1   
    17    9   35 1   
    18    9   36 1   
    19   10   11 1   
    20   10   37 1   
    21   10   38 1   
    22   11   12 1   
    23   11   16 1   
    24   11   39 1   
    25   12   13 1   
    26   12   40 1   
    27   13   14 1   
    28   13   41 1   
    29   14   15 1   
    30   15   25 1   
    31   16   42 1   
    32   17   18 1   
    33   17   23 1   
    34   18   19 1   
    35   18   20 1   
    36   19   43 1   
    37   19   44 1   
    38   20   21 1   
    39   20   45 1   
    40   21   58 1   
    41   22   23 1   
    42   22   46 1   
    43   22   47 1   
    44   22   50 1   
    45   23   24 1   
    46   24   25 1   
    47   24   51 1   
    48   24   52 1   
    49   25   26 1   
    50   25   53 1   
    51   26   27 1   
    52   26   54 1   
    53   26   55 1   
    54   27   56 1   
    55   27   57 1   
    56   48   58 1   
    57   49   58 1   
@<TRIPOS>SUBSTRUCTURE
     1 S42         1 TEMP              0 ****  ****    0 ROOT
