@<TRIPOS>MOLECULE
S42
   58    58     1     0     0
SMALL
bcc


@<TRIPOS>ATOM
      1 N01        -0.8060   -0.6830    0.3030 n2        1 S42     -0.234000
      2 C02         0.3360   -0.1430   -0.0940 c2        1 S42      0.092000
      3 N02         0.6860   -0.0630   -1.4480 n8        1 S42     -0.327000
      4 C03         1.2520    0.5270    0.8760 c2        1 S42     -0.250000
      5 C04         2.0400   -0.1610    1.7220 c2        1 S42     -0.031000
      6 C05        -0.2030   -0.1780    2.6430 c1        1 S42      0.143000
      7 C06        -1.0510   -0.6310    1.6940 c2        1 S42     -0.328000
      8 C07         2.9360    0.4820    2.7020 c3        1 S42     -0.213000
      9 C08        -2.3680   -1.1740    2.1650 c3        1 S42     -0.135000
     10 C09        -2.9290    1.2700   -1.8060 c2        1 S42      0.154000
     11 C11        -4.1060    0.6930   -1.4070 c2        1 S42     -0.283000
     12 C12        -4.1400   -0.6110   -0.8060 c2        1 S42      0.165000
     13 C13        -5.3510   -1.1530   -0.3860 c2        1 S42     -0.263000
     14 C14        -6.5430   -0.4780   -0.5760 c2        1 S42      0.158000
     15 C15        -6.5960    0.8690   -1.1830 c3        1 S42     -0.198000
     16 C16        -5.3140    1.4380   -1.6040 c1        1 S42     -0.019000
     17 N21        -7.4920   -1.8510   -2.8310 n2        1 S42     -0.254000
     18 C22        -7.4290   -3.1830   -3.1510 c2        1 S42      0.116000
     19 N22        -6.1730   -3.7560   -3.4130 nv        1 S42     -0.323000
     20 C23        -8.5880   -4.0170   -3.1450 c2        1 S42     -0.226000
     21 C24        -9.8190   -3.4670   -2.7970 c2        1 S42      0.023000
     22 C25        -9.8820   -2.1050   -2.4700 c2        1 S42     -0.220000
     23 C26        -8.7010   -1.3410   -2.5020 c2        1 S42     -0.004000
     24 C28        -8.8380    0.1200   -2.1640 c3        1 S42     -0.130000
     25 C29        -7.6070    0.9870   -2.3530 c3        1 S42     -0.093000
     26 C30        -8.0650    2.4610   -2.4960 c3        1 S42     -0.074000
     27 N31        -7.0760    3.4400   -2.8260 n8        1 S42     -0.331000
     28 HN02        0.3180   -0.7780   -2.0370 hn        1 S42      0.205500
     29 HN0A        1.6570    0.1130   -1.5960 hn        1 S42      0.205500
     30 H03         1.2320    1.6290    0.8500 ha        1 S42      0.166000
     31 H05         2.0630   -1.2660    1.7140 ha        1 S42      0.140000
     32 H07         2.5850    0.2410    3.7390 hc        1 S42      0.108333
     33 H07A        2.9590    1.5940    2.5880 hc        1 S42      0.108333
     34 H07B        3.9770    0.0880    2.5830 hc        1 S42      0.108333
     35 H08        -2.4410   -2.2640    1.9270 hc        1 S42      0.082000
     36 H08A       -3.2140   -0.6400    1.6660 hc        1 S42      0.082000
     37 H09        -2.4670   -1.0420    3.2710 hc        1 S42      0.082000
     38 H09A       -2.9250    2.2800   -2.2570 ha        1 S42      0.172000
     39 H12        -1.9530    0.7640   -1.6950 ha        1 S42      0.172000
     40 H13        -3.1980   -1.1810   -0.6670 ha        1 S42      0.199000
     41 H14        -5.3590   -2.1550    0.0830 ha        1 S42      0.186000
     42 H16        -6.9770    1.5770   -0.3640 hc        1 S42      0.206000
     43 HN22       -5.4730   -3.1320   -3.7480 hn        1 S42      0.200000
     44 HN2A       -6.2270   -4.6060   -3.9310 hn        1 S42      0.200000
     45 H23        -8.5100   -5.0820   -3.4070 ha        1 S42      0.156000
     46 H25       -10.8390   -1.6390   -2.2030 ha        1 S42      0.154000
     47 H27       -10.8020   -5.3800   -2.6730 hc        1 S42      0.101333
     48 H27A      -11.7270   -3.9900   -1.9590 hc        1 S42      0.101333
     49 H27B      -11.5950   -4.1620   -3.7590 hc        1 S42      0.101333
     50 H28        -7.4920   -0.9340   -0.2340 ha        1 S42      0.177000
     51 H28A       -9.6540    0.5230   -2.8300 hc        1 S42      0.112500
     52 H29        -9.2120    0.2070   -1.1070 hc        1 S42      0.112500
     53 H30        -7.0770    0.6840   -3.2990 hc        1 S42      0.127000
     54 H30A       -8.5580    2.7690   -1.5300 h1        1 S42      0.101000
     55 HN31       -8.8520    2.4850   -3.3060 h1        1 S42      0.101000
     56 HN3A       -6.6730    3.2660   -3.7250 hn        1 S42      0.158000
     57 H313       -6.3450    3.4800   -2.1420 hn        1 S42      0.158000
     58 C27       -11.0460   -4.2950   -2.7920 c3        1 S42     -0.197000
@<TRIPOS>BOND
     1    1    2 1   
     2    1    7 1   
     3    2    3 1   
     4    2    4 1   
     5    3   28 1   
     6    3   29 1   
     7    4    5 1   
     8    4   30 1   
     9    5    8 1   
    10    5   31 1   
    11    6    7 1   
    12    7    9 1   
    13    8   32 1   
    14    8   33 1   
    15    8   34 1   
    16    9   35 1   
    17    9   36 1   
    18    9   37 1   
    19   10   11 1   
    20   10   38 1   
    21   10   39 1   
    22   11   12 1   
    23   11   16 1   
    24   12   13 1   
    25   12   40 1   
    26   13   14 1   
    27   13   41 1   
    28   14   15 1   
    29   14   50 1   
    30   15   16 1   
    31   15   25 1   
    32   15   42 1   
    33   17   18 1   
    34   17   23 1   
    35   18   19 1   
    36   18   20 1   
    37   19   43 1   
    38   19   44 1   
    39   20   21 1   
    40   20   45 1   
    41   21   22 1   
    42   21   58 1   
    43   22   23 1   
    44   22   46 1   
    45   23   24 1   
    46   24   25 1   
    47   24   51 1   
    48   24   52 1   
    49   25   26 1   
    50   25   53 1   
    51   26   27 1   
    52   26   54 1   
    53   26   55 1   
    54   27   56 1   
    55   27   57 1   
    56   47   58 1   
    57   48   58 1   
    58   49   58 1   
@<TRIPOS>SUBSTRUCTURE
     1 S42         1 TEMP              0 ****  ****    0 ROOT
