@<TRIPOS>MOLECULE
S42
   60    61     1     0     0
SMALL
bcc


@<TRIPOS>ATOM
      1 N01       316.6610  302.1270  160.1180 n2        1 S42     -0.175000
      2 C02       315.6610  303.1280  160.0570 c2        1 S42     -0.138000
      3 N02       315.5770  303.8210  158.7560 n4        1 S42      0.002000
      4 C03       314.8250  303.4690  161.0830 c2        1 S42     -0.017000
      5 C04       314.9280  302.7710  162.3470 c2        1 S42     -0.154000
      6 C05       315.9220  301.6620  162.4580 c3        1 S42     -0.150000
      7 C06       316.7760  301.4620  161.2310 c2        1 S42      0.060000
      8 C07       314.1470  303.1080  163.3890 c2        1 S42     -0.081000
      9 C08       317.8170  300.3930  161.4230 c3        1 S42     -0.141000
     10 C09       318.5590  299.9690  160.1730 c3        1 S42     -0.128000
     11 C11       319.5670  298.8540  160.4850 c3        1 S42     -0.198000
     12 C12       320.8410  299.4060  161.0340 c2        1 S42     -0.003000
     13 C13       322.0550  299.0230  160.5660 c2        1 S42     -0.277000
     14 C14       322.2350  298.1000  159.5060 c1        1 S42      0.035000
     15 C15       321.0150  297.2920  159.1450 c3        1 S42     -0.333000
     16 C16       319.7100  297.9500  159.3420 c1        1 S42      0.011000
     17 N21      -650.8560 -602.5380 -322.6490 n2        1 S42     -0.188000
     18 C22      -650.6580 -601.1430 -322.7600 c2        1 S42     -0.115000
     19 N22      -649.7380 -600.5950 -321.7400 n4        1 S42     -0.002000
     20 C23      -651.2320 -600.3320 -323.6950 c2        1 S42     -0.048000
     21 C24      -652.1280 -600.9120 -324.6780 c2        1 S42     -0.134000
     22 C25      -652.3820 -602.3830 -324.6180 c3        1 S42     -0.158000
     23 C26      -651.6540 -603.1010 -323.5130 c2        1 S42      0.081000
     24 C28      -651.9170 -604.5730 -323.4640 c3        1 S42     -0.204000
     25 C29       321.1590  296.7310  157.8060 c2        1 S42      0.313000
     26 C30       322.3170  295.9430  157.3950 c3        1 S42     -0.126000
     27 N31       323.1440  295.4520  158.4490 n3        1 S42     -0.371000
     28 HN02      316.4760  304.2710  158.5440 hn        1 S42      0.264667
     29 HN0A      314.8390  304.5310  158.7930 hn        1 S42      0.264667
     30 H03       314.0620  304.2640  161.0040 ha        1 S42      0.167000
     31 H05       315.3780  300.6970  162.6670 hc        1 S42      0.138000
     32 H07       316.6020  301.8530  163.3360 hc        1 S42      0.138000
     33 H07A      313.4000  303.9150  163.3360 ha        1 S42      0.151500
     34 H07B      314.2140  302.5900  164.3590 ha        1 S42      0.151500
     35 H08       317.2960  299.5010  161.8710 hc        1 S42      0.118000
     36 H08A      318.5460  300.7810  162.1880 hc        1 S42      0.118000
     37 H09       319.1010  300.8410  159.7260 hc        1 S42      0.122000
     38 H09A      317.8310  299.5880  159.4070 hc        1 S42      0.122000
     39 H12       319.1010  298.1840  161.2910 hc        1 S42      0.195000
     40 H13       320.7410  300.1630  161.8320 ha        1 S42      0.167000
     41 H14       322.9840  299.4670  160.9780 ha        1 S42      0.204000
     42 H16       321.0980  296.4120  159.8980 hc        1 S42      0.275000
     43 HN22     -650.1140 -600.7860 -320.8020 hn        1 S42      0.262667
     44 HN2A     -649.6370 -599.5860 -321.8730 hn        1 S42      0.262667
     45 H23      -651.0530 -599.2450 -323.7500 ha        1 S42      0.158000
     46 H25      -653.4860 -602.5680 -324.4880 hc        1 S42      0.140000
     47 H27      -652.0840 -602.8550 -325.5970 hc        1 S42      0.140000
     48 H27A     -652.5470 -599.0610 -325.6840 ha        1 S42      0.144000
     49 H27B     -653.3950 -600.5690 -326.3670 ha        1 S42      0.144000
     50 H28      -653.0150 -604.7410 -323.3220 hc        1 S42      0.122333
     51 H28A     -651.3670 -605.0870 -322.6380 hc        1 S42      0.122333
     52 H29      -651.6060 -605.0290 -324.4380 hc        1 S42      0.122333
     53 H30       320.3770  296.9620  157.0490 ha        1 S42      0.195000
     54 H30A      322.8490  296.6750  156.6710 h1        1 S42      0.195500
     55 HN31      321.9700  295.0840  156.7310 h1        1 S42      0.195500
     56 HN3A      323.7210  294.6880  158.1610 hn        1 S42      0.212000
     57 H023      315.3630  303.1420  158.0150 hn        1 S42      0.264667
     58 H223     -648.8210 -601.0510 -321.8250 hn        1 S42      0.262667
     59 H313      323.6710  296.1720  158.9040 hn        1 S42      0.212000
     60 C27      -652.7130 -600.1460 -325.6150 c2        1 S42     -0.111000
@<TRIPOS>BOND
     1    1    2 1   
     2    1    7 1   
     3    2    3 1   
     4    2    4 1   
     5    3   28 1   
     6    3   29 1   
     7    3   57 1   
     8    4    5 1   
     9    4   30 1   
    10    5    6 1   
    11    5    8 1   
    12    6    7 1   
    13    6   31 1   
    14    6   32 1   
    15    7    9 1   
    16    8   33 1   
    17    8   34 1   
    18    9   10 1   
    19    9   35 1   
    20    9   36 1   
    21   10   11 1   
    22   10   37 1   
    23   10   38 1   
    24   11   12 1   
    25   11   16 1   
    26   11   39 1   
    27   12   13 1   
    28   12   40 1   
    29   13   14 1   
    30   13   41 1   
    31   14   15 1   
    32   15   16 1   
    33   15   25 1   
    34   15   42 1   
    35   17   18 1   
    36   17   23 1   
    37   18   19 1   
    38   18   20 1   
    39   19   43 1   
    40   19   44 1   
    41   19   58 1   
    42   20   21 1   
    43   20   45 1   
    44   21   22 1   
    45   21   60 1   
    46   22   23 1   
    47   22   46 1   
    48   22   47 1   
    49   23   24 1   
    50   24   50 1   
    51   24   51 1   
    52   24   52 1   
    53   25   26 1   
    54   25   53 1   
    55   26   27 1   
    56   26   54 1   
    57   26   55 1   
    58   27   56 1   
    59   27   59 1   
    60   48   60 1   
    61   49   60 1   
@<TRIPOS>SUBSTRUCTURE
     1 S42         1 TEMP              0 ****  ****    0 ROOT
