@<TRIPOS>MOLECULE
S44
   78    82     1     0     0
SMALL
bcc


@<TRIPOS>ATOM
      1 O33         0.2270   -0.3140    0.9730 oh        1 S44     -0.606100
      2 O34         1.7800   -1.1220   -0.3730 o         1 S44     -0.561000
      3 C1          1.5410   -0.5560    0.6990 c         1 S44      0.640100
      4 C2          2.4810   -0.0870    1.7770 c3        1 S44     -0.103700
      5 C3          2.4730   -1.1060    2.9140 c3        1 S44     -0.076400
      6 C4          2.9570   -0.5080    4.2100 c3        1 S44     -0.095100
      7 C5          3.8850    0.1060    1.2110 c3        1 S44     -0.030100
      8 C6          4.0220    1.3760    0.4480 ca        1 S44     -0.126300
      9 C7          4.4440    2.5450    1.0910 ca        1 S44     -0.077000
     10 C8          4.6000    3.7370    0.3860 ca        1 S44     -0.146300
     11 C9          4.3070    3.7540   -0.9940 ca        1 S44      0.131100
     12 C10         3.8850    2.5900   -1.6480 ca        1 S44     -0.202000
     13 C11         3.7460    1.4080   -0.9230 ca        1 S44     -0.083000
     14 O37         4.4420    4.9820   -1.6150 os        1 S44     -0.345900
     15 C30         4.4210    4.9630   -3.0490 c3        1 S44      0.129400
     16 C31         4.8040    6.3660   -3.4890 c3        1 S44     -0.087400
     17 C32         4.7850    6.4690   -4.9910 c3        1 S44     -0.094100
     18 C12         5.0950    4.9740    1.0820 c3        1 S44      0.141300
     19 N35         4.1460    6.0530    1.1300 ns        1 S44     -0.546900
     20 C13         3.3920    6.3150    2.2610 c         1 S44      0.665700
     21 O36         3.6610    5.7820    3.3580 o         1 S44     -0.611100
     22 C14         2.3020    7.3250    2.1380 ca        1 S44     -0.142600
     23 C15         2.1080    8.2270    3.1920 ca        1 S44     -0.090500
     24 C16         1.0950    9.1760    3.1190 ca        1 S44     -0.139500
     25 C17         0.2460    9.2440    2.0020 ca        1 S44     -0.042300
     26 C18         0.4410    8.3290    0.9620 ca        1 S44     -0.139500
     27 C19         1.4600    7.3780    1.0260 ca        1 S44     -0.090500
     28 C20        -0.8370   10.2870    1.9660 c3        1 S44     -0.006700
     29 C21        -1.6700   10.2240    0.6790 c3        1 S44     -0.063067
     30 C22        -2.7520   11.2980    0.6900 c3        1 S44     -0.062367
     31 C23        -2.1050   12.6750    0.7890 c3        1 S44     -0.070400
     32 C24        -1.2910   12.7560    2.0760 c3        1 S44     -0.062367
     33 C25        -0.2060   11.6860    2.0600 c3        1 S44     -0.063067
     34 C26        -1.7840   10.0850    3.1600 c3        1 S44     -0.063067
     35 C27        -2.8610   11.1630    3.1700 c3        1 S44     -0.062367
     36 C28        -2.2090   12.5380    3.2740 c3        1 S44     -0.070400
     37 C29        -3.6750   11.0820    1.8840 c3        1 S44     -0.070400
     38 H2          2.0920    0.8970    2.1650 hc        1 S44      0.094700
     39 H3          1.4250   -1.4850    3.0530 hc        1 S44      0.053200
     40 H3A         3.1150   -1.9810    2.6320 hc        1 S44      0.053200
     41 H4          4.0060   -0.1380    4.1170 hc        1 S44      0.040367
     42 H4A         2.9270   -1.2800    5.0170 hc        1 S44      0.040367
     43 H4B         2.3090    0.3490    4.5170 hc        1 S44      0.040367
     44 H5          4.6150    0.1030    2.0660 hc        1 S44      0.065200
     45 H5A         4.1350   -0.7660    0.5470 hc        1 S44      0.065200
     46 H7          4.6590    2.5260    2.1720 ha        1 S44      0.144000
     47 H10         3.6580    2.5940   -2.7230 ha        1 S44      0.139000
     48 H11         3.4040    0.4890   -1.4290 ha        1 S44      0.154000
     49 H30         3.3870    4.7000   -3.3960 h1        1 S44      0.041700
     50 H30A        5.1520    4.2050   -3.4320 h1        1 S44      0.041700
     51 H31         5.8250    6.6110   -3.0950 hc        1 S44      0.055700
     52 H31A        4.0900    7.1040   -3.0390 hc        1 S44      0.055700
     53 H32         3.7670    6.2450   -5.3920 hc        1 S44      0.038367
     54 H32A        5.5080    5.7490   -5.4470 hc        1 S44      0.038367
     55 H32B        5.0690    7.5020   -5.3070 hc        1 S44      0.038367
     56 H12         5.4070    4.7180    2.1360 h1        1 S44      0.071200
     57 H12A        6.0000    5.3480    0.5180 h1        1 S44      0.071200
     58 HN35       -0.3250   -0.6430    0.2430 ho        1 S44      0.442000
     59 H15         2.7600    8.1670    4.0780 ha        1 S44      0.144000
     60 H16         0.9590    9.8800    3.9550 ha        1 S44      0.137000
     61 H18        -0.2070    8.3400    0.0720 ha        1 S44      0.137000
     62 H19         1.5770    6.6630    0.1970 ha        1 S44      0.144000
     63 H21        -1.0040   10.3780   -0.2080 hc        1 S44      0.044533
     64 H21A       -2.1520    9.2160    0.5910 hc        1 S44      0.044533
     65 H22        -3.3460   11.2310   -0.2600 hc        1 S44      0.049700
     66 H23        -2.8950   13.4680    0.7880 hc        1 S44      0.041367
     67 H23A       -1.4390   12.8480   -0.0940 hc        1 S44      0.041367
     68 H24        -0.8100   13.7680    2.1520 hc        1 S44      0.049700
     69 H25         0.4730   11.8470    1.1850 hc        1 S44      0.044533
     70 H25A        0.4080   11.7630    2.9940 hc        1 S44      0.044533
     71 H26        -1.2030   10.1280    4.1170 hc        1 S44      0.044533
     72 H26A       -2.2600    9.0740    3.0900 hc        1 S44      0.044533
     73 H27        -3.5370   11.0020    4.0520 hc        1 S44      0.049700
     74 H28        -1.6180   12.6080    4.2230 hc        1 S44      0.041367
     75 H28A       -2.9980   13.3320    3.2980 hc        1 S44      0.041367
     76 H29        -4.4780   11.8630    1.8910 hc        1 S44      0.041367
     77 H29A       -4.1690   10.0800    1.8080 hc        1 S44      0.041367
     78 H352        3.8120    6.3770    0.2500 hn        1 S44      0.315500
@<TRIPOS>BOND
     1    1    3 1   
     2    1   58 1   
     3    2    3 2   
     4    3    4 1   
     5    4    5 1   
     6    4    7 1   
     7    4   38 1   
     8    5    6 1   
     9    5   39 1   
    10    5   40 1   
    11    6   41 1   
    12    6   42 1   
    13    6   43 1   
    14    7    8 1   
    15    7   44 1   
    16    7   45 1   
    17    8    9 ar  
    18    8   13 ar  
    19    9   10 ar  
    20    9   46 1   
    21   10   11 ar  
    22   10   18 1   
    23   11   12 ar  
    24   11   14 1   
    25   12   13 ar  
    26   12   47 1   
    27   13   48 1   
    28   14   15 1   
    29   15   16 1   
    30   15   49 1   
    31   15   50 1   
    32   16   17 1   
    33   16   51 1   
    34   16   52 1   
    35   17   53 1   
    36   17   54 1   
    37   17   55 1   
    38   18   19 1   
    39   18   56 1   
    40   18   57 1   
    41   19   20 1   
    42   19   78 1   
    43   20   21 2   
    44   20   22 1   
    45   22   23 ar  
    46   22   27 ar  
    47   23   24 ar  
    48   23   59 1   
    49   24   25 ar  
    50   24   60 1   
    51   25   26 ar  
    52   25   28 1   
    53   26   27 ar  
    54   26   61 1   
    55   27   62 1   
    56   28   29 1   
    57   28   33 1   
    58   28   34 1   
    59   29   30 1   
    60   29   63 1   
    61   29   64 1   
    62   30   31 1   
    63   30   37 1   
    64   30   65 1   
    65   31   32 1   
    66   31   66 1   
    67   31   67 1   
    68   32   33 1   
    69   32   36 1   
    70   32   68 1   
    71   33   69 1   
    72   33   70 1   
    73   34   35 1   
    74   34   71 1   
    75   34   72 1   
    76   35   36 1   
    77   35   37 1   
    78   35   73 1   
    79   36   74 1   
    80   36   75 1   
    81   37   76 1   
    82   37   77 1   
@<TRIPOS>SUBSTRUCTURE
     1 S44         1 TEMP              0 ****  ****    0 ROOT
