@<TRIPOS>MOLECULE
S44
   78    82     1     0     0
SMALL
bcc


@<TRIPOS>ATOM
      1 O33         0.1950   -0.3080    0.7970 oh        1 S44     -0.606100
      2 O34         1.7910   -1.0970   -0.5090 o         1 S44     -0.561000
      3 C1          1.5170   -0.5510    0.5640 c         1 S44      0.640100
      4 C2          2.4210   -0.1080    1.6840 c3        1 S44     -0.103700
      5 C3          2.3690   -1.1480    2.7990 c3        1 S44     -0.076400
      6 C4          2.8100   -0.5780    4.1230 c3        1 S44     -0.095100
      7 C5          3.8440    0.0890    1.1710 c3        1 S44     -0.030100
      8 C6          4.0140    1.3730    0.4370 ca        1 S44     -0.126300
      9 C7          4.4190    2.5270    1.1180 ca        1 S44     -0.077000
     10 C8          4.6040    3.7310    0.4430 ca        1 S44     -0.146300
     11 C9          4.3590    3.7760   -0.9470 ca        1 S44      0.131100
     12 C10         3.9540    2.6270   -1.6370 ca        1 S44     -0.202000
     13 C11         3.7860    1.4330   -0.9410 ca        1 S44     -0.083000
     14 O37         4.5220    5.0150   -1.5380 os        1 S44     -0.345900
     15 C30         4.5490    5.0250   -2.9720 c3        1 S44      0.129400
     16 C31         4.9540    6.4340   -3.3720 c3        1 S44     -0.087400
     17 C32         4.9850    6.5660   -4.8710 c3        1 S44     -0.094100
     18 C12         5.0810    4.9520    1.1790 c3        1 S44      0.141300
     19 N35         4.1360    6.0350    1.2150 n         1 S44     -0.546900
     20 C13         3.3450    6.2790    2.3240 c         1 S44      0.665700
     21 O36         3.5730    5.7240    3.4190 o         1 S44     -0.611100
     22 C14         2.2650    7.2980    2.1830 ca        1 S44     -0.142600
     23 C15         2.0390    8.1800    3.2460 ca        1 S44     -0.090500
     24 C16         1.0330    9.1360    3.1580 ca        1 S44     -0.139500
     25 C17         0.2250    9.2310    2.0130 ca        1 S44     -0.042300
     26 C18         0.4520    8.3360    0.9620 ca        1 S44     -0.139500
     27 C19         1.4630    7.3780    1.0430 ca        1 S44     -0.090500
     28 C20        -0.8510   10.2800    1.9600 c3        1 S44     -0.006700
     29 C21        -1.6390   10.2480    0.6430 c3        1 S44     -0.063067
     30 C22        -2.7150   11.3280    0.6370 c3        1 S44     -0.062367
     31 C23        -2.0650   12.6990    0.7870 c3        1 S44     -0.070400
     32 C24        -1.2960   12.7500    2.1020 c3        1 S44     -0.062367
     33 C25        -0.2170   11.6740    2.1040 c3        1 S44     -0.063067
     34 C26        -1.8410   10.0600    3.1150 c3        1 S44     -0.063067
     35 C27        -2.9130   11.1450    3.1080 c3        1 S44     -0.062367
     36 C28        -2.2570   12.5130    3.2630 c3        1 S44     -0.070400
     37 C29        -3.6810   11.0940    1.7930 c3        1 S44     -0.070400
     38 H2          2.0230    0.8710    2.0770 hc        1 S44      0.094700
     39 H3          3.0170   -2.0210    2.5230 hc        1 S44      0.053200
     40 H3A         1.3150   -1.5250    2.8950 hc        1 S44      0.053200
     41 H4          2.7480   -1.3650    4.9140 hc        1 S44      0.040367
     42 H4A         2.1550    0.2760    4.4240 hc        1 S44      0.040367
     43 H4B         3.8630   -0.2120    4.0740 hc        1 S44      0.040367
     44 H5          4.1140   -0.7710    0.4990 hc        1 S44      0.065200
     45 H5A         4.5440    0.0650    2.0500 hc        1 S44      0.065200
     46 H7          4.5960    2.4860    2.2050 ha        1 S44      0.144000
     47 H10         3.7650    2.6540   -2.7190 ha        1 S44      0.139000
     48 H11         3.4570    0.5260   -1.4760 ha        1 S44      0.154000
     49 H30         3.5260    4.7740   -3.3590 h1        1 S44      0.041700
     50 H30A        5.2890    4.2700   -3.3450 h1        1 S44      0.041700
     51 H31         4.2280    7.1660   -2.9320 hc        1 S44      0.055700
     52 H31A        5.9620    6.6660   -2.9380 hc        1 S44      0.055700
     53 H32         3.9800    6.3560   -5.3100 hc        1 S44      0.038367
     54 H32A        5.7200    5.8520   -5.3170 hc        1 S44      0.038367
     55 H32B        5.2850    7.6040   -5.1570 hc        1 S44      0.038367
     56 H12         6.0070    5.3320    0.6540 h1        1 S44      0.071200
     57 H12A        5.3540    4.6740    2.2380 h1        1 S44      0.071200
     58 HN35       -0.3320   -0.6200    0.0430 ho        1 S44      0.442000
     59 H15         2.6580    8.0980    4.1540 ha        1 S44      0.144000
     60 H16         0.8710    9.8240    4.0020 ha        1 S44      0.137000
     61 H18        -0.1640    8.3680    0.0510 ha        1 S44      0.137000
     62 H19         1.6050    6.6780    0.2050 ha        1 S44      0.144000
     63 H21        -0.9410   10.4150   -0.2170 hc        1 S44      0.044533
     64 H21A       -2.1220    9.2440    0.5180 hc        1 S44      0.044533
     65 H22        -3.2760   11.2830   -0.3350 hc        1 S44      0.049700
     66 H23        -1.3670   12.8850   -0.0690 hc        1 S44      0.041367
     67 H23A       -2.8510   13.4960    0.7730 hc        1 S44      0.041367
     68 H24        -0.8130   13.7570    2.2160 hc        1 S44      0.049700
     69 H25         0.4940   11.8480    1.2560 hc        1 S44      0.044533
     70 H25A        0.3640   11.7280    3.0600 hc        1 S44      0.044533
     71 H26        -2.3200    9.0530    3.0080 hc        1 S44      0.044533
     72 H26A       -1.2940   10.0810    4.0920 hc        1 S44      0.044533
     73 H27        -3.6200   10.9700    3.9630 hc        1 S44      0.049700
     74 H28        -3.0420   13.3110    3.2750 hc        1 S44      0.041367
     75 H28A       -1.7000   12.5600    4.2330 hc        1 S44      0.041367
     76 H29        -4.4790   11.8790    1.7870 hc        1 S44      0.041367
     77 H29A       -4.1760   10.0960    1.6790 hc        1 S44      0.041367
     78 H352        3.8350    6.3780    0.3300 hn        1 S44      0.315500
@<TRIPOS>BOND
     1    1    3 1   
     2    1   58 1   
     3    2    3 2   
     4    3    4 1   
     5    4    5 1   
     6    4    7 1   
     7    4   38 1   
     8    5    6 1   
     9    5   39 1   
    10    5   40 1   
    11    6   41 1   
    12    6   42 1   
    13    6   43 1   
    14    7    8 1   
    15    7   44 1   
    16    7   45 1   
    17    8    9 ar  
    18    8   13 ar  
    19    9   10 ar  
    20    9   46 1   
    21   10   11 ar  
    22   10   18 1   
    23   11   12 ar  
    24   11   14 1   
    25   12   13 ar  
    26   12   47 1   
    27   13   48 1   
    28   14   15 1   
    29   15   16 1   
    30   15   49 1   
    31   15   50 1   
    32   16   17 1   
    33   16   51 1   
    34   16   52 1   
    35   17   53 1   
    36   17   54 1   
    37   17   55 1   
    38   18   19 1   
    39   18   56 1   
    40   18   57 1   
    41   19   20 1   
    42   19   78 1   
    43   20   21 2   
    44   20   22 1   
    45   22   23 ar  
    46   22   27 ar  
    47   23   24 ar  
    48   23   59 1   
    49   24   25 ar  
    50   24   60 1   
    51   25   26 ar  
    52   25   28 1   
    53   26   27 ar  
    54   26   61 1   
    55   27   62 1   
    56   28   29 1   
    57   28   33 1   
    58   28   34 1   
    59   29   30 1   
    60   29   63 1   
    61   29   64 1   
    62   30   31 1   
    63   30   37 1   
    64   30   65 1   
    65   31   32 1   
    66   31   66 1   
    67   31   67 1   
    68   32   33 1   
    69   32   36 1   
    70   32   68 1   
    71   33   69 1   
    72   33   70 1   
    73   34   35 1   
    74   34   71 1   
    75   34   72 1   
    76   35   36 1   
    77   35   37 1   
    78   35   73 1   
    79   36   74 1   
    80   36   75 1   
    81   37   76 1   
    82   37   77 1   
@<TRIPOS>SUBSTRUCTURE
     1 S44         1 TEMP              0 ****  ****    0 ROOT
