@<TRIPOS>MOLECULE
S44
   77    81     1     0     0
SMALL
bcc


@<TRIPOS>ATOM
      1 O33         6.4850    3.6560    2.2400 o         1 S44     -0.845300
      2 O34         7.4150    1.7170    1.6580 o         1 S44     -0.845300
      3 C1          6.6380    2.6930    1.4370 c         1 S44      0.910600
      4 C2          5.8060    2.7230    0.1260 c3        1 S44     -0.181700
      5 C3          6.1550    3.9840   -0.6460 c3        1 S44     -0.067400
      6 C4          5.0860    4.3890   -1.6290 c3        1 S44     -0.087100
      7 C5          6.0250    1.4810   -0.7270 c3        1 S44     -0.028100
      8 C6          5.1000    0.3660   -0.3780 ca        1 S44     -0.069300
      9 C7          4.1470   -0.0960   -1.2890 ca        1 S44     -0.105000
     10 C8          3.3000   -1.1620   -0.9710 ca        1 S44     -0.161300
     11 C9          3.4070   -1.7520    0.3020 ca        1 S44      0.093100
     12 C10         4.3560   -1.2960    1.2260 ca        1 S44     -0.202000
     13 C11         5.1990   -0.2440    0.8820 ca        1 S44     -0.079000
     14 O37         2.4970   -2.7650    0.5810 os        1 S44     -0.357900
     15 C30         2.8840   -3.6550    1.6330 c3        1 S44      0.132400
     16 C31         1.9680   -4.8630    1.5240 c3        1 S44     -0.088400
     17 C32         2.2630   -5.8510    2.6220 c3        1 S44     -0.092100
     18 C12         2.3120   -1.6740   -1.9760 c3        1 S44      0.148300
     19 N35         0.9370   -1.5090   -1.5720 n         1 S44     -0.542900
     20 C13         0.0290   -0.7850   -2.3120 c         1 S44      0.662700
     21 O36         0.2500   -0.4590   -3.4990 o         1 S44     -0.622100
     22 C14        -1.2830   -0.4750   -1.6650 ca        1 S44     -0.134600
     23 C15        -2.4520   -0.6040   -2.4220 ca        1 S44     -0.091500
     24 C16        -3.6870   -0.3080   -1.8540 ca        1 S44     -0.141000
     25 C17        -3.7830    0.1330   -0.5240 ca        1 S44     -0.054300
     26 C18        -2.6050    0.2710    0.2190 ca        1 S44     -0.141000
     27 C19        -1.3640   -0.0310   -0.3440 ca        1 S44     -0.091500
     28 C20        -5.1370    0.4450    0.0490 c3        1 S44     -0.002700
     29 C21        -5.0640    0.9110    1.5090 c3        1 S44     -0.063733
     30 C22        -6.4590    1.2140    2.0450 c3        1 S44     -0.062367
     31 C23        -7.3190   -0.0430    1.9740 c3        1 S44     -0.069400
     32 C24        -7.4170   -0.5040    0.5240 c3        1 S44     -0.062367
     33 C25        -6.0220   -0.8120   -0.0080 c3        1 S44     -0.063733
     34 C26        -5.8010    1.5600   -0.7760 c3        1 S44     -0.063733
     35 C27        -7.1970    1.8570   -0.2400 c3        1 S44     -0.062367
     36 C28        -8.0530    0.5970   -0.3180 c3        1 S44     -0.069400
     37 C29        -7.0990    2.3170    1.2100 c3        1 S44     -0.069400
     38 H2          4.7280    2.7800    0.4380 hc        1 S44      0.041700
     39 H3          6.3080    4.8130    0.0990 hc        1 S44      0.045200
     40 H3A         7.1270    3.8350   -1.1870 hc        1 S44      0.045200
     41 H4          5.3840    5.3220   -2.1670 hc        1 S44      0.015700
     42 H4A         4.9110    3.5890   -2.3880 hc        1 S44      0.015700
     43 H4B         4.1210    4.5820   -1.1000 hc        1 S44      0.015700
     44 H5          5.9070    1.7350   -1.8140 hc        1 S44      0.047700
     45 H5A         7.0830    1.1310   -0.5640 hc        1 S44      0.047700
     46 H7          4.0580    0.3830   -2.2760 ha        1 S44      0.130000
     47 H10         4.4390   -1.7540    2.2200 ha        1 S44      0.129000
     48 H11         5.9610    0.1430    1.5920 ha        1 S44      0.210000
     49 H30         3.9590   -3.9520    1.5170 h1        1 S44      0.039200
     50 H30A        2.7450   -3.1360    2.6180 h1        1 S44      0.039200
     51 H31         0.9010   -4.5250    1.5830 hc        1 S44      0.050700
     52 H31A        2.1090   -5.3430    0.5210 hc        1 S44      0.050700
     53 H32         1.5880   -6.7360    2.5350 hc        1 S44      0.032700
     54 H32A        3.3210   -6.2060    2.5610 hc        1 S44      0.032700
     55 H32B        2.1080   -5.3860    3.6260 hc        1 S44      0.032700
     56 H12         2.4680   -1.1640   -2.9700 h1        1 S44      0.061200
     57 H12A        2.4900   -2.7820   -2.1120 h1        1 S44      0.061200
     58 HN35        0.7480   -1.6740   -0.6080 hn        1 S44      0.318500
     59 H15        -2.3810   -0.9300   -3.4720 ha        1 S44      0.148500
     60 H16        -4.5970   -0.4170   -2.4630 ha        1 S44      0.132500
     61 H18        -2.6310    0.6240    1.2600 ha        1 S44      0.132500
     62 H19        -0.4530    0.1020    0.2600 ha        1 S44      0.148500
     63 H21        -4.5920    0.1120    2.1370 hc        1 S44      0.046367
     64 H21A       -4.4330    1.8340    1.5780 hc        1 S44      0.046367
     65 H22        -6.3780    1.5520    3.1130 hc        1 S44      0.046367
     66 H23        -6.8630   -0.8520    2.6000 hc        1 S44      0.038700
     67 H23A       -8.3420    0.1720    2.3760 hc        1 S44      0.038700
     68 H24        -8.0470   -1.4310    0.4670 hc        1 S44      0.046367
     69 H25        -6.0960   -1.1750   -1.0650 hc        1 S44      0.046367
     70 H25A       -5.5530   -1.6230    0.6050 hc        1 S44      0.046367
     71 H26        -5.1700    2.4830   -0.7260 hc        1 S44      0.046367
     72 H26A       -5.8700    1.2460   -1.8490 hc        1 S44      0.046367
     73 H27        -7.6660    2.6670   -0.8600 hc        1 S44      0.046367
     74 H28        -8.1380    0.2600   -1.3830 hc        1 S44      0.038700
     75 H28A       -9.0850    0.8150    0.0590 hc        1 S44      0.038700
     76 H29        -8.1200    2.5510    1.6050 hc        1 S44      0.038700
     77 H29A       -6.4810    3.2490    1.2720 hc        1 S44      0.038700
@<TRIPOS>BOND
     1    1    3 1   
     2    2    3 1   
     3    3    4 1   
     4    4    5 1   
     5    4    7 1   
     6    4   38 1   
     7    5    6 1   
     8    5   39 1   
     9    5   40 1   
    10    6   41 1   
    11    6   42 1   
    12    6   43 1   
    13    7    8 1   
    14    7   44 1   
    15    7   45 1   
    16    8    9 ar  
    17    8   13 ar  
    18    9   10 ar  
    19    9   46 1   
    20   10   11 ar  
    21   10   18 1   
    22   11   12 ar  
    23   11   14 1   
    24   12   13 ar  
    25   12   47 1   
    26   13   48 1   
    27   14   15 1   
    28   15   16 1   
    29   15   49 1   
    30   15   50 1   
    31   16   17 1   
    32   16   51 1   
    33   16   52 1   
    34   17   53 1   
    35   17   54 1   
    36   17   55 1   
    37   18   19 1   
    38   18   56 1   
    39   18   57 1   
    40   19   20 1   
    41   19   58 1   
    42   20   21 2   
    43   20   22 1   
    44   22   23 ar  
    45   22   27 ar  
    46   23   24 ar  
    47   23   59 1   
    48   24   25 ar  
    49   24   60 1   
    50   25   26 ar  
    51   25   28 1   
    52   26   27 ar  
    53   26   61 1   
    54   27   62 1   
    55   28   29 1   
    56   28   33 1   
    57   28   34 1   
    58   29   30 1   
    59   29   63 1   
    60   29   64 1   
    61   30   31 1   
    62   30   37 1   
    63   30   65 1   
    64   31   32 1   
    65   31   66 1   
    66   31   67 1   
    67   32   33 1   
    68   32   36 1   
    69   32   68 1   
    70   33   69 1   
    71   33   70 1   
    72   34   35 1   
    73   34   71 1   
    74   34   72 1   
    75   35   36 1   
    76   35   37 1   
    77   35   73 1   
    78   36   74 1   
    79   36   75 1   
    80   37   76 1   
    81   37   77 1   
@<TRIPOS>SUBSTRUCTURE
     1 S44         1 TEMP              0 ****  ****    0 ROOT
