@<TRIPOS>MOLECULE
S44
   78    82     1     0     0
SMALL
bcc


@<TRIPOS>ATOM
      1 O33         0.2440   -0.3140    0.8110 oh        1 S44     -0.606100
      2 O34         1.8440   -1.0960   -0.4950 o         1 S44     -0.561000
      3 C1          1.5670   -0.5490    0.5780 c         1 S44      0.640100
      4 C2          2.4690   -0.0980    1.6950 c3        1 S44     -0.103700
      5 C3          2.4260   -1.1360    2.8130 c3        1 S44     -0.076400
      6 C4          2.8640   -0.5610    4.1350 c3        1 S44     -0.095100
      7 C5          3.8910    0.1080    1.1810 c3        1 S44     -0.030100
      8 C6          4.0510    1.3910    0.4450 ca        1 S44     -0.126300
      9 C7          4.4480    2.5500    1.1230 ca        1 S44     -0.077000
     10 C8          4.6240    3.7540    0.4450 ca        1 S44     -0.146300
     11 C9          4.3780    3.7950   -0.9440 ca        1 S44      0.131100
     12 C10         3.9810    2.6420   -1.6320 ca        1 S44     -0.202000
     13 C11         3.8220    1.4480   -0.9340 ca        1 S44     -0.083000
     14 O37         4.5310    5.0340   -1.5380 os        1 S44     -0.345900
     15 C30         4.5570    5.0410   -2.9720 c3        1 S44      0.129400
     16 C31         4.9510    6.4520   -3.3740 c3        1 S44     -0.087400
     17 C32         4.9800    6.5820   -4.8740 c3        1 S44     -0.094100
     18 C12         5.0910    4.9800    1.1790 c3        1 S44      0.141300
     19 N35         4.1390    6.0560    1.2140 n         1 S44     -0.546900
     20 C13         3.3460    6.2950    2.3230 c         1 S44      0.665700
     21 O36         3.5800    5.7430    3.4190 o         1 S44     -0.611100
     22 C14         2.2580    7.3050    2.1820 ca        1 S44     -0.142600
     23 C15         2.0260    8.1860    3.2440 ca        1 S44     -0.090500
     24 C16         1.0120    9.1340    3.1550 ca        1 S44     -0.139500
     25 C17         0.2010    9.2200    2.0110 ca        1 S44     -0.042300
     26 C18         0.4350    8.3250    0.9610 ca        1 S44     -0.139500
     27 C19         1.4540    7.3760    1.0430 ca        1 S44     -0.090500
     28 C20        -0.8830   10.2610    1.9570 c3        1 S44     -0.006700
     29 C21        -1.6720   10.2190    0.6410 c3        1 S44     -0.063067
     30 C22        -2.7570   11.2900    0.6350 c3        1 S44     -0.062367
     31 C23        -2.1190   12.6660    0.7810 c3        1 S44     -0.070400
     32 C24        -1.3490   12.7260    2.0950 c3        1 S44     -0.062367
     33 C25        -0.2610   11.6590    2.0980 c3        1 S44     -0.063067
     34 C26        -1.8700   10.0340    3.1140 c3        1 S44     -0.063067
     35 C27        -2.9500   11.1100    3.1070 c3        1 S44     -0.062367
     36 C28        -2.3060   12.4830    3.2570 c3        1 S44     -0.070400
     37 C29        -3.7200   11.0500    1.7920 c3        1 S44     -0.070400
     38 H2          2.0650    0.8790    2.0880 hc        1 S44      0.094700
     39 H3          3.0790   -2.0060    2.5370 hc        1 S44      0.053200
     40 H3A         1.3740   -1.5200    2.9100 hc        1 S44      0.053200
     41 H4          2.2050    0.2890    4.4350 hc        1 S44      0.040367
     42 H4A         2.8090   -1.3470    4.9270 hc        1 S44      0.040367
     43 H4B         3.9150   -0.1880    4.0840 hc        1 S44      0.040367
     44 H5          4.5920    0.0900    2.0590 hc        1 S44      0.065200
     45 H5A         4.1660   -0.7520    0.5100 hc        1 S44      0.065200
     46 H7          4.6260    2.5120    2.2100 ha        1 S44      0.144000
     47 H10         3.7910    2.6650   -2.7140 ha        1 S44      0.139000
     48 H11         3.4990    0.5370   -1.4670 ha        1 S44      0.154000
     49 H30         5.3030    4.2920   -3.3440 h1        1 S44      0.041700
     50 H30A        3.5360    4.7820   -3.3580 h1        1 S44      0.041700
     51 H31         4.2190    7.1800   -2.9350 hc        1 S44      0.055700
     52 H31A        5.9570    6.6930   -2.9420 hc        1 S44      0.055700
     53 H32         5.7200    5.8730   -5.3190 hc        1 S44      0.038367
     54 H32A        3.9760    6.3630   -5.3120 hc        1 S44      0.038367
     55 H32B        5.2710    7.6220   -5.1620 hc        1 S44      0.038367
     56 H12         5.3690    4.7060    2.2380 h1        1 S44      0.071200
     57 H12A        6.0140    5.3670    0.6520 h1        1 S44      0.071200
     58 HN35       -0.2810   -0.6310    0.0580 ho        1 S44      0.442000
     59 H15         2.6460    8.1120    4.1510 ha        1 S44      0.144000
     60 H16         0.8450    9.8220    3.9980 ha        1 S44      0.137000
     61 H18        -0.1830    8.3500    0.0510 ha        1 S44      0.137000
     62 H19         1.6010    6.6760    0.2060 ha        1 S44      0.144000
     63 H21        -0.9770   10.3910   -0.2200 hc        1 S44      0.044533
     64 H21A       -2.1470    9.2110    0.5190 hc        1 S44      0.044533
     65 H22        -3.3190   11.2390   -0.3360 hc        1 S44      0.049700
     66 H23        -2.9110   13.4570    0.7670 hc        1 S44      0.041367
     67 H23A       -1.4240   12.8570   -0.0760 hc        1 S44      0.041367
     68 H24        -0.8740   13.7380    2.2060 hc        1 S44      0.049700
     69 H25         0.3210   11.7210    3.0530 hc        1 S44      0.044533
     70 H25A        0.4480   11.8380    1.2490 hc        1 S44      0.044533
     71 H26        -2.3400    9.0230    3.0100 hc        1 S44      0.044533
     72 H26A       -1.3220   10.0620    4.0910 hc        1 S44      0.044533
     73 H27        -3.6550   10.9310    3.9620 hc        1 S44      0.049700
     74 H28        -1.7480   12.5380    4.2270 hc        1 S44      0.041367
     75 H28A       -3.0980   13.2750    3.2690 hc        1 S44      0.041367
     76 H29        -4.2070   10.0480    1.6810 hc        1 S44      0.041367
     77 H29A       -4.5250   11.8290    1.7860 hc        1 S44      0.041367
     78 H352        3.8340    6.3940    0.3290 hn        1 S44      0.315500
@<TRIPOS>BOND
     1    1    3 1   
     2    1   58 1   
     3    2    3 2   
     4    3    4 1   
     5    4    5 1   
     6    4    7 1   
     7    4   38 1   
     8    5    6 1   
     9    5   39 1   
    10    5   40 1   
    11    6   41 1   
    12    6   42 1   
    13    6   43 1   
    14    7    8 1   
    15    7   44 1   
    16    7   45 1   
    17    8    9 ar  
    18    8   13 ar  
    19    9   10 ar  
    20    9   46 1   
    21   10   11 ar  
    22   10   18 1   
    23   11   12 ar  
    24   11   14 1   
    25   12   13 ar  
    26   12   47 1   
    27   13   48 1   
    28   14   15 1   
    29   15   16 1   
    30   15   49 1   
    31   15   50 1   
    32   16   17 1   
    33   16   51 1   
    34   16   52 1   
    35   17   53 1   
    36   17   54 1   
    37   17   55 1   
    38   18   19 1   
    39   18   56 1   
    40   18   57 1   
    41   19   20 1   
    42   19   78 1   
    43   20   21 2   
    44   20   22 1   
    45   22   23 ar  
    46   22   27 ar  
    47   23   24 ar  
    48   23   59 1   
    49   24   25 ar  
    50   24   60 1   
    51   25   26 ar  
    52   25   28 1   
    53   26   27 ar  
    54   26   61 1   
    55   27   62 1   
    56   28   29 1   
    57   28   33 1   
    58   28   34 1   
    59   29   30 1   
    60   29   63 1   
    61   29   64 1   
    62   30   31 1   
    63   30   37 1   
    64   30   65 1   
    65   31   32 1   
    66   31   66 1   
    67   31   67 1   
    68   32   33 1   
    69   32   36 1   
    70   32   68 1   
    71   33   69 1   
    72   33   70 1   
    73   34   35 1   
    74   34   71 1   
    75   34   72 1   
    76   35   36 1   
    77   35   37 1   
    78   35   73 1   
    79   36   74 1   
    80   36   75 1   
    81   37   76 1   
    82   37   77 1   
@<TRIPOS>SUBSTRUCTURE
     1 S44         1 TEMP              0 ****  ****    0 ROOT
