@<TRIPOS>MOLECULE
S45
   32    34     1     0     0
SMALL
bcc


@<TRIPOS>ATOM
      1 CL1        -6.1790   -0.3610    0.0220 cl        1 S45     -0.087400
      2 C7         -4.4940   -0.1450    0.0100 ca        1 S45      0.034400
      3 C10        -3.9590    1.1450    0.0780 ca        1 S45     -0.136500
      4 C6         -2.5770    1.3210    0.0690 ca        1 S45     -0.082000
      5 C4         -1.7240    0.2100   -0.0090 ca        1 S45     -0.131500
      6 C5         -2.2700   -1.0800   -0.0770 ca        1 S45     -0.082000
      7 C9         -3.6510   -1.2580   -0.0680 ca        1 S45     -0.136500
      8 C1         -0.2760    0.4000   -0.0200 cc        1 S45      0.587500
      9 N1          0.6610   -0.6790    0.0350 nc        1 S45     -0.680000
     10 C2          1.8470   -0.0810    0.0040 cd        1 S45      0.509700
     11 O1          1.6650    1.3350   -0.0680 os        1 S45     -0.141100
     12 N2          0.3800    1.5930   -0.0820 nd        1 S45     -0.369300
     13 C3          3.2400   -0.5960    0.0380 c3        1 S45     -0.094000
     14 C11         3.9640   -0.0880    1.2800 c3        1 S45     -0.078400
     15 C13         5.4100   -0.5340    1.2570 c3        1 S45     -0.077400
     16 C12         6.0960   -0.1180   -0.0430 c3        1 S45      0.158800
     17 N3          5.3730   -0.5470   -1.2250 n3        1 S45     -0.819200
     18 C8          3.9800   -0.1490   -1.2370 c3        1 S45      0.164800
     19 H10        -4.6230    2.0210    0.1390 ha        1 S45      0.152000
     20 H6         -2.1660    2.3410    0.1230 ha        1 S45      0.158000
     21 H5         -1.6150   -1.9640   -0.1380 ha        1 S45      0.158000
     22 H9         -4.0740   -2.2730   -0.1210 ha        1 S45      0.152000
     23 H3          3.2040   -1.7240    0.0670 hc        1 S45      0.100700
     24 H11         3.9080    1.0320    1.3100 hc        1 S45      0.056200
     25 H11A        3.4580   -0.4800    2.2000 hc        1 S45      0.056200
     26 H13         5.9620   -0.0720    2.1160 hc        1 S45      0.053200
     27 H13A        5.4650   -1.6470    1.3740 hc        1 S45      0.053200
     28 H12         6.2420    1.0030   -0.0210 h1        1 S45      0.033200
     29 H12A        7.1170   -0.5930   -0.0880 h1        1 S45      0.033200
     30 HN3         5.8290   -0.2070   -2.0510 hn        1 S45      0.370800
     31 H8          3.4970   -0.6370   -2.1290 h1        1 S45      0.044200
     32 H8A         3.8500    0.9700   -1.3380 h1        1 S45      0.044200
@<TRIPOS>BOND
     1    1    2 1   
     2    2    3 ar  
     3    2    7 ar  
     4    3    4 ar  
     5    3   19 1   
     6    4    5 ar  
     7    4   20 1   
     8    5    6 ar  
     9    5    8 1   
    10    6    7 ar  
    11    6   21 1   
    12    7   22 1   
    13    8    9 1   
    14    8   12 2   
    15    9   10 2   
    16   10   11 1   
    17   10   13 1   
    18   11   12 1   
    19   13   14 1   
    20   13   18 1   
    21   13   23 1   
    22   14   15 1   
    23   14   24 1   
    24   14   25 1   
    25   15   16 1   
    26   15   26 1   
    27   15   27 1   
    28   16   17 1   
    29   16   28 1   
    30   16   29 1   
    31   17   18 1   
    32   17   30 1   
    33   18   31 1   
    34   18   32 1   
@<TRIPOS>SUBSTRUCTURE
     1 S45         1 TEMP              0 ****  ****    0 ROOT
