@<TRIPOS>MOLECULE
S45
   32    30     1     0     0
SMALL
bcc


@<TRIPOS>ATOM
      1 CL1        -7.3600   -0.2990   -0.2780 cl        1 S45     -0.011000
      2 C7         -5.6110   -0.3000   -0.2690 c2        1 S45     -0.046000
      3 C10        -4.9250   -1.1490    0.5760 c2        1 S45     -0.137000
      4 C6         -3.5320   -1.1760    0.5570 c1        1 S45     -0.079000
      5 C4         -2.8340   -0.3470   -0.3110 c1        1 S45     -0.021000
      6 C5         -3.5210    0.5050   -1.1580 c1        1 S45     -0.087000
      7 C9         -4.9090    0.5310   -1.1390 c1        1 S45     -0.136000
      8 C1         -1.3920   -0.3310   -0.2880 c1        1 S45     -0.044000
      9 N1         -0.6220    0.2460    0.6530 n2        1 S45     -0.162000
     10 C2          0.7010    0.0070    0.3290 c1        1 S45      0.042000
     11 O1          0.7260   -0.7050   -0.7930 os        1 S45     -0.082000
     12 N2         -0.5770   -0.9230   -1.1890 n2        1 S45     -0.037000
     13 C3          1.9230    0.4470    1.1440 c2        1 S45     -0.034000
     14 C11         2.5640    1.5870    0.4620 c3        1 S45     -0.155000
     15 C13         3.2030    1.1910   -0.8050 c3        1 S45     -0.162000
     16 C12         4.1600   -0.0160   -0.6330 c3        1 S45     -0.076000
     17 N3          3.5190   -1.1470    0.0520 n3        1 S45     -0.300000
     18 C8          2.8860   -0.7620    1.3080 c3        1 S45     -0.067000
     19 H10        -5.4180   -1.7330    1.1890 ha        1 S45      0.151000
     20 H6         -3.0510   -1.7720    1.1500 ha        1 S45      0.159000
     21 H5         -3.0340    1.0830   -1.7630 ha        1 S45      0.155000
     22 H9         -5.3980    1.1400   -1.7430 ha        1 S45      0.151000
     23 H3          1.6280    0.7320    2.0200 ha        1 S45      0.122000
     24 H11         1.8790    2.2730    0.2740 hc        1 S45      0.094500
     25 H11A        3.2420    1.9700    1.0550 hc        1 S45      0.094500
     26 H13         2.4990    0.9500   -1.4560 hc        1 S45      0.097500
     27 H13A        3.7060    1.9440   -1.1520 hc        1 S45      0.097500
     28 H12         4.9340    0.2670   -0.1140 h1        1 S45      0.070000
     29 H12A        4.4650   -0.3140   -1.5280 h1        1 S45      0.070000
     30 HN3         4.1780   -1.8370    0.2230 hn        1 S45      0.166000
     31 H8          3.5980   -0.5200    1.9640 h1        1 S45      0.083000
     32 H8A         2.3720   -1.5410    1.6630 h1        1 S45      0.083000
@<TRIPOS>BOND
     1    1    2 1   
     2    2    3 1   
     3    2    7 1   
     4    3    4 1   
     5    3   19 1   
     6    4   20 1   
     7    5    6 1   
     8    6   21 1   
     9    7   22 1   
    10    8    9 1   
    11    8   12 1   
    12    9   10 1   
    13   10   11 1   
    14   11   12 1   
    15   13   14 1   
    16   13   18 1   
    17   13   23 1   
    18   14   15 1   
    19   14   24 1   
    20   14   25 1   
    21   15   16 1   
    22   15   26 1   
    23   15   27 1   
    24   16   17 1   
    25   16   28 1   
    26   16   29 1   
    27   17   18 1   
    28   17   30 1   
    29   18   31 1   
    30   18   32 1   
@<TRIPOS>SUBSTRUCTURE
     1 S45         1 TEMP              0 ****  ****    0 ROOT
