@<TRIPOS>MOLECULE
S45
   32    34     1     0     0
SMALL
bcc


@<TRIPOS>ATOM
      1 CL1         0.0120   -0.0320    0.0950 cl        1 S45     -0.087400
      2 C7          1.7100   -0.0150    0.0600 ca        1 S45      0.034400
      3 C10         2.4300   -0.0790    1.2570 ca        1 S45     -0.136500
      4 C6          3.8230   -0.0650    1.2260 ca        1 S45     -0.082000
      5 C4          4.5030    0.0130    0.0020 ca        1 S45     -0.131500
      6 C5          3.7720    0.0760   -1.1940 ca        1 S45     -0.082000
      7 C9          2.3790    0.0630   -1.1660 ca        1 S45     -0.136500
      8 C1          5.9620    0.0280   -0.0240 cc        1 S45      0.587500
      9 N1          6.7300   -0.0260   -1.2300 nc        1 S45     -0.680000
     10 C2          7.9920    0.0090   -0.8140 cd        1 S45      0.509700
     11 O1          8.0200    0.0830    0.6140 os        1 S45     -0.141100
     12 N2          6.7870    0.0930    1.0590 nd        1 S45     -0.369300
     13 C3          9.2930   -0.0230   -1.5290 c3        1 S45     -0.094000
     14 C11        10.0880   -1.2610   -1.1320 c3        1 S45     -0.078400
     15 C13        11.4530   -1.2350   -1.7860 c3        1 S45     -0.077400
     16 C12        12.1890    0.0680   -1.4770 c3        1 S45      0.158800
     17 N3         11.4060    1.2460   -1.7970 n3        1 S45     -0.819200
     18 C8         10.0870    1.2550   -1.1970 c3        1 S45      0.164800
     19 H10         1.9030   -0.1400    2.2210 ha        1 S45      0.152000
     20 H6          4.3800   -0.1170    2.1750 ha        1 S45      0.158000
     21 H5          4.2890    0.1380   -2.1650 ha        1 S45      0.158000
     22 H9          1.8110    0.1130   -2.1070 ha        1 S45      0.152000
     23 H3          9.0910   -0.0530   -2.6380 hc        1 S45      0.100700
     24 H11         9.5320   -2.1830   -1.4440 hc        1 S45      0.056200
     25 H11A       10.1980   -1.2900   -0.0150 hc        1 S45      0.056200
     26 H13        12.0690   -2.0920   -1.4090 hc        1 S45      0.053200
     27 H13A       11.3420   -1.3540   -2.8960 hc        1 S45      0.053200
     28 H12        13.1270    0.1150   -2.0980 h1        1 S45      0.033200
     29 H12A       12.4980    0.0470   -0.3900 h1        1 S45      0.033200
     30 HN3        11.9050    2.0750   -1.5290 hn        1 S45      0.370800
     31 H8         10.1230    1.3580   -0.0720 h1        1 S45      0.044200
     32 H8A         9.5340    2.1460   -1.6100 h1        1 S45      0.044200
@<TRIPOS>BOND
     1    1    2 1   
     2    2    3 ar  
     3    2    7 ar  
     4    3    4 ar  
     5    3   19 1   
     6    4    5 ar  
     7    4   20 1   
     8    5    6 ar  
     9    5    8 1   
    10    6    7 ar  
    11    6   21 1   
    12    7   22 1   
    13    8    9 1   
    14    8   12 2   
    15    9   10 2   
    16   10   11 1   
    17   10   13 1   
    18   11   12 1   
    19   13   14 1   
    20   13   18 1   
    21   13   23 1   
    22   14   15 1   
    23   14   24 1   
    24   14   25 1   
    25   15   16 1   
    26   15   26 1   
    27   15   27 1   
    28   16   17 1   
    29   16   28 1   
    30   16   29 1   
    31   17   18 1   
    32   17   30 1   
    33   18   31 1   
    34   18   32 1   
@<TRIPOS>SUBSTRUCTURE
     1 S45         1 TEMP              0 ****  ****    0 ROOT
