@<TRIPOS>MOLECULE
S46
   32    33     1     0     0
SMALL
bcc


@<TRIPOS>ATOM
      1 C01        -0.0310    0.1740    0.1260 c3        1 S46      0.078000
      2 C02         1.5080    0.0660    0.0440 c3        1 S46      0.142300
      3 N03         2.1360   -0.0820    1.3490 n3        1 S46     -0.732600
      4 C04         1.5320   -1.1410    2.1460 c3        1 S46      0.142300
      5 C05        -0.0060   -1.0340    2.2220 c3        1 S46      0.078000
      6 N06        -0.6470   -0.8520    0.9350 n         1 S46     -0.453800
      7 C07         3.5720   -0.2090    1.2580 c3        1 S46      0.157100
      8 C08        -1.3570   -1.9140    0.3680 c         1 S46      0.666700
      9 O09        -1.5170   -2.9770    1.0010 o         1 S46     -0.595100
     10 C10        -1.9930   -1.7280   -0.9670 ca        1 S46     -0.172600
     11 C11        -1.8330   -2.7350   -1.9280 ca        1 S46     -0.056500
     12 C12        -2.7970   -0.6180   -1.2420 ca        1 S46     -0.056500
     13 C13        -3.4290   -0.4990   -2.4770 ca        1 S46     -0.194500
     14 C14        -3.2480   -1.5030   -3.4390 ca        1 S46      0.143100
     15 C15        -2.4480   -2.6280   -3.1690 ca        1 S46     -0.194500
     16 O16        -3.8300   -1.4520   -4.6830 oh        1 S46     -0.493100
     17 H1         -0.3010    1.1690    0.5840 h1        1 S46      0.066700
     18 H2         -0.4320    0.1480   -0.9250 h1        1 S46      0.066700
     19 H3          1.8930    1.0190   -0.4150 h1        1 S46      0.039450
     20 H4          1.7760   -0.7840   -0.6490 h1        1 S46      0.039450
     21 H6          1.8060   -2.1650    1.7580 h1        1 S46      0.039450
     22 H7          1.9340   -1.0500    3.1930 h1        1 S46      0.039450
     23 H8         -0.2800   -0.1440    2.8570 h1        1 S46      0.066700
     24 H9         -0.3980   -1.9660    2.7180 h1        1 S46      0.066700
     25 H10         3.9050   -1.1390    0.7200 h1        1 S46      0.033367
     26 H11         3.9810    0.6820    0.7150 h1        1 S46      0.033367
     27 H12         3.9980   -0.2270    2.2960 h1        1 S46      0.033367
     28 H13        -1.2230   -3.6210   -1.6880 ha        1 S46      0.149500
     29 H14        -2.9390    0.1640   -0.4780 ha        1 S46      0.149500
     30 H15        -4.0660    0.3700   -2.6930 ha        1 S46      0.147000
     31 H16        -2.3280   -3.4060   -3.9360 ha        1 S46      0.147000
     32 H17        -4.3710   -0.6490   -4.7280 ho        1 S46      0.422000
@<TRIPOS>BOND
     1    1    2 1   
     2    1    6 1   
     3    1   17 1   
     4    1   18 1   
     5    2    3 1   
     6    2   19 1   
     7    2   20 1   
     8    3    4 1   
     9    3    7 1   
    10    4    5 1   
    11    4   21 1   
    12    4   22 1   
    13    5    6 1   
    14    5   23 1   
    15    5   24 1   
    16    6    8 1   
    17    7   25 1   
    18    7   26 1   
    19    7   27 1   
    20    8    9 2   
    21    8   10 1   
    22   10   11 ar  
    23   10   12 ar  
    24   11   15 ar  
    25   11   28 1   
    26   12   13 ar  
    27   12   29 1   
    28   13   14 ar  
    29   13   30 1   
    30   14   15 ar  
    31   14   16 1   
    32   15   31 1   
    33   16   32 1   
@<TRIPOS>SUBSTRUCTURE
     1 S46         1 TEMP              0 ****  ****    0 ROOT
