@<TRIPOS>MOLECULE
S46
   32    33     1     0     0
SMALL
bcc


@<TRIPOS>ATOM
      1 C01         0.0480    0.2030    0.1160 c3        1 S46      0.078500
      2 C02         1.5830    0.0390    0.0680 c3        1 S46      0.142800
      3 N03         2.1780   -0.1330    1.3850 n3        1 S46     -0.731600
      4 C04         1.5190   -1.1690    2.1670 c3        1 S46      0.142800
      5 C05        -0.0150   -1.0050    2.2120 c3        1 S46      0.078500
      6 N06        -0.6230   -0.7980    0.9130 n         1 S46     -0.453800
      7 C07         3.6100   -0.3120    1.3240 c3        1 S46      0.157100
      8 C08        -1.3680   -1.8280    0.3340 c         1 S46      0.667700
      9 O09        -1.5790   -2.8860    0.9610 o         1 S46     -0.597100
     10 C10        -1.9780   -1.6150   -1.0090 ca        1 S46     -0.173600
     11 C11        -1.8690   -2.6370   -1.9590 ca        1 S46     -0.056000
     12 C12        -2.7130   -0.4600   -1.3020 ca        1 S46     -0.056000
     13 C13        -3.3240   -0.3100   -2.5410 ca        1 S46     -0.195000
     14 C14        -3.1930   -1.3340   -3.4960 ca        1 S46      0.143100
     15 C15        -2.4670   -2.4990   -3.2080 ca        1 S46     -0.195000
     16 O16        -3.8110   -1.1250   -4.7050 oh        1 S46     -0.493100
     17 H1         -0.3310    0.1910   -0.9430 h1        1 S46      0.066700
     18 H2         -0.1950    1.2080    0.5680 h1        1 S46      0.066700
     19 H3          1.8350   -0.8210   -0.6210 h1        1 S46      0.039450
     20 H4          2.0130    0.9770   -0.3830 h1        1 S46      0.039450
     21 H6          1.9020   -1.0940    3.2230 h1        1 S46      0.039450
     22 H7          1.7640   -2.2020    1.7840 h1        1 S46      0.039450
     23 H8         -0.4510   -1.9220    2.6990 h1        1 S46      0.066700
     24 H9         -0.2690   -0.1060    2.8430 h1        1 S46      0.066700
     25 H10         4.0130   -0.3460    2.3700 h1        1 S46      0.033700
     26 H11         4.0620    0.5640    0.7900 h1        1 S46      0.033700
     27 H12         3.9210   -1.2540    0.7910 h1        1 S46      0.033700
     28 H13        -1.3170   -3.5560   -1.7070 ha        1 S46      0.149000
     29 H14        -2.8160    0.3330   -0.5440 ha        1 S46      0.149000
     30 H15        -3.9090    0.5880   -2.7850 ha        1 S46      0.147000
     31 H16        -2.3780   -3.2980   -3.9570 ha        1 S46      0.147000
     32 H17        -3.6700   -1.9100   -5.2550 ho        1 S46      0.423000
@<TRIPOS>BOND
     1    1    2 1   
     2    1    6 1   
     3    1   17 1   
     4    1   18 1   
     5    2    3 1   
     6    2   19 1   
     7    2   20 1   
     8    3    4 1   
     9    3    7 1   
    10    4    5 1   
    11    4   21 1   
    12    4   22 1   
    13    5    6 1   
    14    5   23 1   
    15    5   24 1   
    16    6    8 1   
    17    7   25 1   
    18    7   26 1   
    19    7   27 1   
    20    8    9 2   
    21    8   10 1   
    22   10   11 ar  
    23   10   12 ar  
    24   11   15 ar  
    25   11   28 1   
    26   12   13 ar  
    27   12   29 1   
    28   13   14 ar  
    29   13   30 1   
    30   14   15 ar  
    31   14   16 1   
    32   15   31 1   
    33   16   32 1   
@<TRIPOS>SUBSTRUCTURE
     1 S46         1 TEMP              0 ****  ****    0 ROOT
