@<TRIPOS>MOLECULE
S46
   32    33     1     0     0
SMALL
bcc


@<TRIPOS>ATOM
      1 C01         0.0720    0.1810    0.0540 c3        1 S46      0.078000
      2 C02         1.6040   -0.0200    0.0320 c3        1 S46      0.142300
      3 N03         2.1800   -0.1330    1.3640 n3        1 S46     -0.732600
      4 C04         1.4900   -1.1110    2.1930 c3        1 S46      0.142300
      5 C05        -0.0410   -0.9120    2.2100 c3        1 S46      0.078000
      6 N06        -0.6290   -0.7620    0.8940 n         1 S46     -0.453800
      7 C07         3.6090   -0.3480    1.3300 c3        1 S46      0.157100
      8 C08        -1.3820   -1.8110    0.3590 c         1 S46      0.666700
      9 O09        -1.6250   -2.8280    1.0400 o         1 S46     -0.595100
     10 C10        -1.9630   -1.6610   -1.0050 ca        1 S46     -0.172600
     11 C11        -1.8320   -2.7270   -1.9070 ca        1 S46     -0.056500
     12 C12        -2.6900   -0.5230   -1.3660 ca        1 S46     -0.056500
     13 C13        -3.2740   -0.4350   -2.6270 ca        1 S46     -0.194500
     14 C14        -3.1230   -1.4990   -3.5290 ca        1 S46      0.143100
     15 C15        -2.4010   -2.6510   -3.1730 ca        1 S46     -0.194500
     16 O16        -3.6620   -1.4810   -4.7930 oh        1 S46     -0.493100
     17 H1         -0.2960    0.1210   -1.0070 h1        1 S46      0.066700
     18 H2         -0.1520    1.2130    0.4500 h1        1 S46      0.066700
     19 H3          2.0600    0.8820   -0.4620 h1        1 S46      0.039450
     20 H4          1.8430   -0.9210   -0.6060 h1        1 S46      0.039450
     21 H6          1.7150   -2.1690    1.8690 h1        1 S46      0.039450
     22 H7          1.8630   -0.9870    3.2480 h1        1 S46      0.039450
     23 H8         -0.5030   -1.7910    2.7400 h1        1 S46      0.066700
     24 H9         -0.2820    0.0260    2.7880 h1        1 S46      0.066700
     25 H10         4.0870    0.4880    0.7560 h1        1 S46      0.033367
     26 H11         4.0000   -0.3350    2.3810 h1        1 S46      0.033367
     27 H12         3.9030   -1.3240    0.8530 h1        1 S46      0.033367
     28 H13        -1.2850   -3.6320   -1.5990 ha        1 S46      0.149500
     29 H14        -2.8100    0.3050   -0.6500 ha        1 S46      0.149500
     30 H15        -3.8510    0.4560   -2.9100 ha        1 S46      0.147000
     31 H16        -2.3030   -3.4760   -3.8930 ha        1 S46      0.147000
     32 H17        -4.1520   -0.6520   -4.8990 ho        1 S46      0.422000
@<TRIPOS>BOND
     1    1    2 1   
     2    1    6 1   
     3    1   17 1   
     4    1   18 1   
     5    2    3 1   
     6    2   19 1   
     7    2   20 1   
     8    3    4 1   
     9    3    7 1   
    10    4    5 1   
    11    4   21 1   
    12    4   22 1   
    13    5    6 1   
    14    5   23 1   
    15    5   24 1   
    16    6    8 1   
    17    7   25 1   
    18    7   26 1   
    19    7   27 1   
    20    8    9 2   
    21    8   10 1   
    22   10   11 ar  
    23   10   12 ar  
    24   11   15 ar  
    25   11   28 1   
    26   12   13 ar  
    27   12   29 1   
    28   13   14 ar  
    29   13   30 1   
    30   14   15 ar  
    31   14   16 1   
    32   15   31 1   
    33   16   32 1   
@<TRIPOS>SUBSTRUCTURE
     1 S46         1 TEMP              0 ****  ****    0 ROOT
