@<TRIPOS>MOLECULE
S47
   58    62     1     0     0
SMALL
bcc


@<TRIPOS>ATOM
      1 C1          0.0360    0.2120    0.1530 c3        1 S47      0.121600
      2 N1          0.7000    0.3320    2.5140 n3        1 S47     -0.789200
      3 O1         -0.6320   -0.8760   -0.4950 os        1 S47     -0.446900
      4 C2         -1.9600   -0.7090   -0.7990 c         1 S47      0.638600
      5 O2         -2.4920    0.3660   -0.5240 o         1 S47     -0.525000
      6 O3          2.2680    0.8530   -0.3620 os        1 S47     -0.446900
      7 C4          1.5220   -0.2010    0.2630 c3        1 S47      0.121600
      8 O4          4.0660   -0.4790   -0.3460 o         1 S47     -0.525000
      9 C5          3.5910    0.6170   -0.6400 c         1 S47      0.638600
     10 C6         -2.5550   -1.9500   -1.3980 c3        1 S47     -0.080600
     11 C7         -0.4470    0.3850    1.6150 c3        1 S47      0.126800
     12 C13        -3.2930   -1.6850   -2.6640 ca        1 S47     -0.077800
     13 C14        -4.6720   -1.7250   -2.6670 ca        1 S47     -0.102500
     14 C15        -5.4010   -1.5350   -3.8630 ca        1 S47     -0.130000
     15 C16        -4.7430   -1.3080   -5.0450 ca        1 S47     -0.106500
     16 C17        -3.3230   -1.2530   -5.0780 ca        1 S47     -0.038500
     17 C18        -2.5850   -1.4330   -3.8790 ca        1 S47     -0.023000
     18 C19        -1.1660   -1.3500   -3.9330 ca        1 S47     -0.127000
     19 C20         6.2980    1.4100   -2.5860 ca        1 S47     -0.102500
     20 C21        -1.2580   -0.9470   -6.3170 ca        1 S47     -0.130000
     21 C22        -2.6280   -1.0150   -6.2960 ca        1 S47     -0.115000
     22 C23        -0.5200   -1.1100   -5.1210 ca        1 S47     -0.124500
     23 C24         6.9630    1.1860   -3.8130 ca        1 S47     -0.130000
     24 C25         6.2470    1.0830   -4.9790 ca        1 S47     -0.106500
     25 C26         4.8290    1.1900   -4.9630 ca        1 S47     -0.038500
     26 C27         4.1540    1.4030   -3.7320 ca        1 S47     -0.023000
     27 C28         4.0740    1.0820   -6.1640 ca        1 S47     -0.115000
     28 C29         2.7050    1.1710   -6.1390 ca        1 S47     -0.130000
     29 C30         2.0290    1.3670   -4.9120 ca        1 S47     -0.124500
     30 C31         2.7340    1.4810   -3.7390 ca        1 S47     -0.127000
     31 C32         1.8130   -0.2620    1.7820 c3        1 S47      0.126800
     32 C33         4.9250    1.5250   -2.5350 ca        1 S47     -0.077800
     33 C34         4.2620    1.8210   -1.2350 c3        1 S47     -0.080600
     34 H1         -0.1050    1.1470   -0.4480 h1        1 S47      0.095200
     35 HN1         0.9410    1.2570    2.8220 hn        1 S47      0.352800
     36 H4          1.7400   -1.1750   -0.2450 h1        1 S47      0.095200
     37 H6         -1.7420   -2.7060   -1.5780 hc        1 S47      0.086700
     38 H6A        -3.2500   -2.3760   -0.6210 hc        1 S47      0.086700
     39 H7         -1.1350   -0.4650    1.8790 h1        1 S47      0.067700
     40 H7A        -1.0220    1.3430    1.7200 h1        1 S47      0.067700
     41 H14        -5.2270   -1.9060   -1.7330 ha        1 S47      0.135500
     42 H15        -6.5000   -1.5720   -3.8280 ha        1 S47      0.136000
     43 H16        -5.2990   -1.1640   -5.9840 ha        1 S47      0.135000
     44 H19        -0.5890   -1.4680   -3.0010 ha        1 S47      0.142500
     45 H21        -0.7180   -0.7650   -7.2580 ha        1 S47      0.132500
     46 H22        -3.2150   -0.8850   -7.2180 ha        1 S47      0.133500
     47 H23         0.5780   -1.0360   -5.1550 ha        1 S47      0.140000
     48 H24         8.0600    1.0970   -3.8160 ha        1 S47      0.136000
     49 H25         6.7530    0.9140   -5.9410 ha        1 S47      0.135000
     50 H28         4.6130    0.9230   -7.1100 ha        1 S47      0.133500
     51 H29         2.1190    1.0910   -7.0660 ha        1 S47      0.132500
     52 H30         0.9290    1.4230   -4.9100 ha        1 S47      0.140000
     53 H31         2.2020    1.6200   -2.7830 ha        1 S47      0.142500
     54 H32         1.8890   -1.3400    2.0920 h1        1 S47      0.067700
     55 H32A        2.7880    0.2420    2.0140 h1        1 S47      0.067700
     56 H34         3.5090    2.6470   -1.3650 hc        1 S47      0.086700
     57 H34A        5.0220    2.1680   -0.4800 hc        1 S47      0.086700
     58 H20         6.8990    1.4900   -1.6660 ha        1 S47      0.135500
@<TRIPOS>BOND
     1    1    3 1   
     2    1    7 1   
     3    1   11 1   
     4    1   34 1   
     5    2   11 1   
     6    2   31 1   
     7    2   35 1   
     8    3    4 1   
     9    4    5 2   
    10    4   10 1   
    11    6    7 1   
    12    6    9 1   
    13    7   31 1   
    14    7   36 1   
    15    8    9 2   
    16    9   33 1   
    17   10   12 1   
    18   10   37 1   
    19   10   38 1   
    20   11   39 1   
    21   11   40 1   
    22   12   13 ar  
    23   12   17 ar  
    24   13   14 ar  
    25   13   41 1   
    26   14   15 ar  
    27   14   42 1   
    28   15   16 ar  
    29   15   43 1   
    30   16   17 ar  
    31   16   21 ar  
    32   17   18 ar  
    33   18   22 ar  
    34   18   44 1   
    35   19   23 ar  
    36   19   32 ar  
    37   19   58 1   
    38   20   21 ar  
    39   20   22 ar  
    40   20   45 1   
    41   21   46 1   
    42   22   47 1   
    43   23   24 ar  
    44   23   48 1   
    45   24   25 ar  
    46   24   49 1   
    47   25   26 ar  
    48   25   27 ar  
    49   26   30 ar  
    50   26   32 ar  
    51   27   28 ar  
    52   27   50 1   
    53   28   29 ar  
    54   28   51 1   
    55   29   30 ar  
    56   29   52 1   
    57   30   53 1   
    58   31   54 1   
    59   31   55 1   
    60   32   33 1   
    61   33   56 1   
    62   33   57 1   
@<TRIPOS>SUBSTRUCTURE
     1 S47         1 TEMP              0 ****  ****    0 ROOT
