@<TRIPOS>MOLECULE
S47
   58    62     1     0     0
SMALL
bcc


@<TRIPOS>ATOM
      1 C1          0.0350    0.1150    0.1670 c3        1 S47      0.121600
      2 N1          0.7250    0.1330    2.5230 n3        1 S47     -0.789200
      3 O1         -0.6470   -0.9430   -0.5170 os        1 S47     -0.446900
      4 C2         -1.9760   -0.7530   -0.8050 c         1 S47      0.638600
      5 O2         -2.4960    0.3150   -0.4860 o         1 S47     -0.525000
      6 O3          2.2630    0.7680   -0.3450 os        1 S47     -0.446900
      7 C4          1.5200   -0.3090    0.2420 c3        1 S47      0.121600
      8 O4          4.0590   -0.5650   -0.3940 o         1 S47     -0.525000
      9 C5          3.5840    0.5420   -0.6400 c         1 S47      0.638600
     10 C6         -2.5860   -1.9660   -1.4460 c3        1 S47     -0.080600
     11 C7         -0.4320    0.2300    1.6410 c3        1 S47      0.126800
     12 C13        -3.3140   -1.6490   -2.7050 ca        1 S47     -0.077800
     13 C14        -4.6940   -1.6630   -2.7130 ca        1 S47     -0.102500
     14 C15        -5.4150   -1.4220   -3.9050 ca        1 S47     -0.130000
     15 C16        -4.7490   -1.1740   -5.0790 ca        1 S47     -0.106500
     16 C17        -3.3280   -1.1460   -5.1060 ca        1 S47     -0.038000
     17 C18        -2.5980   -1.3750   -3.9110 ca        1 S47     -0.023000
     18 C19        -1.1770   -1.3180   -3.9580 ca        1 S47     -0.127000
     19 C20         6.2990    1.4210   -2.5430 ca        1 S47     -0.102500
     20 C21        -1.2530   -0.8450   -6.3310 ca        1 S47     -0.130000
     21 C22        -2.6250   -0.8860   -6.3150 ca        1 S47     -0.115000
     22 C23        -0.5220   -1.0570   -5.1370 ca        1 S47     -0.124500
     23 C24         6.9720    1.2440   -3.7740 ca        1 S47     -0.130000
     24 C25         6.2620    1.1720   -4.9460 ca        1 S47     -0.106500
     25 C26         4.8430    1.2640   -4.9340 ca        1 S47     -0.038000
     26 C27         4.1610    1.4300   -3.7000 ca        1 S47     -0.023000
     27 C28         4.0950    1.1880   -6.1410 ca        1 S47     -0.115000
     28 C29         2.7250    1.2630   -6.1200 ca        1 S47     -0.130000
     29 C30         2.0410    1.4110   -4.8900 ca        1 S47     -0.124500
     30 C31         2.7390    1.4940   -3.7110 ca        1 S47     -0.127000
     31 C32         1.8260   -0.4350    1.7550 c3        1 S47      0.126800
     32 C33         4.9240    1.5210   -2.4960 ca        1 S47     -0.077800
     33 C34         4.2530    1.7690   -1.1900 c3        1 S47     -0.080600
     34 H1         -0.1090    1.0750   -0.3940 h1        1 S47      0.095200
     35 HN1         0.9740    1.0430    2.8670 hn        1 S47      0.352800
     36 H4          1.7280   -1.2610   -0.3080 h1        1 S47      0.095200
     37 H6         -1.7830   -2.7280   -1.6470 hc        1 S47      0.086700
     38 H6A        -3.2900   -2.4060   -0.6860 hc        1 S47      0.086700
     39 H7         -1.0000    1.1850    1.7920 h1        1 S47      0.067700
     40 H7A        -1.1210   -0.6270    1.8760 h1        1 S47      0.067700
     41 H14        -5.2550   -1.8600   -1.7870 ha        1 S47      0.136000
     42 H15        -6.5140   -1.4390   -3.8740 ha        1 S47      0.136000
     43 H16        -5.2990   -0.9910   -6.0140 ha        1 S47      0.135000
     44 H19        -0.6050   -1.4740   -3.0290 ha        1 S47      0.142000
     45 H21        -0.7070   -0.6460   -7.2650 ha        1 S47      0.132500
     46 H22        -3.2050   -0.7170   -7.2350 ha        1 S47      0.133500
     47 H23         0.5770   -1.0030   -5.1660 ha        1 S47      0.140000
     48 H24         8.0690    1.1660   -3.7740 ha        1 S47      0.136000
     49 H25         6.7740    1.0400   -5.9110 ha        1 S47      0.135000
     50 H28         4.6390    1.0660   -7.0900 ha        1 S47      0.133500
     51 H29         2.1440    1.2060   -7.0520 ha        1 S47      0.132500
     52 H30         0.9400    1.4550   -4.8920 ha        1 S47      0.140000
     53 H31         2.2020    1.5980   -2.7530 ha        1 S47      0.142000
     54 H32         2.8070    0.0530    1.9970 h1        1 S47      0.067700
     55 H32A        1.8990   -1.5260    2.0180 h1        1 S47      0.067700
     56 H34         3.4970    2.5940   -1.2960 hc        1 S47      0.086700
     57 H34A        5.0060    2.0930   -0.4190 hc        1 S47      0.086700
     58 H20         6.8950    1.4770   -1.6190 ha        1 S47      0.136000
@<TRIPOS>BOND
     1    1    3 1   
     2    1    7 1   
     3    1   11 1   
     4    1   34 1   
     5    2   11 1   
     6    2   31 1   
     7    2   35 1   
     8    3    4 1   
     9    4    5 2   
    10    4   10 1   
    11    6    7 1   
    12    6    9 1   
    13    7   31 1   
    14    7   36 1   
    15    8    9 2   
    16    9   33 1   
    17   10   12 1   
    18   10   37 1   
    19   10   38 1   
    20   11   39 1   
    21   11   40 1   
    22   12   13 ar  
    23   12   17 ar  
    24   13   14 ar  
    25   13   41 1   
    26   14   15 ar  
    27   14   42 1   
    28   15   16 ar  
    29   15   43 1   
    30   16   17 ar  
    31   16   21 ar  
    32   17   18 ar  
    33   18   22 ar  
    34   18   44 1   
    35   19   23 ar  
    36   19   32 ar  
    37   19   58 1   
    38   20   21 ar  
    39   20   22 ar  
    40   20   45 1   
    41   21   46 1   
    42   22   47 1   
    43   23   24 ar  
    44   23   48 1   
    45   24   25 ar  
    46   24   49 1   
    47   25   26 ar  
    48   25   27 ar  
    49   26   30 ar  
    50   26   32 ar  
    51   27   28 ar  
    52   27   50 1   
    53   28   29 ar  
    54   28   51 1   
    55   29   30 ar  
    56   29   52 1   
    57   30   53 1   
    58   31   54 1   
    59   31   55 1   
    60   32   33 1   
    61   33   56 1   
    62   33   57 1   
@<TRIPOS>SUBSTRUCTURE
     1 S47         1 TEMP              0 ****  ****    0 ROOT
