@<TRIPOS>MOLECULE
S47
   58    62     1     0     0
SMALL
bcc


@<TRIPOS>ATOM
      1 C1          0.5380    3.0280    0.6130 c3        1 S47      0.104100
      2 N1         -0.1180    5.3690    0.2900 n3        1 S47     -0.788200
      3 O1          1.7190    2.4090    0.0980 os        1 S47     -0.447400
      4 C2          2.3590    1.4640    0.8610 c         1 S47      0.646100
      5 O2          1.9460    1.2380    1.9970 o         1 S47     -0.531500
      6 O3         -1.6920    2.4840   -0.0750 os        1 S47     -0.447400
      7 C4         -0.4860    3.0910   -0.5480 c3        1 S47      0.104100
      8 O4         -1.8630    1.2990   -1.9720 o         1 S47     -0.531500
      9 C5         -2.3080    1.5330   -0.8500 c         1 S47      0.646100
     10 C6          3.5430    0.8880    0.1370 c3        1 S47     -0.079100
     11 C7          0.8460    4.5060    0.9630 c3        1 S47      0.133300
     12 C13         3.4510   -0.5880   -0.0360 ca        1 S47     -0.079300
     13 C14         4.3200   -1.4040    0.6590 ca        1 S47     -0.107000
     14 C15         4.3000   -2.8060    0.4780 ca        1 S47     -0.135500
     15 C16         3.4090   -3.3780   -0.3940 ca        1 S47     -0.105000
     16 C17         2.4910   -2.5700   -1.1180 ca        1 S47     -0.039000
     17 C18         2.5070   -1.1610   -0.9430 ca        1 S47     -0.021000
     18 C19         1.5670   -0.3760   -1.6670 ca        1 S47     -0.135500
     19 C20        -4.3160   -1.3140   -0.7070 ca        1 S47     -0.107000
     20 C21         0.6480   -2.3680   -2.6870 ca        1 S47     -0.122500
     21 C22         1.5490   -3.1520   -2.0100 ca        1 S47     -0.118500
     22 C23         0.6540   -0.9640   -2.5080 ca        1 S47     -0.110000
     23 C24        -4.3160   -2.7180   -0.5390 ca        1 S47     -0.135500
     24 C25        -3.4390   -3.3090    0.3350 ca        1 S47     -0.105000
     25 C26        -2.5170   -2.5190    1.0750 ca        1 S47     -0.039000
     26 C27        -2.5140   -1.1090    0.9130 ca        1 S47     -0.021000
     27 C28        -1.5890   -3.1220    1.9680 ca        1 S47     -0.118500
     28 C29        -0.6840   -2.3550    2.6590 ca        1 S47     -0.122500
     29 C30        -0.6710   -0.9490    2.4940 ca        1 S47     -0.110000
     30 C31        -1.5710   -0.3430    1.6530 ca        1 S47     -0.135500
     31 C32        -0.7420    4.6000   -0.7810 c3        1 S47      0.133300
     32 C33        -3.4430   -0.5160    0.0030 ca        1 S47     -0.079300
     33 C34        -3.5150    0.9630   -0.1580 c3        1 S47     -0.079100
     34 H1          0.1330    2.4600    1.4910 h1        1 S47      0.104700
     35 HN1        -0.8140    5.6810    0.9420 hn        1 S47      0.352800
     36 H4         -0.1040    2.5800   -1.4700 h1        1 S47      0.104700
     37 H6          3.6400    1.3820   -0.8690 hc        1 S47      0.085700
     38 H6A         4.4520    1.1580    0.7430 hc        1 S47      0.085700
     39 H7          0.8300    4.6540    2.0740 h1        1 S47      0.065450
     40 H7A         1.8710    4.7720    0.5830 h1        1 S47      0.065450
     41 H14         5.0440   -0.9740    1.3670 ha        1 S47      0.132500
     42 H15         5.0090   -3.4260    1.0470 ha        1 S47      0.134000
     43 H16         3.3850   -4.4680   -0.5440 ha        1 S47      0.133000
     44 H19         1.5660    0.7180   -1.5330 ha        1 S47      0.140000
     45 H21        -0.0890   -2.8170   -3.3690 ha        1 S47      0.134500
     46 H22         1.5540   -4.2450   -2.1390 ha        1 S47      0.131000
     47 H23        -0.0940   -0.3470   -3.0330 ha        1 S47      0.152000
     48 H24        -5.0270   -3.3230   -1.1190 ha        1 S47      0.134000
     49 H25        -3.4290   -4.4010    0.4750 ha        1 S47      0.133000
     50 H28        -1.6080   -4.2150    2.0860 ha        1 S47      0.131000
     51 H29         0.0430   -2.8200    3.3410 ha        1 S47      0.134500
     52 H30         0.0810   -0.3480    3.0310 ha        1 S47      0.152000
     53 H31        -1.5580    0.7530    1.5300 ha        1 S47      0.140000
     54 H32        -1.8420    4.8070   -0.8540 h1        1 S47      0.065450
     55 H32A       -0.2540    4.9040   -1.7470 h1        1 S47      0.065450
     56 H34        -3.6280    1.4480    0.8510 hc        1 S47      0.085700
     57 H34A       -4.4070    1.2490   -0.7800 hc        1 S47      0.085700
     58 H20        -5.0280   -0.8680   -1.4180 ha        1 S47      0.132500
@<TRIPOS>BOND
     1    1    3 1   
     2    1    7 1   
     3    1   11 1   
     4    1   34 1   
     5    2   11 1   
     6    2   31 1   
     7    2   35 1   
     8    3    4 1   
     9    4    5 2   
    10    4   10 1   
    11    6    7 1   
    12    6    9 1   
    13    7   31 1   
    14    7   36 1   
    15    8    9 2   
    16    9   33 1   
    17   10   12 1   
    18   10   37 1   
    19   10   38 1   
    20   11   39 1   
    21   11   40 1   
    22   12   13 ar  
    23   12   17 ar  
    24   13   14 ar  
    25   13   41 1   
    26   14   15 ar  
    27   14   42 1   
    28   15   16 ar  
    29   15   43 1   
    30   16   17 ar  
    31   16   21 ar  
    32   17   18 ar  
    33   18   22 ar  
    34   18   44 1   
    35   19   23 ar  
    36   19   32 ar  
    37   19   58 1   
    38   20   21 ar  
    39   20   22 ar  
    40   20   45 1   
    41   21   46 1   
    42   22   47 1   
    43   23   24 ar  
    44   23   48 1   
    45   24   25 ar  
    46   24   49 1   
    47   25   26 ar  
    48   25   27 ar  
    49   26   30 ar  
    50   26   32 ar  
    51   27   28 ar  
    52   27   50 1   
    53   28   29 ar  
    54   28   51 1   
    55   29   30 ar  
    56   29   52 1   
    57   30   53 1   
    58   31   54 1   
    59   31   55 1   
    60   32   33 1   
    61   33   56 1   
    62   33   57 1   
@<TRIPOS>SUBSTRUCTURE
     1 S47         1 TEMP              0 ****  ****    0 ROOT
