@<TRIPOS>MOLECULE
S47
   58    62     1     0     0
SMALL
bcc


@<TRIPOS>ATOM
      1 C1          0.0180    0.2240    0.1480 c3        1 S47      0.121600
      2 N1          0.6670    0.3410    2.5130 n7        1 S47     -0.789200
      3 O1         -0.6560   -0.8590   -0.5030 os        1 S47     -0.446900
      4 C2         -1.9810   -0.6780   -0.8170 c         1 S47      0.638600
      5 O2         -2.5030    0.4020   -0.5470 o         1 S47     -0.525000
      6 O3          2.2590    0.8430   -0.3530 os        1 S47     -0.446900
      7 C4          1.4990   -0.2040    0.2680 c3        1 S47      0.121600
      8 O4          4.0440   -0.5060   -0.3230 o         1 S47     -0.525000
      9 C5          3.5820    0.5940   -0.6210 c         1 S47      0.638600
     10 C6         -2.5840   -1.9150   -1.4180 c3        1 S47     -0.080600
     11 C7         -0.4730    0.4040    1.6070 c3        1 S47      0.126800
     12 C13        -3.3100   -1.6440   -2.6900 ca        1 S47     -0.077800
     13 C14        -4.6890   -1.6700   -2.7030 ca        1 S47     -0.102500
     14 C15        -5.4070   -1.4740   -3.9040 ca        1 S47     -0.130000
     15 C16        -4.7380   -1.2580   -5.0820 ca        1 S47     -0.106500
     16 C17        -3.3170   -1.2170   -5.1050 ca        1 S47     -0.038500
     17 C18        -2.5900   -1.4030   -3.9000 ca        1 S47     -0.023000
     18 C19        -1.1690   -1.3350   -3.9440 ca        1 S47     -0.127000
     19 C20         6.3110    1.3580   -2.5480 ca        1 S47     -0.102500
     20 C21        -1.2400   -0.9360   -6.3300 ca        1 S47     -0.130000
     21 C22        -2.6110   -0.9890   -6.3190 ca        1 S47     -0.115000
     22 C23        -0.5120   -1.1040   -5.1270 ca        1 S47     -0.124500
     23 C24         6.9840    1.1250   -3.7690 ca        1 S47     -0.130000
     24 C25         6.2750    1.0270   -4.9400 ca        1 S47     -0.106500
     25 C26         4.8590    1.1460   -4.9360 ca        1 S47     -0.038500
     26 C27         4.1770    1.3680   -3.7110 ca        1 S47     -0.023000
     27 C28         4.1120    1.0420   -6.1420 ca        1 S47     -0.115000
     28 C29         2.7440    1.1450   -6.1280 ca        1 S47     -0.130000
     29 C30         2.0590    1.3490   -4.9060 ca        1 S47     -0.124500
     30 C31         2.7570    1.4590   -3.7290 ca        1 S47     -0.127000
     31 C32         1.7790   -0.2650    1.7890 c3        1 S47      0.126800
     32 C33         4.9390    1.4860   -2.5080 ca        1 S47     -0.077800
     33 C34         4.2690    1.7900   -1.2130 c3        1 S47     -0.080600
     34 H1         -0.1100    1.1590   -0.4560 h1        1 S47      0.095200
     35 HN1         0.9150    1.2630    2.8210 hn        1 S47      0.352800
     36 H4          1.7110   -1.1810   -0.2370 h1        1 S47      0.095200
     37 H6         -1.7780   -2.6800   -1.5910 hc        1 S47      0.086700
     38 H6A        -3.2890   -2.3320   -0.6460 hc        1 S47      0.086700
     39 H7         -1.1710   -0.4400    1.8670 h1        1 S47      0.067700
     40 H7A        -1.0390    1.3670    1.7060 h1        1 S47      0.067700
     41 H14        -5.2530   -1.8440   -1.7730 ha        1 S47      0.135500
     42 H15        -6.5070   -1.5000   -3.8770 ha        1 S47      0.136000
     43 H16        -5.2860   -1.1090   -6.0250 ha        1 S47      0.135000
     44 H19        -0.6010   -1.4570   -3.0070 ha        1 S47      0.142500
     45 H21        -0.6910   -0.7610   -7.2670 ha        1 S47      0.132500
     46 H22        -3.1890   -0.8550   -7.2450 ha        1 S47      0.133500
     47 H23         0.5870   -1.0420   -5.1530 ha        1 S47      0.140000
     48 H24         8.0790    1.0270   -3.7640 ha        1 S47      0.136000
     49 H25         6.7870    0.8510   -5.8990 ha        1 S47      0.135000
     50 H28         4.6570    0.8780   -7.0840 ha        1 S47      0.133500
     51 H29         2.1640    1.0670   -7.0600 ha        1 S47      0.132500
     52 H30         0.9600    1.4140   -4.9140 ha        1 S47      0.140000
     53 H31         2.2190    1.6040   -2.7770 ha        1 S47      0.142500
     54 H32         1.8430   -1.3440    2.1010 h1        1 S47      0.067700
     55 H32A        2.7570    0.2300    2.0270 h1        1 S47      0.067700
     56 H34         5.0260    2.1320   -0.4530 hc        1 S47      0.086700
     57 H34A        3.5250    2.6220   -1.3510 hc        1 S47      0.086700
     58 H20         6.9060    1.4350   -1.6240 ha        1 S47      0.135500
@<TRIPOS>BOND
     1    1    3 1   
     2    1    7 1   
     3    1   11 1   
     4    1   34 1   
     5    2   11 1   
     6    2   31 1   
     7    2   35 1   
     8    3    4 1   
     9    4    5 2   
    10    4   10 1   
    11    6    7 1   
    12    6    9 1   
    13    7   31 1   
    14    7   36 1   
    15    8    9 2   
    16    9   33 1   
    17   10   12 1   
    18   10   37 1   
    19   10   38 1   
    20   11   39 1   
    21   11   40 1   
    22   12   13 ar  
    23   12   17 ar  
    24   13   14 ar  
    25   13   41 1   
    26   14   15 ar  
    27   14   42 1   
    28   15   16 ar  
    29   15   43 1   
    30   16   17 ar  
    31   16   21 ar  
    32   17   18 ar  
    33   18   22 ar  
    34   18   44 1   
    35   19   23 ar  
    36   19   32 ar  
    37   19   58 1   
    38   20   21 ar  
    39   20   22 ar  
    40   20   45 1   
    41   21   46 1   
    42   22   47 1   
    43   23   24 ar  
    44   23   48 1   
    45   24   25 ar  
    46   24   49 1   
    47   25   26 ar  
    48   25   27 ar  
    49   26   30 ar  
    50   26   32 ar  
    51   27   28 ar  
    52   27   50 1   
    53   28   29 ar  
    54   28   51 1   
    55   29   30 ar  
    56   29   52 1   
    57   30   53 1   
    58   31   54 1   
    59   31   55 1   
    60   32   33 1   
    61   33   56 1   
    62   33   57 1   
@<TRIPOS>SUBSTRUCTURE
     1 S47         1 TEMP              0 ****  ****    0 ROOT
