@<TRIPOS>MOLECULE
S48
   68    59     1     0     0
SMALL
bcc


@<TRIPOS>ATOM
      1 CAB        -2.0040   -8.0300    1.2510 c3        1 S48     -0.084000
      2 NBJ        -1.2660   -6.8290    1.2860 n3        1 S48     -0.150000
      3 CAR        -1.7320   -5.6310    1.6500 c1        1 S48      0.025000
      4 CAP         0.0170   -6.6690    0.8680 c1        1 S48     -0.087000
      5 NAX         0.3320   -5.3670    0.9780 n2        1 S48     -0.072000
      6 CBE        -0.7410   -4.7190    1.4590 c1        1 S48     -0.880000
      7 SBL        -0.8220   -2.9460    1.8770 ss        1 S48      2.889000
      8 OAE        -2.1600   -2.3910    1.6000 o         1 S48     -0.931000
      9 OAF        -0.7230   -2.7450    3.2740 o         1 S48     -0.931000
     10 N           0.5070   -1.9960    0.9660 n2        1 S48     -0.801000
     11 CA          1.5480   -1.3420    2.0700 c3        1 S48     -0.012000
     12 C           2.4380   -2.4410    2.6350 c2        1 S48      0.275000
     13 O           2.0120   -3.5400    2.7650 o         1 S48     -0.351000
     14 OAY         3.7930   -2.1400    3.0350 os        1 S48     -0.279000
     15 CAA         4.7240   -3.2230    2.8150 c3        1 S48     -0.064000
     16 CBG        -0.2140   -0.7500    0.0740 c3        1 S48      0.027000
     17 CAV         0.7010   -0.3540   -0.9480 c3        1 S48     -0.045000
     18 CAS        -0.6270    0.2630    0.9920 c3        1 S48     -0.127000
     19 CBC        -0.7950    1.7050    0.3980 c2        1 S48     -0.127000
     20 CAQ        -1.4390    2.7270    1.0940 c2        1 S48     -0.073000
     21 CBB        -1.7010    3.9660    0.4520 c1        1 S48     -0.080000
     22 CBA        -2.3990    4.9940    1.1480 c1        1 S48     -0.025000
     23 CAJ        -1.6900    5.9530    1.8660 c1        1 S48     -0.131167
     24 CAH        -2.3650    7.0060    2.4730 c1        1 S48     -0.131167
     25 CAG        -3.7220    7.1010    2.3660 c1        1 S48     -0.131167
     26 CAI        -4.4290    6.1470    1.6510 c1        1 S48     -0.131167
     27 CAK        -3.7540    5.0890    1.0410 c1        1 S48     -0.122000
     28 CAL        -1.3000    4.1660   -0.9230 c1        1 S48     -0.131167
     29 CAM        -0.6430    3.1250   -1.6290 c1        1 S48     -0.131167
     30 CBF        -0.3860    1.9120   -1.0030 c1        1 S48      0.100000
     31 NBH         0.3480    0.7460   -1.7170 n3        1 S48     -0.262000
     32 CAU         1.5440    1.2530   -2.4110 c3        1 S48      0.048000
     33 CBD         1.3810    1.0440   -3.9400 c2        1 S48     -0.159000
     34 CAN         0.2200    0.6820   -4.5890 c1        1 S48     -0.157000
     35 NAW         0.4660    0.6910   -5.9190 n2        1 S48     -0.145000
     36 CAO         1.7760    1.0580   -6.1070 c1        1 S48     -0.097000
     37 NBK         2.3340    1.2730   -4.8840 n2        1 S48     -0.158000
     38 CAC         3.7030    1.6690   -4.6370 c2        1 S48     -0.076000
     39 HAB1       -2.0750   -8.4110    2.1890 h1        1 S48      0.102667
     40 HAB2       -1.5460   -8.6800    0.6650 h1        1 S48      0.102667
     41 HAB3       -2.9420   -7.8440    0.8860 h1        1 S48      0.102667
     42 HAR        -2.6030   -5.4470    1.9830 DU        1 S48      0.202250
     43 HAP         0.6090   -7.3780    0.5420 DU        1 S48      0.202250
     44 HA1         1.0360   -0.9270    2.8020 h1        1 S48      0.139000
     45 HA2         2.0840   -0.6850    1.6480 h1        1 S48      0.139000
     46 HAA1        5.5800   -3.0030    3.2250 h1        1 S48      0.090333
     47 HAA2        4.8470   -3.3560    1.8610 h1        1 S48      0.090333
     48 HAA3        4.3750   -4.0370    3.2130 h1        1 S48      0.090333
     49 HBG        -0.9870   -1.0990   -0.3460 h1        1 S48      0.135000
     50 HAV1        1.5930   -0.1350   -0.4900 h1        1 S48      0.092000
     51 HAV2        0.8010   -1.0820   -1.5340 h1        1 S48      0.092000
     52 HAS1        0.0410    0.3120    1.6830 hc        1 S48      0.100000
     53 HAS2       -1.5240   -0.0160    1.3770 hc        1 S48      0.100000
     54 HAQ        -1.7560    2.5720    2.0120 ha        1 S48      0.138000
     55 HAJ        -0.7210    5.8850    1.9440 ha        1 S48      0.130167
     56 HAH        -1.8660    7.6810    2.9780 ha        1 S48      0.130167
     57 HAG        -4.2000    7.8510    2.7980 ha        1 S48      0.130167
     58 HAI        -5.3840    6.2140    1.5760 ha        1 S48      0.130167
     59 HAK        -4.2580    4.4070    0.5310 ha        1 S48      0.138000
     60 HAL        -1.4790    5.0200   -1.3660 ha        1 S48      0.130167
     61 HAM        -0.3730    3.2590   -2.5540 ha        1 S48      0.130167
     62 HAU1        2.3320    0.7620   -2.0970 h1        1 S48      0.100000
     63 HAU2        1.6580    2.2070   -2.2210 h1        1 S48      0.100000
     64 HAN        -0.6630    0.4490   -4.1470 DU        1 S48      0.202250
     65 HAO         2.2370    1.1490   -6.9830 DU        1 S48      0.202250
     66 HAC1        4.1960    0.9150   -4.2240 ha        1 S48      0.092667
     67 HAC2        3.7160    2.4110   -4.0540 ha        1 S48      0.092667
     68 HAC3        4.1340    1.9160   -5.4950 ha        1 S48      0.092667
@<TRIPOS>BOND
     1    1    2 1   
     2    1   39 1   
     3    1   40 1   
     4    1   41 1   
     5    2    3 1   
     6    2    4 1   
     7    3    6 1   
     8    4    5 1   
     9    5    6 1   
    10    7    8 1   
    11    7    9 1   
    12   10   11 1   
    13   10   16 1   
    14   11   12 1   
    15   11   44 1   
    16   11   45 1   
    17   12   13 1   
    18   12   14 1   
    19   14   15 1   
    20   15   46 1   
    21   15   47 1   
    22   15   48 1   
    23   16   17 1   
    24   16   18 1   
    25   16   49 1   
    26   17   31 1   
    27   17   50 1   
    28   17   51 1   
    29   18   19 1   
    30   18   52 1   
    31   18   53 1   
    32   19   20 1   
    33   19   30 1   
    34   20   21 1   
    35   20   54 1   
    36   22   27 1   
    37   23   24 1   
    38   23   55 1   
    39   24   56 1   
    40   25   26 1   
    41   25   57 1   
    42   26   58 1   
    43   27   59 1   
    44   28   29 1   
    45   28   60 1   
    46   29   61 1   
    47   30   31 1   
    48   31   32 1   
    49   32   33 1   
    50   32   62 1   
    51   32   63 1   
    52   33   34 1   
    53   33   37 1   
    54   34   35 1   
    55   35   36 1   
    56   36   37 1   
    57   38   66 1   
    58   38   67 1   
    59   38   68 1   
@<TRIPOS>SUBSTRUCTURE
     1 S48         1 TEMP              0 ****  ****    0 ROOT
