@<TRIPOS>MOLECULE
S48
   68    72     1     0     0
SMALL
bcc


@<TRIPOS>ATOM
      1 CAB        -0.9200   -5.7680   -7.5300 c3        1 S48      0.012600
      2 NBJ        -1.0400   -6.2720   -6.2010 na        1 S48     -0.194900
      3 CAR        -2.1930   -6.3800   -5.4500 cc        1 S48     -0.067600
      4 CAP         0.0160   -6.7630   -5.3950 cc        1 S48      0.396400
      5 NAX        -0.4300   -7.1610   -4.1990 nd        1 S48     -0.578000
      6 CBE        -1.8220   -6.9330   -4.1970 cd        1 S48     -0.054800
      7 SBL        -2.8000   -7.3180   -2.9140 sy        1 S48      1.482800
      8 OAE        -3.8380   -8.1690   -3.3450 o         1 S48     -0.656800
      9 OAF        -2.0540   -7.7870   -1.8170 o         1 S48     -0.656800
     10 N          -3.4770   -5.8590   -2.5130 n3        1 S48     -0.788500
     11 CA         -4.8840   -5.6410   -2.6080 c3        1 S48      0.176800
     12 C          -5.3270   -4.8750   -3.8440 c         1 S48      0.616100
     13 O          -4.8650   -4.8840   -4.9880 o         1 S48     -0.567000
     14 OAY        -6.4260   -4.1040   -3.5960 os        1 S48     -0.435900
     15 CAA        -6.9830   -3.3950   -4.7050 c3        1 S48      0.125700
     16 CBG        -2.6540   -4.8070   -1.9520 c3        1 S48      0.203500
     17 CAV        -2.7120   -4.7670   -0.3980 c3        1 S48      0.166800
     18 CAS        -2.9800   -3.4000   -2.4680 c3        1 S48     -0.041100
     19 CBC        -2.2760   -2.3360   -1.7030 ca        1 S48     -0.117300
     20 CAQ        -2.2330   -1.0560   -2.2620 ca        1 S48     -0.096000
     21 CBB        -1.6120    0.0080   -1.6010 cp        1 S48     -0.060000
     22 CBA        -1.5670    1.3370   -2.2050 cp        1 S48     -0.030000
     23 CAJ        -2.6830    1.8490   -2.8830 ca        1 S48     -0.121000
     24 CAH        -2.6370    3.1180   -3.4570 ca        1 S48     -0.130000
     25 CAG        -1.4790    3.8890   -3.3620 ca        1 S48     -0.130000
     26 CAI        -0.3650    3.3870   -2.6900 ca        1 S48     -0.130000
     27 CAK        -0.4060    2.1190   -2.1130 ca        1 S48     -0.121000
     28 CAL        -1.0330   -0.2280   -0.3460 ca        1 S48     -0.100000
     29 CAM        -1.0730   -1.4890    0.2300 ca        1 S48     -0.150000
     30 CBF        -1.6930   -2.5730   -0.4350 ca        1 S48      0.140600
     31 NBH        -1.7830   -3.8360    0.2080 nh        1 S48     -0.625000
     32 CAU        -0.5330   -4.4050    0.6890 c3        1 S48      0.269100
     33 CBD         0.4600   -4.8400   -0.3310 cc        1 S48     -0.278900
     34 CAN         1.3200   -4.0330   -1.1130 cd        1 S48      0.307200
     35 NAW         2.1180   -4.8240   -1.9270 nd        1 S48     -0.686000
     36 CAO         1.7630   -6.1020   -1.6550 cc        1 S48      0.400400
     37 NBK         0.7540   -6.1650   -0.6870 na        1 S48     -0.173900
     38 CAC         0.1890   -7.3590   -0.1500 c3        1 S48      0.018600
     39 HAB1       -0.6800   -6.6070   -8.2380 h1        1 S48      0.064700
     40 HAB2       -1.8850   -5.2870   -7.8440 h1        1 S48      0.064700
     41 HAB3       -0.0960   -5.0060   -7.5730 h1        1 S48      0.064700
     42 HAR        -3.1800   -6.0610   -5.8090 h4        1 S48      0.222000
     43 HAP         1.0550   -6.7860   -5.7420 h5        1 S48      0.075100
     44 HA1        -5.4240   -6.6370   -2.6580 h1        1 S48      0.101200
     45 HA2        -5.2590   -5.0810   -1.7020 h1        1 S48      0.101200
     46 HAA1       -7.2960   -4.1140   -5.4980 h1        1 S48      0.053367
     47 HAA2       -6.2310   -2.6770   -5.1120 h1        1 S48      0.053367
     48 HAA3       -7.8610   -2.8630   -4.2620 h1        1 S48      0.053367
     49 HBG        -1.5830   -5.0440   -2.2510 h1        1 S48      0.084700
     50 HAV1       -3.7450   -4.4460   -0.0830 h1        1 S48      0.063200
     51 HAV2       -2.5220   -5.8000    0.0090 h1        1 S48      0.063200
     52 HAS1       -4.0870   -3.2070   -2.3960 hc        1 S48      0.058200
     53 HAS2       -2.7040   -3.3330   -3.5550 hc        1 S48      0.058200
     54 HAQ        -2.6880   -0.8880   -3.2520 ha        1 S48      0.133000
     55 HAJ        -3.6010    1.2470   -2.9540 ha        1 S48      0.133500
     56 HAH        -3.5180    3.5120   -3.9830 ha        1 S48      0.131000
     57 HAG        -1.4440    4.8900   -3.8160 ha        1 S48      0.131000
     58 HAI         0.5510    3.9920   -2.6150 ha        1 S48      0.131000
     59 HAK         0.4770    1.7240   -1.5900 ha        1 S48      0.133500
     60 HAL        -0.5500    0.6010    0.1940 ha        1 S48      0.136000
     61 HAM        -0.6250   -1.6330    1.2250 ha        1 S48      0.139000
     62 HAU1       -0.8080   -5.2720    1.3590 h1        1 S48      0.066200
     63 HAU2       -0.0300   -3.6240    1.3300 h1        1 S48      0.066200
     64 HAN         1.3880   -2.9460   -1.1210 h4        1 S48      0.040100
     65 HAO         2.1750   -6.9990   -2.1280 h5        1 S48      0.062100
     66 HAC1        0.7880   -7.7060    0.7350 h1        1 S48      0.064367
     67 HAC2       -0.8740   -7.1790    0.1660 h1        1 S48      0.064367
     68 HAC3        0.1790   -8.1590   -0.9400 h1        1 S48      0.064367
@<TRIPOS>BOND
     1    1    2 1   
     2    1   39 1   
     3    1   40 1   
     4    1   41 1   
     5    2    3 1   
     6    2    4 1   
     7    3    6 2   
     8    3   42 1   
     9    4    5 2   
    10    4   43 1   
    11    5    6 1   
    12    6    7 1   
    13    7    8 2   
    14    7    9 2   
    15    7   10 1   
    16   10   11 1   
    17   10   16 1   
    18   11   12 1   
    19   11   44 1   
    20   11   45 1   
    21   12   13 2   
    22   12   14 1   
    23   14   15 1   
    24   15   46 1   
    25   15   47 1   
    26   15   48 1   
    27   16   17 1   
    28   16   18 1   
    29   16   49 1   
    30   17   31 1   
    31   17   50 1   
    32   17   51 1   
    33   18   19 1   
    34   18   52 1   
    35   18   53 1   
    36   19   20 ar  
    37   19   30 ar  
    38   20   21 ar  
    39   20   54 1   
    40   21   22 1   
    41   21   28 ar  
    42   22   23 ar  
    43   22   27 ar  
    44   23   24 ar  
    45   23   55 1   
    46   24   25 ar  
    47   24   56 1   
    48   25   26 ar  
    49   25   57 1   
    50   26   27 ar  
    51   26   58 1   
    52   27   59 1   
    53   28   29 ar  
    54   28   60 1   
    55   29   30 ar  
    56   29   61 1   
    57   30   31 1   
    58   31   32 1   
    59   32   33 1   
    60   32   62 1   
    61   32   63 1   
    62   33   34 2   
    63   33   37 1   
    64   34   35 1   
    65   34   64 1   
    66   35   36 2   
    67   36   37 1   
    68   36   65 1   
    69   37   38 1   
    70   38   66 1   
    71   38   67 1   
    72   38   68 1   
@<TRIPOS>SUBSTRUCTURE
     1 S48         1 TEMP              0 ****  ****    0 ROOT
