@<TRIPOS>MOLECULE
S4A
   34    36     1     0     0
SMALL
bcc


@<TRIPOS>ATOM
      1 O3P         2.7710    1.0020    2.7400 o         1 S4A     -0.921167
      2 P           3.2400   -0.1610    1.9260 p5        1 S4A      1.321900
      3 O1P         3.6810    0.1390    0.5090 o         1 S4A     -0.921167
      4 O2P         4.0010   -1.2600    2.6040 o         1 S4A     -0.921167
      5 O5'         1.7180   -0.9600    1.5360 os        1 S4A     -0.574200
      6 N9         -1.5470   -0.4690   -0.6390 na        1 S4A     -0.247000
      7 C4         -2.8780   -0.0740   -0.8210 ca        1 S4A      0.420800
      8 N3         -3.7500   -0.2490   -1.8630 nb        1 S4A     -0.722000
      9 C2         -4.9740    0.2630   -1.6150 ca        1 S4A      0.634900
     10 N1         -5.4540    0.9150   -0.5180 nb        1 S4A     -0.806000
     11 C6         -4.5780    1.1220    0.5160 ca        1 S4A      0.691200
     12 N6         -4.9520    1.8740    1.6300 nh        1 S4A     -0.930500
     13 C5         -3.2480    0.6140    0.4180 ca        1 S4A     -0.194200
     14 N7         -2.1600    0.6160    1.3020 nc        1 S4A     -0.587100
     15 C8         -1.1710   -0.0270    0.6590 cd        1 S4A      0.481700
     16 C2'         0.4830   -0.4710   -2.1070 c3        1 S4A     -0.102400
     17 C5'         1.8950   -2.1710    0.9200 c3        1 S4A      0.217400
     18 C4'         1.5560   -2.1610   -0.5840 c3        1 S4A      0.002400
     19 S4'        -0.1210   -2.7510   -0.9090 ss        1 S4A     -0.433200
     20 C1'        -0.7530   -1.2070   -1.5850 c3        1 S4A      0.162100
     21 C3'         1.6890   -0.7730   -1.2140 c3        1 S4A      0.138100
     22 O3'         2.8530   -0.7120   -2.0170 oh        1 S4A     -0.664800
     23 H15'        2.9710   -2.5080    1.0230 h1        1 S4A      0.017200
     24 H25'        1.2260   -2.9450    1.4020 h1        1 S4A      0.017200
     25 H4'         2.2230   -2.8870   -1.1100 h1        1 S4A      0.062700
     26 H1'        -1.4250   -1.4860   -2.4440 h2        1 S4A      0.084700
     27 H2         -5.7140    0.1330   -2.4310 h5        1 S4A      0.022100
     28 H1N6       -4.3530    1.7640    2.4180 hn        1 S4A      0.408800
     29 H2N6       -5.9230    1.9040    1.8380 hn        1 S4A      0.408800
     30 H8         -0.1400   -0.2320    1.0690 h5        1 S4A      0.184800
     31 H12'        0.6880   -0.8270   -3.1500 hc        1 S4A      0.054200
     32 H22'        0.3240    0.6350   -2.1500 hc        1 S4A      0.054200
     33 H3'         1.7890   -0.0050   -0.3750 h1        1 S4A      0.153700
     34 HO3'        3.5610   -0.4100   -1.4080 ho        1 S4A      0.485000
@<TRIPOS>BOND
     1    1    2 1   
     2    2    3 1   
     3    2    4 1   
     4    2    5 1   
     5    5   17 1   
     6    6    7 1   
     7    6   15 1   
     8    6   20 1   
     9    7    8 ar  
    10    7   13 ar  
    11    8    9 ar  
    12    9   10 ar  
    13    9   27 1   
    14   10   11 ar  
    15   11   12 1   
    16   11   13 ar  
    17   12   28 1   
    18   12   29 1   
    19   13   14 1   
    20   14   15 2   
    21   15   30 1   
    22   16   20 1   
    23   16   21 1   
    24   16   31 1   
    25   16   32 1   
    26   17   18 1   
    27   17   23 1   
    28   17   24 1   
    29   18   19 1   
    30   18   21 1   
    31   18   25 1   
    32   19   20 1   
    33   20   26 1   
    34   21   22 1   
    35   21   33 1   
    36   22   34 1   
@<TRIPOS>SUBSTRUCTURE
     1 S4A         1 TEMP              0 ****  ****    0 ROOT
