@<TRIPOS>MOLECULE
S4C
   33    34     1     0     0
SMALL
bcc


@<TRIPOS>ATOM
      1 N1         -1.4620   -0.5890    2.0200 n         1 S4C     -0.306400
      2 C2         -2.5750   -1.3510    2.5420 c         1 S4C      0.750500
      3 O2         -2.5750   -2.6080    2.4070 o         1 S4C     -0.704100
      4 N3         -3.6260   -0.7010    3.1840 ne        1 S4C     -0.801100
      5 C1'        -0.3710   -1.2920    1.4170 c3        1 S4C      0.228800
      6 C4         -3.5920    0.6590    3.2400 cf        1 S4C      0.669500
      7 N4         -4.6960    1.3320    3.8370 nh        1 S4C     -0.884800
      8 C5         -2.5240    1.4230    2.7000 cf        1 S4C     -0.582700
      9 C6         -1.4410    0.7740    2.0830 c1        1 S4C     -0.084900
     10 C2'         0.2420   -0.6150    0.1680 c3        1 S4C      0.096100
     11 O2'        -0.5120   -0.9130   -0.9880 oh        1 S4C     -0.586800
     12 C3'         1.7020   -1.0980    0.0160 c3        1 S4C      0.090100
     13 O3'         1.7110   -2.3770   -0.6100 oh        1 S4C     -0.611800
     14 C4'         2.3510   -1.1430    1.3920 c3        1 S4C     -0.013600
     15 S4'         1.0540   -1.5720    2.5500 ss        1 S4C     -0.431200
     16 OP1         4.9640    2.4170    1.1600 oh        1 S4C     -0.787400
     17 C5'         3.0580    0.1600    1.7670 c3        1 S4C      0.208400
     18 O5'         4.4420    0.0240    1.6420 os        1 S4C     -0.580200
     19 OP2         4.2870    0.9860   -0.6760 o         1 S4C     -0.841500
     20 P           5.1940    0.9390    0.4930 p5        1 S4C      1.428800
     21 OP3         6.6280    0.5930    0.4940 o         1 S4C     -0.841500
     22 H1'        -0.7220   -2.3300    1.1500 h2        1 S4C      0.084700
     23 H41        -5.2580    0.7500    4.4220 hn        1 S4C      0.357300
     24 H42        -4.3880    2.1450    4.3270 hn        1 S4C      0.357300
     25 H5         -2.5200    2.5140    2.7410 ha        1 S4C      0.113000
     26 H6          4.2040    2.8530    0.7920 ho        1 S4C      0.424000
     27 H1          0.1980    0.5090    0.2680 h1        1 S4C      0.142700
     28 H2'        -0.3490   -1.8400   -1.2070 ho        1 S4C      0.391000
     29 H3'         2.2760   -0.4330   -0.6950 h1        1 S4C      0.153700
     30 H2          1.3850   -3.0110    0.0430 ho        1 S4C      0.391000
     31 H4'         3.1050   -1.9720    1.4350 h1        1 S4C      0.091700
     32 H5'         2.8300    0.3880    2.8470 h1        1 S4C      0.039700
     33 H5''        2.6900    1.0050    1.1200 h1        1 S4C      0.039700
@<TRIPOS>BOND
     1    1    2 1   
     2    1    5 1   
     3    1    9 2   
     4    2    3 2   
     5    2    4 1   
     6    4    6 2   
     7    5   10 1   
     8    5   15 1   
     9    5   22 1   
    10    6    7 1   
    11    6    8 1   
    12    7   23 1   
    13    7   24 1   
    14    8    9 2   
    15    8   25 1   
    16   10   11 1   
    17   10   12 1   
    18   10   27 1   
    19   11   28 1   
    20   12   13 1   
    21   12   14 1   
    22   12   29 1   
    23   13   30 1   
    24   14   15 1   
    25   14   17 1   
    26   14   31 1   
    27   16   20 1   
    28   16   26 1   
    29   17   18 1   
    30   17   32 1   
    31   17   33 1   
    32   18   20 1   
    33   19   20 1   
    34   20   21 1   
@<TRIPOS>SUBSTRUCTURE
     1 S4C         1 TEMP              0 ****  ****    0 ROOT
