@<TRIPOS>MOLECULE
S4G
   35    37     1     0     0
SMALL
bcc


@<TRIPOS>ATOM
      1 O3P        -5.2980    1.9650    2.1380 oh        1 S4G     -0.784400
      2 P          -5.3350    1.9450    0.5030 p5        1 S4G      1.428800
      3 O1P        -6.4740    1.1590    0.0010 o         1 S4G     -0.835000
      4 O2P        -5.0040    3.3500    0.1780 o         1 S4G     -0.835000
      5 O5'        -3.9740    1.0340    0.2500 os        1 S4G     -0.587200
      6 N9          1.7300    0.2010    0.0530 na        1 S4G     -0.248900
      7 C4          3.1000   -0.1000   -0.1590 cc        1 S4G      0.055400
      8 N3          3.8640    0.2190   -1.2200 nd        1 S4G     -0.528300
      9 C2          5.2160   -0.1810   -1.1250 cd        1 S4G      0.724900
     10 N2          6.0390    0.1000   -2.1270 n2        1 S4G     -0.935100
     11 N1          5.6820   -0.8910    0.0460 n         1 S4G     -0.573400
     12 C6          4.8800   -1.2360    1.1490 c         1 S4G      0.657000
     13 O6          5.4270   -1.8580    2.0930 o         1 S4G     -0.730500
     14 C5          3.5110   -0.8200    1.0420 cc        1 S4G      0.046800
     15 N7          2.4290   -0.9810    1.9150 nd        1 S4G     -0.597000
     16 C8          1.3920   -0.4010    1.3070 cd        1 S4G      0.346400
     17 C2'        -0.1870   -0.3600   -1.4710 c3        1 S4G     -0.112400
     18 C5'        -2.7440    1.6350    0.5260 c3        1 S4G      0.193400
     19 C4'        -1.7830    1.3450   -0.6220 c3        1 S4G     -0.035600
     20 S4'        -0.1870    2.0860   -0.3550 ss        1 S4G     -0.373200
     21 C1'         0.8210    0.6650   -0.9350 c3        1 S4G      0.187100
     22 C3'        -1.5440   -0.1540   -0.8010 c3        1 S4G      0.158100
     23 O3'        -2.5310   -0.7440   -1.6300 oh        1 S4G     -0.622800
     24 H15'       -2.8740    2.7470    0.6490 h1        1 S4G      0.040700
     25 H25'       -2.3240    1.1940    1.4750 h1        1 S4G      0.040700
     26 H4'        -2.2180    1.7650   -1.5660 h1        1 S4G      0.088700
     27 H1'         1.4270    1.0780   -1.7920 h2        1 S4G      0.113700
     28 H1N2        6.9720   -0.2230   -1.9780 hn        1 S4G      0.332400
     29 H2N2       -4.9180    2.7700    2.4690 ho        1 S4G      0.423000
     30 HN1         6.6360   -1.1600    0.0910 hn        1 S4G      0.288500
     31 H8          0.3760   -0.3180    1.7010 h5        1 S4G      0.047100
     32 H12'       -0.2980   -0.2160   -2.5770 hc        1 S4G      0.068200
     33 H22'        0.1620   -1.4090   -1.3010 hc        1 S4G      0.068200
     34 H3'        -1.5620   -0.6620    0.2060 h1        1 S4G      0.046700
     35 HO3'       -3.3870   -0.4940   -1.2450 ho        1 S4G      0.443000
@<TRIPOS>BOND
     1    1    2 1   
     2    1   29 1   
     3    2    3 1   
     4    2    4 1   
     5    2    5 1   
     6    5   18 1   
     7    6    7 1   
     8    6   16 2   
     9    6   21 1   
    10    7    8 2   
    11    7   14 1   
    12    8    9 1   
    13    9   10 2   
    14    9   11 1   
    15   10   28 1   
    16   11   12 1   
    17   11   30 1   
    18   12   13 2   
    19   12   14 1   
    20   14   15 2   
    21   15   16 1   
    22   16   31 1   
    23   17   21 1   
    24   17   22 1   
    25   17   32 1   
    26   17   33 1   
    27   18   19 1   
    28   18   24 1   
    29   18   25 1   
    30   19   20 1   
    31   19   22 1   
    32   19   26 1   
    33   20   21 1   
    34   21   27 1   
    35   22   23 1   
    36   22   34 1   
    37   23   35 1   
@<TRIPOS>SUBSTRUCTURE
     1 S4G         1 TEMP              0 ****  ****    0 ROOT
