@<TRIPOS>MOLECULE
S4G
   35    33     1     0     0
SMALL
bcc


@<TRIPOS>ATOM
      1 O3P        -0.0150    3.4480    4.4020 o         1 S4G     -0.733167
      2 P           0.9110    4.1490    3.3760 p5        1 S4G      1.580500
      3 O1P         2.3240    4.1240    3.8810 o         1 S4G     -0.733167
      4 O2P         0.4600    5.5890    3.1920 o         1 S4G     -0.733167
      5 O5'         0.8360    3.3750    1.9550 os        1 S4G     -0.755000
      6 N9         -0.5060   -1.2270   -0.0050 n2        1 S4G     -0.081000
      7 C4          0.2470   -2.2110   -0.5810 c1        1 S4G      0.004000
      8 N3          1.0110   -2.2580   -1.8210 n1        1 S4G     -0.183000
      9 C2          1.7520   -3.4700   -2.1790 c1        1 S4G      0.145000
     10 N2          2.4660   -3.5270   -3.3820 n2        1 S4G     -0.304000
     11 N1          1.7250   -4.6040   -1.3140 n         1 S4G     -0.338000
     12 C6          0.9850   -4.5600   -0.1220 c2        1 S4G      0.393000
     13 O6          0.9320   -5.5510    0.6040 o         1 S4G     -0.378000
     14 C5          0.2270   -3.3020    0.2540 c2        1 S4G     -0.229000
     15 N7         -0.5320   -2.9900    1.3340 n2        1 S4G     -0.113000
     16 C8         -0.9880   -1.7030    1.1770 c1        1 S4G     -0.056000
     17 C2'        -1.9100    0.6470   -0.4460 c3        1 S4G     -0.274000
     18 C5'        -0.3960    2.9060    1.5170 c3        1 S4G      0.056000
     19 C4'        -0.3300    2.6110   -0.0440 c3        1 S4G     -0.272000
     20 S4'         0.5260    1.1570   -0.3410 ss        1 S4G     -0.008000
     21 C1'        -0.6740    0.0210   -0.7780 c2        1 S4G     -0.073000
     22 C3'        -1.6340    2.3790   -0.5470 c3        1 S4G      0.234000
     23 O3'        -1.7200    2.7760   -1.7930 oh        1 S4G     -0.682000
     24 H15'       -1.0590    3.5560    1.6870 h1        1 S4G      0.074000
     25 H25'       -0.6240    2.0710    1.9980 h1        1 S4G      0.074000
     26 H4'         0.1180    3.4020   -0.5440 h1        1 S4G      0.120000
     27 H1'        -0.6350   -0.1590   -1.7080 h4        1 S4G      0.109000
     28 H1N2        2.4750   -2.8130   -3.9370 hn        1 S4G      0.177000
     29 H2N2        2.9080   -4.2850   -3.6100 hn        1 S4G      0.177000
     30 HN1         2.2440   -5.3330   -1.5030 hn        1 S4G      0.234000
     31 H8         -1.6310   -1.2450    1.7630 DU        1 S4G      0.238000
     32 H12'       -2.6170    0.3740   -1.0940 hc        1 S4G      0.081500
     33 H22'       -2.1790    0.3990    0.4810 hc        1 S4G      0.081500
     34 H3'        -2.2940    2.8570    0.0040 h1        1 S4G     -0.066000
     35 HO3'       -2.4050    3.3970   -1.8750 ho        1 S4G      0.232000
@<TRIPOS>BOND
     1    1    2 1   
     2    2    3 1   
     3    2    4 1   
     4    2    5 1   
     5    5   18 1   
     6    6    7 1   
     7    6   16 1   
     8    7   14 1   
     9    8    9 1   
    10    9   11 1   
    11   10   28 1   
    12   10   29 1   
    13   11   12 1   
    14   11   30 1   
    15   12   13 1   
    16   12   14 1   
    17   14   15 1   
    18   15   16 1   
    19   17   21 1   
    20   17   22 1   
    21   17   32 1   
    22   17   33 1   
    23   18   19 1   
    24   18   24 1   
    25   18   25 1   
    26   19   20 1   
    27   19   22 1   
    28   19   26 1   
    29   20   21 1   
    30   21   27 1   
    31   22   23 1   
    32   22   34 1   
    33   23   35 1   
@<TRIPOS>SUBSTRUCTURE
     1 S4G         1 TEMP              0 ****  ****    0 ROOT
