@<TRIPOS>MOLECULE
S4H
    6     5     1     0     0
SMALL
bcc


@<TRIPOS>ATOM
      1 S1         -0.0870   -0.0650   -0.5690 sh        1 S4H     -0.169200
      2 S2          1.7860   -0.3350    0.0030 s4        1 S4H     -0.124700
      3 S3          2.6920    0.5760    1.2580 s         1 S4H     -0.099500
      4 S4          2.4400   -1.8290   -1.1140 sh        1 S4H     -0.169200
      5 HS1        -0.4880    0.9460    0.2050 hs        1 S4H      0.280800
      6 HS4         3.7000   -1.9770   -0.6980 hs        1 S4H      0.280800
@<TRIPOS>BOND
     1    1    2 1   
     2    1    5 1   
     3    2    3 2   
     4    2    4 1   
     5    4    6 1   
@<TRIPOS>SUBSTRUCTURE
     1 S4H         1 TEMP              0 ****  ****    0 ROOT
