@<TRIPOS>MOLECULE
S4H
    6     5     1     0     0
SMALL
bcc


@<TRIPOS>ATOM
      1 S1         -0.0990   -0.0450   -0.4930 sh        1 S4H     -0.169200
      2 S2          1.7970   -0.3290   -0.0110 s4        1 S4H     -0.124700
      3 S3          2.7930    0.6300    1.1360 s         1 S4H     -0.099500
      4 S4          2.3530   -1.9020   -1.0710 sh        1 S4H     -0.169200
      5 HS1        -0.4330    1.0200    0.2400 hs        1 S4H      0.280800
      6 HS4         3.6310   -2.0580   -0.7170 hs        1 S4H      0.280800
@<TRIPOS>BOND
     1    1    2 1   
     2    1    5 1   
     3    2    3 2   
     4    2    4 1   
     5    4    6 1   
@<TRIPOS>SUBSTRUCTURE
     1 S4H         1 TEMP              0 ****  ****    0 ROOT
