@<TRIPOS>MOLECULE
S4H
    6     5     1     0     0
SMALL
bcc


@<TRIPOS>ATOM
      1 S1          1.5650   -1.0630    0.0850 sh        1 S4H     -0.169200
      2 S2         -0.0000    0.1440    0.1150 s4        1 S4H     -0.124700
      3 S3         -0.0000    1.9400    0.1600 s         1 S4H     -0.099500
      4 S4         -1.5650   -1.0630    0.0850 sh        1 S4H     -0.169200
      5 HS1         2.5940   -0.2120    0.1060 hs        1 S4H      0.280800
      6 HS4        -2.5940   -0.2120    0.1060 hs        1 S4H      0.280800
@<TRIPOS>BOND
     1    1    2 1   
     2    1    5 1   
     3    2    3 2   
     4    2    4 1   
     5    4    6 1   
@<TRIPOS>SUBSTRUCTURE
     1 S4H         1 TEMP              0 ****  ****    0 ROOT
