@<TRIPOS>MOLECULE
S4M
   49    51     1     0     0
SMALL
bcc


@<TRIPOS>ATOM
      1 CA          1.0370   -0.3270    2.8680 c3        1 S4M      0.098800
      2 N           1.8660   -1.0230    3.8920 nz        1 S4M     -0.851600
      3 CB         -0.3430    0.0710    3.3900 c3        1 S4M     -0.051400
      4 CG         -1.0580    0.9080    2.3760 c3        1 S4M     -0.073600
      5 SD         -2.6790    1.3860    2.9350 s6        1 S4M     -0.520200
      6 CE         -3.6140    2.0980    1.6650 c3        1 S4M     -0.076300
      7 C5'        -2.8350    2.3350    4.4130 c3        1 S4M     -0.074600
      8 C4'        -3.8030    1.7920    5.4340 c3        1 S4M      0.140100
      9 O4'        -3.4030    0.4780    5.8660 os        1 S4M     -0.433600
     10 C1'        -2.9280    0.4860    7.2140 c3        1 S4M      0.243800
     11 C2'        -3.4110    1.8090    7.8700 c3        1 S4M      0.090100
     12 O2'        -4.4900    1.4330    8.7070 oh        1 S4M     -0.596800
     13 C3'        -3.9090    2.6810    6.6930 c3        1 S4M      0.090100
     14 O3'        -5.2230    3.1320    6.9190 oh        1 S4M     -0.577800
     15 N9         -1.4920    0.2620    7.2320 na        1 S4M     -0.264000
     16 C8         -0.9280   -1.0010    6.9160 cc        1 S4M      0.460700
     17 N7          0.3870   -0.9660    6.6500 nd        1 S4M     -0.617100
     18 C5          0.7450    0.3870    6.7740 ca        1 S4M     -0.223200
     19 C6          1.9880    1.0750    6.6510 ca        1 S4M      0.650200
     20 N6          3.1280    0.3380    6.2410 nv        1 S4M     -0.939500
     21 C4         -0.4360    1.1860    7.1160 ca        1 S4M      0.456800
     22 N3         -0.3840    2.5360    7.2940 nb        1 S4M     -0.689000
     23 C2          0.8560    3.0550    7.1390 ca        1 S4M      0.680900
     24 N1          2.0270    2.4230    6.8360 nb        1 S4M     -0.729000
     25 HA1         1.6010    0.5900    2.5350 hx        1 S4M      0.100700
     26 HA2         0.9200   -1.0180    1.9840 hx        1 S4M      0.100700
     27 HN1         2.6880   -1.4420    3.4540 hn        1 S4M      0.464133
     28 HN2         1.3190   -1.7600    4.3480 hn        1 S4M      0.464133
     29 HB1        -0.9370   -0.8560    3.6150 hc        1 S4M      0.057700
     30 HB2        -0.2330    0.6490    4.3490 hc        1 S4M      0.057700
     31 HG1        -1.1750    0.3550    1.4140 h1        1 S4M      0.073700
     32 HG2        -0.4890    1.8440    2.1620 h1        1 S4M      0.073700
     33 HSD        -3.3060    0.2750    3.1770 hs        1 S4M      0.254800
     34 HE1        -4.6730    2.2600    1.9720 h1        1 S4M      0.082033
     35 HE2        -3.1900    3.0890    1.3840 h1        1 S4M      0.082033
     36 HE3        -3.6180    1.4580    0.7540 h1        1 S4M      0.082033
     37 H5'1       -3.1670    3.3660    4.1340 h1        1 S4M      0.083700
     38 H5'2       -1.8180    2.4220    4.8680 h1        1 S4M      0.083700
     39 H4'        -4.8220    1.6420    4.9740 h1        1 S4M      0.084700
     40 H1'        -3.4080   -0.4120    7.7130 h2        1 S4M      0.128700
     41 H2'        -2.6250    2.3300    8.4740 h1        1 S4M      0.097700
     42 HO2'       -4.8050    2.2410    9.1370 ho        1 S4M      0.437000
     43 H3'        -3.2960    3.6170    6.5910 h1        1 S4M      0.113700
     44 HO3'       -5.7920    2.3560    7.0230 ho        1 S4M      0.419000
     45 H8         -1.5480   -1.9110    6.9300 h5        1 S4M      0.093800
     46 HN61        3.9640    0.8940    6.1960 hn        1 S4M      0.413300
     47 HN62        3.2630   -0.4630    6.8320 hn        1 S4M      0.413300
     48 H2          0.9420    4.1560    7.2870 h5        1 S4M      0.080100
     49 HN3         2.1820   -0.3550    4.6220 hn        1 S4M      0.464133
@<TRIPOS>BOND
     1    1    2 1   
     2    1    3 1   
     3    1   25 1   
     4    1   26 1   
     5    2   27 1   
     6    2   28 1   
     7    2   49 1   
     8    3    4 1   
     9    3   29 1   
    10    3   30 1   
    11    4    5 1   
    12    4   31 1   
    13    4   32 1   
    14    5    6 1   
    15    5    7 1   
    16    5   33 1   
    17    6   34 1   
    18    6   35 1   
    19    6   36 1   
    20    7    8 1   
    21    7   37 1   
    22    7   38 1   
    23    8    9 1   
    24    8   13 1   
    25    8   39 1   
    26    9   10 1   
    27   10   11 1   
    28   10   15 1   
    29   10   40 1   
    30   11   12 1   
    31   11   13 1   
    32   11   41 1   
    33   12   42 1   
    34   13   14 1   
    35   13   43 1   
    36   14   44 1   
    37   15   16 1   
    38   15   21 1   
    39   16   17 2   
    40   16   45 1   
    41   17   18 1   
    42   18   19 ar  
    43   18   21 ar  
    44   19   20 1   
    45   19   24 ar  
    46   20   46 1   
    47   20   47 1   
    48   21   22 ar  
    49   22   23 ar  
    50   23   24 ar  
    51   23   48 1   
@<TRIPOS>SUBSTRUCTURE
     1 S4M         1 TEMP              0 ****  ****    0 ROOT
