@<TRIPOS>MOLECULE
S4M
   50    52     1     0     0
SMALL
bcc


@<TRIPOS>ATOM
      1 CA         -1.8590    1.4670   -0.5500 c3        1 S4M      0.093800
      2 N          -2.1060    0.9810   -1.9410 n4        1 S4M     -0.839600
      3 CB         -1.2370    0.4040    0.3560 c3        1 S4M     -0.055400
      4 CG         -1.0270    0.9810    1.7230 c3        1 S4M     -0.077600
      5 SD         -0.3400   -0.1680    2.8910 s6        1 S4M     -0.518200
      6 CE         -0.9800   -1.7660    2.6930 c3        1 S4M     -0.068300
      7 C5'        -0.2980    0.2560    4.6090 c3        1 S4M     -0.079600
      8 C4'        -1.6700    0.5900    5.1340 c3        1 S4M      0.167100
      9 O4'        -1.8080    0.0950    6.4840 os        1 S4M     -0.409600
     10 C1'        -2.1170    1.1310    7.4090 c3        1 S4M      0.217800
     11 C2'        -2.3980    2.4360    6.5970 c3        1 S4M      0.081100
     12 O2'        -3.7510    2.7990    6.6850 oh        1 S4M     -0.560800
     13 C3'        -1.9900    2.0980    5.1470 c3        1 S4M      0.079100
     14 O3'        -3.0610    2.3040    4.2460 oh        1 S4M     -0.603800
     15 N9         -1.0310    1.2540    8.3720 na        1 S4M     -0.269000
     16 C8          0.3250    0.9000    8.2010 cc        1 S4M      0.508700
     17 N7          1.0670    1.0000    9.3200 nd        1 S4M     -0.581100
     18 C5          0.1710    1.4210   10.3070 ca        1 S4M     -0.137200
     19 C6          0.2780    1.7040   11.6820 ca        1 S4M      0.526200
     20 N6          1.5920    1.5600   12.3340 n4        1 S4M     -0.816300
     21 C4         -1.1840    1.5780    9.7300 ca        1 S4M      0.457800
     22 N3         -2.2600    1.9670   10.4570 nb        1 S4M     -0.615000
     23 C2         -1.9850    2.2020   11.7670 ca        1 S4M      0.679900
     24 N1         -0.7900    2.0960   12.4190 nb        1 S4M     -0.671000
     25 HA1        -1.1750    2.3610   -0.6170 hx        1 S4M      0.113200
     26 HA2        -2.8500    1.8000   -0.1230 hx        1 S4M      0.113200
     27 HN1        -2.5220    1.7280   -2.5070 hn        1 S4M      0.462133
     28 HN2        -1.2240    0.6880   -2.3740 hn        1 S4M      0.462133
     29 HB1        -1.9170   -0.4890    0.4170 hc        1 S4M      0.060700
     30 HB2        -0.2570    0.0640   -0.0750 hc        1 S4M      0.060700
     31 HG1        -1.9960    1.3350    2.1600 h1        1 S4M      0.084200
     32 HG2        -0.3420    1.8620    1.6720 h1        1 S4M      0.084200
     33 HSD         0.9060   -0.3190    2.5610 hs        1 S4M      0.241800
     34 HE1        -2.0800   -1.7690    2.8720 h1        1 S4M      0.084367
     35 HE2        -0.7970   -2.1630    1.6700 h1        1 S4M      0.084367
     36 HE3        -0.5210   -2.4790    3.4170 h1        1 S4M      0.084367
     37 H5'1        0.4130    1.1010    4.7640 h1        1 S4M      0.083700
     38 H5'2        0.1030   -0.6260    5.1700 h1        1 S4M      0.083700
     39 H4'        -2.4650    0.0330    4.5550 h1        1 S4M      0.088700
     40 H1'        -3.0410    0.7990    7.9770 h2        1 S4M      0.131700
     41 H2'        -1.8410    3.3280    6.9930 h1        1 S4M      0.115700
     42 HO2'       -4.2850    2.0830    6.3070 ho        1 S4M      0.425000
     43 H3'        -1.1080    2.7160    4.8300 h1        1 S4M      0.069700
     44 HO3'       -3.4140    3.1910    4.4170 ho        1 S4M      0.437000
     45 H8          0.6970    0.5640    7.2170 h5        1 S4M      0.106800
     46 HN61        2.2760    2.1360   11.8260 hn        1 S4M      0.480467
     47 HN62        1.8770    0.5740   12.2820 hn        1 S4M      0.480467
     48 H2         -2.8470    2.5240   12.4000 h5        1 S4M      0.107100
     49 HN3        -2.7440    0.1790   -1.9270 hn        1 S4M      0.462133
     50 H63         1.5540    1.8560   13.3200 hn        1 S4M      0.480467
@<TRIPOS>BOND
     1    1    2 1   
     2    1    3 1   
     3    1   25 1   
     4    1   26 1   
     5    2   27 1   
     6    2   28 1   
     7    2   49 1   
     8    3    4 1   
     9    3   29 1   
    10    3   30 1   
    11    4    5 1   
    12    4   31 1   
    13    4   32 1   
    14    5    6 1   
    15    5    7 1   
    16    5   33 1   
    17    6   34 1   
    18    6   35 1   
    19    6   36 1   
    20    7    8 1   
    21    7   37 1   
    22    7   38 1   
    23    8    9 1   
    24    8   13 1   
    25    8   39 1   
    26    9   10 1   
    27   10   11 1   
    28   10   15 1   
    29   10   40 1   
    30   11   12 1   
    31   11   13 1   
    32   11   41 1   
    33   12   42 1   
    34   13   14 1   
    35   13   43 1   
    36   14   44 1   
    37   15   16 1   
    38   15   21 1   
    39   16   17 2   
    40   16   45 1   
    41   17   18 1   
    42   18   19 ar  
    43   18   21 ar  
    44   19   20 1   
    45   19   24 ar  
    46   20   46 1   
    47   20   47 1   
    48   20   50 1   
    49   21   22 ar  
    50   22   23 ar  
    51   23   24 ar  
    52   23   48 1   
@<TRIPOS>SUBSTRUCTURE
     1 S4M         1 TEMP              0 ****  ****    0 ROOT
