@<TRIPOS>MOLECULE
S4M
   48    50     1     0     0
SMALL
bcc


@<TRIPOS>ATOM
      1 CA          6.5860    2.5550   -3.2200 c3        1 S4M      0.150800
      2 N           6.2840    2.1750   -4.5760 n3        1 S4M     -0.905800
      3 CB          5.3890    2.7740   -2.2900 c3        1 S4M     -0.088400
      4 CG          5.8430    3.1560   -0.9090 c3        1 S4M     -0.050600
      5 SD          4.5110    3.3240    0.2220 s6        1 S4M     -0.521200
      6 CE          4.9760    4.3030    1.5810 c3        1 S4M     -0.080300
      7 C5'         3.6970    1.8140    0.6540 c3        1 S4M     -0.077600
      8 C4'         2.3220    2.0100    1.2330 c3        1 S4M      0.169100
      9 O4'         1.4130    2.5300    0.2480 os        1 S4M     -0.414600
     10 C1'         0.4930    1.5290   -0.2040 c3        1 S4M      0.218800
     11 C2'         0.4550    0.4270    0.9020 c3        1 S4M      0.078100
     12 O2'        -0.7240    0.5310    1.6630 oh        1 S4M     -0.579800
     13 C3'         1.7100    0.6940    1.7650 c3        1 S4M      0.074100
     14 O3'         1.3480    0.9160    3.1150 oh        1 S4M     -0.590800
     15 N9          0.8450    1.0220   -1.5080 na        1 S4M     -0.281000
     16 C8          1.8500    0.0740   -1.8350 cc        1 S4M      0.399700
     17 N7          2.0510   -0.0710   -3.1500 nd        1 S4M     -0.541100
     18 C5          1.1670    0.8350   -3.7570 ca        1 S4M     -0.238200
     19 C6          0.8950    1.1620   -5.1270 ca        1 S4M      0.756200
     20 N6          1.6110    0.5660   -6.1360 nh        1 S4M     -0.952500
     21 C4          0.4060    1.5490   -2.7360 ca        1 S4M      0.474800
     22 N3         -0.5410    2.4900   -3.0190 nb        1 S4M     -0.730000
     23 C2         -0.6950    2.6900   -4.3500 ca        1 S4M      0.688900
     24 N1         -0.0660    2.1070   -5.4040 nb        1 S4M     -0.791000
     25 HA1         7.1900    3.5060   -3.2540 h1        1 S4M      0.049200
     26 HA2         7.2420    1.7530   -2.7760 h1        1 S4M      0.049200
     27 HN1         5.7370    2.8800   -5.0310 hn        1 S4M      0.344300
     28 HN2         5.7730    1.3140   -4.5990 hn        1 S4M      0.344300
     29 HB1         4.7760    1.8340   -2.2430 hc        1 S4M      0.037700
     30 HB2         4.7310    3.5800   -2.7100 hc        1 S4M      0.037700
     31 HG1         6.5430    2.3790   -0.5130 h1        1 S4M      0.067700
     32 HG2         6.4130    4.1160   -0.9500 h1        1 S4M      0.067700
     33 HSD         3.6360    4.0500   -0.4050 hs        1 S4M      0.248800
     34 HE1         5.3920    5.2800    1.2520 h1        1 S4M      0.067367
     35 HE2         4.1050    4.5020    2.2440 h1        1 S4M      0.067367
     36 HE3         5.7540    3.7800    2.1800 h1        1 S4M      0.067367
     37 H5'1        3.6470    1.1800   -0.2630 h1        1 S4M      0.071700
     38 H5'2        4.3360    1.2910    1.4060 h1        1 S4M      0.071700
     39 H4'         2.3350    2.7870    2.0500 h1        1 S4M      0.089700
     40 H1'        -0.5020    2.0630   -0.2940 h2        1 S4M      0.130700
     41 H2'         0.4340   -0.6140    0.4850 h1        1 S4M      0.102700
     42 HO2'       -0.7080    1.3870    2.1160 ho        1 S4M      0.423000
     43 H3'         2.4360   -0.1570    1.6940 h1        1 S4M      0.061700
     44 HO3'        0.8750    0.1260    3.4130 ho        1 S4M      0.418000
     45 H8          2.3730   -0.4860   -1.0500 h5        1 S4M      0.069800
     46 HN61        2.1810   -0.2110   -5.9080 hn        1 S4M      0.444300
     47 HN62        1.3450    0.7050   -7.0800 hn        1 S4M      0.444300
     48 H2         -1.4580    3.4500   -4.6290 h5        1 S4M      0.054100
@<TRIPOS>BOND
     1    1    2 1   
     2    1    3 1   
     3    1   25 1   
     4    1   26 1   
     5    2   27 1   
     6    2   28 1   
     7    3    4 1   
     8    3   29 1   
     9    3   30 1   
    10    4    5 1   
    11    4   31 1   
    12    4   32 1   
    13    5    6 1   
    14    5    7 1   
    15    5   33 1   
    16    6   34 1   
    17    6   35 1   
    18    6   36 1   
    19    7    8 1   
    20    7   37 1   
    21    7   38 1   
    22    8    9 1   
    23    8   13 1   
    24    8   39 1   
    25    9   10 1   
    26   10   11 1   
    27   10   15 1   
    28   10   40 1   
    29   11   12 1   
    30   11   13 1   
    31   11   41 1   
    32   12   42 1   
    33   13   14 1   
    34   13   43 1   
    35   14   44 1   
    36   15   16 1   
    37   15   21 1   
    38   16   17 2   
    39   16   45 1   
    40   17   18 1   
    41   18   19 ar  
    42   18   21 ar  
    43   19   20 1   
    44   19   24 ar  
    45   20   46 1   
    46   20   47 1   
    47   21   22 ar  
    48   22   23 ar  
    49   23   24 ar  
    50   23   48 1   
@<TRIPOS>SUBSTRUCTURE
     1 S4M         1 TEMP              0 ****  ****    0 ROOT
