@<TRIPOS>MOLECULE
S4M
   49    51     1     0     0
SMALL
bcc


@<TRIPOS>ATOM
      1 CA          1.0800   -0.2720    2.8740 c3        1 S4M      0.098800
      2 N           1.8670   -1.0230    3.8920 n4        1 S4M     -0.851600
      3 CB         -0.3080    0.1300    3.3730 c3        1 S4M     -0.051400
      4 CG         -0.9790    1.0180    2.3730 c3        1 S4M     -0.073600
      5 SD         -2.6070    1.5040    2.9060 s6        1 S4M     -0.520200
      6 CE         -3.4940    2.2810    1.6400 c3        1 S4M     -0.076300
      7 C5'        -2.7890    2.3960    4.4170 c3        1 S4M     -0.074600
      8 C4'        -3.7960    1.8310    5.3870 c3        1 S4M      0.140100
      9 O4'        -3.4300    0.4930    5.7770 os        1 S4M     -0.433600
     10 C1'        -2.9930    0.4400    7.1380 c3        1 S4M      0.243800
     11 C2'        -3.4730    1.7450    7.8320 c3        1 S4M      0.090100
     12 O2'        -4.5820    1.3550    8.6230 oh        1 S4M     -0.596800
     13 C3'        -3.9230    2.6710    6.6770 c3        1 S4M      0.090100
     14 O3'        -5.2350    3.1360    6.8840 oh        1 S4M     -0.577800
     15 N9         -1.5630    0.1900    7.1860 na        1 S4M     -0.264000
     16 C8         -1.0110   -1.0690    6.8350 cc        1 S4M      0.460700
     17 N7          0.3100   -1.0480    6.6080 nd        1 S4M     -0.617100
     18 C5          0.6880    0.2920    6.7960 ca        1 S4M     -0.223200
     19 C6          1.9450    0.9620    6.7350 ca        1 S4M      0.650200
     20 N6          3.0850    0.2220    6.3280 nh        1 S4M     -0.939500
     21 C4         -0.4880    1.0990    7.1370 ca        1 S4M      0.456800
     22 N3         -0.4190    2.4400    7.3700 nb        1 S4M     -0.689000
     23 C2          0.8340    2.9420    7.2710 ca        1 S4M      0.680900
     24 N1          2.0020    2.3010    6.9750 nb        1 S4M     -0.729000
     25 HA1         0.9760   -0.9250    1.9600 hx        1 S4M      0.100700
     26 HA2         1.6690    0.6480    2.5940 hx        1 S4M      0.100700
     27 HN1         1.2950   -1.7670    4.3030 hn        1 S4M      0.464133
     28 HN2         2.1740   -0.3900    4.6570 hn        1 S4M      0.464133
     29 HB1        -0.9230   -0.7940    3.5450 hc        1 S4M      0.057700
     30 HB2        -0.2150    0.6680    4.3570 hc        1 S4M      0.057700
     31 HG1        -1.0780    0.5060    1.3880 h1        1 S4M      0.073700
     32 HG2        -0.3890    1.9520    2.2130 h1        1 S4M      0.073700
     33 HSD        -3.2600    0.3950    3.0860 hs        1 S4M      0.254800
     34 HE1        -4.5580    2.4500    1.9240 h1        1 S4M      0.082033
     35 HE2        -3.4830    1.6780    0.7050 h1        1 S4M      0.082033
     36 HE3        -3.0450    3.2750    1.4100 h1        1 S4M      0.082033
     37 H5'1       -1.7850    2.4470    4.9030 h1        1 S4M      0.083700
     38 H5'2       -3.0960    3.4430    4.1700 h1        1 S4M      0.083700
     39 H4'        -4.8030    1.7170    4.8930 h1        1 S4M      0.084700
     40 H1'        -3.5020   -0.4680    7.5870 h2        1 S4M      0.128700
     41 H2'        -2.6960    2.2280    8.4780 h1        1 S4M      0.097700
     42 HO2'       -4.8950    2.1520    9.0750 ho        1 S4M      0.437000
     43 H3'        -3.2920    3.6000    6.6290 h1        1 S4M      0.113700
     44 HO3'       -5.8200    2.3660    6.9420 ho        1 S4M      0.419000
     45 H8         -1.6470   -1.9670    6.7950 h5        1 S4M      0.093800
     46 HN61        3.1890   -0.6040    6.8890 hn        1 S4M      0.413300
     47 HN62        3.9300    0.7640    6.3290 hn        1 S4M      0.413300
     48 H2          0.9340    4.0350    7.4650 h5        1 S4M      0.080100
     49 HN3         2.6940   -1.4380    3.4610 hn        1 S4M      0.464133
@<TRIPOS>BOND
     1    1    2 1   
     2    1    3 1   
     3    1   25 1   
     4    1   26 1   
     5    2   27 1   
     6    2   28 1   
     7    2   49 1   
     8    3    4 1   
     9    3   29 1   
    10    3   30 1   
    11    4    5 1   
    12    4   31 1   
    13    4   32 1   
    14    5    6 1   
    15    5    7 1   
    16    5   33 1   
    17    6   34 1   
    18    6   35 1   
    19    6   36 1   
    20    7    8 1   
    21    7   37 1   
    22    7   38 1   
    23    8    9 1   
    24    8   13 1   
    25    8   39 1   
    26    9   10 1   
    27   10   11 1   
    28   10   15 1   
    29   10   40 1   
    30   11   12 1   
    31   11   13 1   
    32   11   41 1   
    33   12   42 1   
    34   13   14 1   
    35   13   43 1   
    36   14   44 1   
    37   15   16 1   
    38   15   21 1   
    39   16   17 2   
    40   16   45 1   
    41   17   18 1   
    42   18   19 ar  
    43   18   21 ar  
    44   19   20 1   
    45   19   24 ar  
    46   20   46 1   
    47   20   47 1   
    48   21   22 ar  
    49   22   23 ar  
    50   23   24 ar  
    51   23   48 1   
@<TRIPOS>SUBSTRUCTURE
     1 S4M         1 TEMP              0 ****  ****    0 ROOT
