@<TRIPOS>MOLECULE
S4U
   32    33     1     0     0
SMALL
bcc


@<TRIPOS>ATOM
      1 P          -0.9180    0.4320   -2.9730 p5        1 S4U      1.344900
      2 OP1        -1.9390    1.0910   -3.8360 o         1 S4U     -0.922833
      3 OP2         0.0660   -0.5510   -3.5640 o         1 S4U     -0.922833
      4 OP3        -1.3280   -0.0110   -1.5790 o         1 S4U     -0.922833
      5 O5'         0.2320    1.6730   -2.5840 os        1 S4U     -0.566200
      6 S4         -2.9710   -0.4210    4.4540 s         1 S4U     -0.650400
      7 C5'         0.5960    1.8310   -1.2780 c3        1 S4U      0.228400
      8 C4'         1.8560    1.0170   -0.8930 c3        1 S4U      0.061100
      9 O4'         2.0730    1.1530    0.5340 os        1 S4U     -0.433600
     10 C1'         1.9760   -0.1040    1.1870 c3        1 S4U      0.267500
     11 N1          0.7130   -0.2180    1.9420 n         1 S4U     -0.350000
     12 C6         -0.5250   -0.2760    1.3320 cc        1 S4U      0.084600
     13 C2          0.7890   -0.1670    3.3530 c         1 S4U      0.781500
     14 O2          1.8710   -0.0880    3.9860 o         1 S4U     -0.686500
     15 N3         -0.4090   -0.2420    4.0940 n         1 S4U     -0.530500
     16 C4         -1.6670   -0.3330    3.5080 c         1 S4U      0.480600
     17 C5         -1.6850   -0.3480    2.0770 cd        1 S4U     -0.339200
     18 C2'         2.1340   -1.2150    0.0980 c3        1 S4U      0.109100
     19 O2'         3.4610   -1.6980    0.1520 oh        1 S4U     -0.617800
     20 C3'         1.7530   -0.4910   -1.2020 c3        1 S4U      0.072100
     21 O3'         2.6170   -0.8580   -2.2520 oh        1 S4U     -0.662800
     22 H5'1       -0.2420    1.5550   -0.5780 h1        1 S4U     -0.001300
     23 H5'2        0.8620    2.9160   -1.1010 h1        1 S4U     -0.001300
     24 H4'         2.7680    1.4550   -1.3750 h1        1 S4U      0.050700
     25 H1'         2.8250   -0.1350    1.9320 h2        1 S4U      0.106700
     26 H6         -0.5830   -0.2640    0.1870 h4        1 S4U      0.317000
     27 H3         -0.3340   -0.2040    5.0890 hn        1 S4U      0.340500
     28 H5         -2.6530   -0.4020    1.5560 ha        1 S4U      0.199000
     29 H2'         1.4760   -2.1020    0.2890 h1        1 S4U      0.075700
     30 HO2'        3.9390   -1.3150   -0.5960 ho        1 S4U      0.425000
     31 H3'         0.6750   -0.7390   -1.4900 h1        1 S4U      0.169700
     32 HO3'        2.0450   -0.8640   -3.0540 ho        1 S4U      0.495000
@<TRIPOS>BOND
     1    1    2 1   
     2    1    3 1   
     3    1    4 1   
     4    1    5 1   
     5    5    7 1   
     6    6   16 2   
     7    7    8 1   
     8    7   22 1   
     9    7   23 1   
    10    8    9 1   
    11    8   20 1   
    12    8   24 1   
    13    9   10 1   
    14   10   11 1   
    15   10   18 1   
    16   10   25 1   
    17   11   12 1   
    18   11   13 1   
    19   12   17 2   
    20   12   26 1   
    21   13   14 2   
    22   13   15 1   
    23   15   16 1   
    24   15   27 1   
    25   16   17 1   
    26   17   28 1   
    27   18   19 1   
    28   18   20 1   
    29   18   29 1   
    30   19   30 1   
    31   20   21 1   
    32   20   31 1   
    33   21   32 1   
@<TRIPOS>SUBSTRUCTURE
     1 S4U         1 TEMP              0 ****  ****    0 ROOT
