@<TRIPOS>MOLECULE
S51
   55    59     1     0     0
SMALL
bcc


@<TRIPOS>ATOM
      1 C1          0.4430   -0.0440   -0.2410 ca        1 S51     -0.126000
      2 C2          1.8180    0.0970   -0.0610 ca        1 S51     -0.122000
      3 C3          2.3750    0.0480    1.2140 ca        1 S51     -0.127500
      4 C4          1.5430   -0.1430    2.3380 ca        1 S51      0.006800
      5 C5          0.1510   -0.2760    2.1500 ca        1 S51     -0.127500
      6 C6         -0.3840   -0.2300    0.8660 ca        1 S51     -0.122000
      7 N12         2.1020   -0.1750    3.6360 na        1 S51     -0.004500
      8 C13         2.8330    0.8780    4.2150 ca        1 S51     -0.038200
      9 C14         3.1670    0.5050    5.5700 ca        1 S51     -0.067800
     10 C15         2.6120   -0.8130    5.7750 cc        1 S51     -0.210400
     11 C16         1.9870   -1.2080    4.5840 cd        1 S51      0.024700
     12 C17         3.2300    2.1170    3.6880 ca        1 S51     -0.132000
     13 C18         3.9590    2.9640    4.5080 ca        1 S51     -0.118000
     14 C19         4.2960    2.6040    5.8250 ca        1 S51     -0.148000
     15 C20         3.9080    1.3860    6.3600 ca        1 S51     -0.094000
     16 C26         2.1320   -3.4300    3.4830 ca        1 S51     -0.092300
     17 C29         3.3770   -3.8830    3.9370 ca        1 S51     -0.117500
     18 C30         4.1240   -4.7670    3.1610 ca        1 S51     -0.134000
     19 C31         3.6340   -5.2100    1.9330 ca        1 S51     -0.128000
     20 C32         2.3920   -4.7660    1.4800 ca        1 S51     -0.134000
     21 C33         1.6420   -3.8800    2.2520 ca        1 S51     -0.117500
     22 C39         2.7510   -1.6430    6.9850 c         1 S51      0.705300
     23 N40         2.0020   -1.3230    8.1110 n         1 S51     -0.464800
     24 O41         3.4830   -2.6560    6.9950 o         1 S51     -0.613100
     25 C42         2.1970   -2.0450    9.3500 c3        1 S51      0.086500
     26 C43         2.6460   -1.1430   10.5200 c3        1 S51      0.140300
     27 N44         1.8400    0.0540   10.6530 n3        1 S51     -0.820200
     28 C45         1.6800    0.7850    9.4120 c3        1 S51      0.140300
     29 C46         1.2280   -0.1130    8.2370 c3        1 S51      0.086500
     30 C60         1.3170   -2.5110    4.3290 c3        1 S51      0.015100
     31 H1          0.0120   -0.0070   -1.2520 ha        1 S51      0.138000
     32 H2          2.4750    0.2420   -0.9320 ha        1 S51      0.138500
     33 H3          3.4640    0.1560    1.3420 ha        1 S51      0.147000
     34 H5         -0.5180   -0.4110    3.0140 ha        1 S51      0.147000
     35 H6         -1.4710   -0.3360    0.7290 ha        1 S51      0.138500
     36 H17         2.9710    2.3980    2.6580 ha        1 S51      0.141000
     37 H18         4.2860    3.9410    4.1200 ha        1 S51      0.132000
     38 H19         4.8830    3.3070    6.4360 ha        1 S51      0.131000
     39 H20         4.1780    1.1070    7.3890 ha        1 S51      0.137000
     40 H29         3.7600   -3.5360    4.9140 ha        1 S51      0.149000
     41 H30         5.1020   -5.1170    3.5230 ha        1 S51      0.131000
     42 H31         4.2240   -5.9090    1.3230 ha        1 S51      0.129000
     43 H32         2.0010   -5.1150    0.5140 ha        1 S51      0.131000
     44 H33         0.6630   -3.5340    1.8900 ha        1 S51      0.149000
     45 H42         1.2180   -2.5330    9.6210 h1        1 S51      0.065950
     46 H42A        2.9710   -2.8510    9.2070 h1        1 S51      0.065950
     47 H43         3.7430   -0.9070   10.3880 h1        1 S51      0.035950
     48 H43A        2.5350   -1.7340   11.4720 h1        1 S51      0.035950
     49 HN44        2.2260    0.6540   11.3580 hn        1 S51      0.364800
     50 H45         2.6270    1.3190    9.1040 h1        1 S51      0.035950
     51 H45A        0.8840    1.5640    9.5750 h1        1 S51      0.035950
     52 H46         1.2860    0.4960    7.2930 h1        1 S51      0.065950
     53 H46A        0.1520   -0.4100    8.4050 h1        1 S51      0.065950
     54 H60         0.3120   -2.3380    3.8540 hc        1 S51      0.070700
     55 H60A        1.1430   -3.0030    5.3290 hc        1 S51      0.070700
@<TRIPOS>BOND
     1    1    2 ar  
     2    1    6 ar  
     3    1   31 1   
     4    2    3 ar  
     5    2   32 1   
     6    3    4 ar  
     7    3   33 1   
     8    4    5 ar  
     9    4    7 1   
    10    5    6 ar  
    11    5   34 1   
    12    6   35 1   
    13    7    8 1   
    14    7   11 1   
    15    8    9 ar  
    16    8   12 ar  
    17    9   10 1   
    18    9   15 ar  
    19   10   11 2   
    20   10   22 1   
    21   11   30 1   
    22   12   13 ar  
    23   12   36 1   
    24   13   14 ar  
    25   13   37 1   
    26   14   15 ar  
    27   14   38 1   
    28   15   39 1   
    29   16   17 ar  
    30   16   21 ar  
    31   16   30 1   
    32   17   18 ar  
    33   17   40 1   
    34   18   19 ar  
    35   18   41 1   
    36   19   20 ar  
    37   19   42 1   
    38   20   21 ar  
    39   20   43 1   
    40   21   44 1   
    41   22   23 1   
    42   22   24 2   
    43   23   25 1   
    44   23   29 1   
    45   25   26 1   
    46   25   45 1   
    47   25   46 1   
    48   26   27 1   
    49   26   47 1   
    50   26   48 1   
    51   27   28 1   
    52   27   49 1   
    53   28   29 1   
    54   28   50 1   
    55   28   51 1   
    56   29   52 1   
    57   29   53 1   
    58   30   54 1   
    59   30   55 1   
@<TRIPOS>SUBSTRUCTURE
     1 S51         1 TEMP              0 ****  ****    0 ROOT
