@<TRIPOS>MOLECULE
S51
   55    59     1     0     0
SMALL
bcc


@<TRIPOS>ATOM
      1 C1         -5.2240   -1.2050   -1.1870 ca        1 S51     -0.126000
      2 C2         -4.8510   -1.2730    0.1540 ca        1 S51     -0.121500
      3 C3         -3.5160   -1.1340    0.5270 ca        1 S51     -0.128000
      4 C4         -2.5290   -0.9250   -0.4590 ca        1 S51      0.007800
      5 C5         -2.9120   -0.8650   -1.8160 ca        1 S51     -0.128000
      6 C6         -4.2530   -1.0010   -2.1660 ca        1 S51     -0.121500
      7 N12        -1.1710   -0.8020   -0.0870 na        1 S51     -0.003500
      8 C13        -0.4430   -1.7920    0.5990 ca        1 S51     -0.039200
      9 C14         0.9250   -1.3450    0.7170 ca        1 S51     -0.067800
     10 C15         0.9860   -0.0490    0.0800 cc        1 S51     -0.211400
     11 C16        -0.3010    0.2630   -0.3820 cd        1 S51      0.028700
     12 C17        -0.8470   -3.0290    1.1250 ca        1 S51     -0.132000
     13 C18         0.1080   -3.8020    1.7670 ca        1 S51     -0.118000
     14 C19         1.4400   -3.3710    1.8920 ca        1 S51     -0.147000
     15 C20         1.8560   -2.1530    1.3740 ca        1 S51     -0.095000
     16 C26        -1.5180    2.4210   -0.1910 ca        1 S51     -0.091300
     17 C29        -0.9400    2.9910    0.9500 ca        1 S51     -0.116500
     18 C30        -1.6810    3.8600    1.7490 ca        1 S51     -0.134500
     19 C31        -2.9990    4.1700    1.4130 ca        1 S51     -0.127000
     20 C32        -3.5760    3.6100    0.2740 ca        1 S51     -0.134500
     21 C33        -2.8390    2.7390   -0.5270 ca        1 S51     -0.116500
     22 C39         2.1540    0.8430    0.0120 c         1 S51      0.710300
     23 N40         3.2800    0.4430   -0.6950 n         1 S51     -0.471800
     24 O41         2.1440    1.9670    0.5620 o         1 S51     -0.619100
     25 C42         4.4650    1.2720   -0.7000 c3        1 S51      0.054500
     26 C43         5.7660    0.4690   -0.4710 c3        1 S51      0.134300
     27 N44         5.8880   -0.7410   -1.2610 n3        1 S51     -0.796200
     28 C45         4.6900   -1.5520   -1.1950 c3        1 S51      0.134300
     29 C46         3.3650   -0.7890   -1.4380 c3        1 S51      0.054500
     30 C60        -0.7120    1.5200   -1.0640 c3        1 S51      0.015100
     31 H1         -6.2800   -1.3140   -1.4720 ha        1 S51      0.138000
     32 H2         -5.6140   -1.4330    0.9310 ha        1 S51      0.138500
     33 H3         -3.2360   -1.1850    1.5910 ha        1 S51      0.147000
     34 H5         -2.1560   -0.7160   -2.6030 ha        1 S51      0.147000
     35 H6         -4.5420   -0.9520   -3.2260 ha        1 S51      0.138500
     36 H17        -1.8890   -3.3650    1.0310 ha        1 S51      0.141000
     37 H18        -0.1820   -4.7750    2.1910 ha        1 S51      0.132000
     38 H19         2.1630   -4.0160    2.4140 ha        1 S51      0.133000
     39 H20         2.8990   -1.8200    1.4750 ha        1 S51      0.140000
     40 H29         0.1070    2.7490    1.2060 ha        1 S51      0.149000
     41 H30        -1.2220    4.3020    2.6450 ha        1 S51      0.131000
     42 H31        -3.5820    4.8570    2.0440 ha        1 S51      0.129000
     43 H32        -4.6130    3.8550    0.0040 ha        1 S51      0.131000
     44 H33        -3.3000    2.3000   -1.4240 ha        1 S51      0.149000
     45 H42         4.5280    1.7980   -1.6970 h1        1 S51      0.058450
     46 H42A        4.3800    2.0570    0.1030 h1        1 S51      0.058450
     47 H43         6.6350    1.1440   -0.6990 h1        1 S51      0.060200
     48 H43A        5.8270    0.1720    0.6130 h1        1 S51      0.060200
     49 HN44        6.0860   -0.5040   -2.2180 hn        1 S51      0.350800
     50 H45         4.7610   -2.3750   -1.9580 h1        1 S51      0.060200
     51 H45A        4.6550   -2.0230   -0.1720 h1        1 S51      0.060200
     52 H46         2.5130   -1.4720   -1.1680 h1        1 S51      0.058450
     53 H46A        3.2830   -0.5460   -2.5380 h1        1 S51      0.058450
     54 H60         0.2290    2.0620   -1.3660 hc        1 S51      0.071200
     55 H60A       -1.2840    1.2750   -2.0010 hc        1 S51      0.071200
@<TRIPOS>BOND
     1    1    2 ar  
     2    1    6 ar  
     3    1   31 1   
     4    2    3 ar  
     5    2   32 1   
     6    3    4 ar  
     7    3   33 1   
     8    4    5 ar  
     9    4    7 1   
    10    5    6 ar  
    11    5   34 1   
    12    6   35 1   
    13    7    8 1   
    14    7   11 1   
    15    8    9 ar  
    16    8   12 ar  
    17    9   10 1   
    18    9   15 ar  
    19   10   11 2   
    20   10   22 1   
    21   11   30 1   
    22   12   13 ar  
    23   12   36 1   
    24   13   14 ar  
    25   13   37 1   
    26   14   15 ar  
    27   14   38 1   
    28   15   39 1   
    29   16   17 ar  
    30   16   21 ar  
    31   16   30 1   
    32   17   18 ar  
    33   17   40 1   
    34   18   19 ar  
    35   18   41 1   
    36   19   20 ar  
    37   19   42 1   
    38   20   21 ar  
    39   20   43 1   
    40   21   44 1   
    41   22   23 1   
    42   22   24 2   
    43   23   25 1   
    44   23   29 1   
    45   25   26 1   
    46   25   45 1   
    47   25   46 1   
    48   26   27 1   
    49   26   47 1   
    50   26   48 1   
    51   27   28 1   
    52   27   49 1   
    53   28   29 1   
    54   28   50 1   
    55   28   51 1   
    56   29   52 1   
    57   29   53 1   
    58   30   54 1   
    59   30   55 1   
@<TRIPOS>SUBSTRUCTURE
     1 S51         1 TEMP              0 ****  ****    0 ROOT
