@<TRIPOS>MOLECULE
S51
   55    59     1     0     0
SMALL
bcc


@<TRIPOS>ATOM
      1 C1          0.4200   -0.0600   -0.2350 ca        1 S51     -0.126000
      2 C2          1.7960    0.0770   -0.0630 ca        1 S51     -0.122000
      3 C3          2.3590    0.0320    1.2100 ca        1 S51     -0.127500
      4 C4          1.5330   -0.1510    2.3390 ca        1 S51      0.006800
      5 C5          0.1400   -0.2800    2.1590 ca        1 S51     -0.127500
      6 C6         -0.4020   -0.2380    0.8770 ca        1 S51     -0.122000
      7 N12         2.0990   -0.1800    3.6340 na        1 S51     -0.004500
      8 C13         2.8360    0.8740    4.2050 ca        1 S51     -0.038200
      9 C14         3.1750    0.5050    5.5590 ca        1 S51     -0.067800
     10 C15         2.6170   -0.8110    5.7730 cc        1 S51     -0.210400
     11 C16         1.9850   -1.2090    4.5870 cd        1 S51      0.024700
     12 C17         3.2350    2.1080    3.6700 ca        1 S51     -0.132000
     13 C18         3.9710    2.9570    4.4830 ca        1 S51     -0.118000
     14 C19         4.3140    2.6010    5.7990 ca        1 S51     -0.148000
     15 C20         3.9230    1.3860    6.3420 ca        1 S51     -0.094000
     16 C26         2.1170   -3.4360    3.4950 ca        1 S51     -0.092300
     17 C29         3.3630   -3.8900    3.9450 ca        1 S51     -0.117500
     18 C30         4.1030   -4.7810    3.1690 ca        1 S51     -0.134000
     19 C31         3.6050   -5.2270    1.9450 ca        1 S51     -0.128000
     20 C32         2.3620   -4.7820    1.4970 ca        1 S51     -0.134000
     21 C33         1.6190   -3.8890    2.2690 ca        1 S51     -0.117500
     22 C39         2.7590   -1.6350    6.9860 c         1 S51      0.705300
     23 N40         2.0160   -1.3090    8.1140 n         1 S51     -0.464800
     24 O41         3.4890   -2.6510    6.9970 o         1 S51     -0.613100
     25 C42         2.2150   -2.0260    9.3540 c3        1 S51      0.086500
     26 C43         2.6720   -1.1200   10.5190 c3        1 S51      0.140300
     27 N44         1.8700    0.0800   10.6500 n3        1 S51     -0.820200
     28 C45         1.7070    0.8060    9.4060 c3        1 S51      0.140300
     29 C46         1.2460   -0.0960    8.2380 c3        1 S51      0.086500
     30 C60         1.3090   -2.5110    4.3410 c3        1 S51      0.015100
     31 H1         -0.0170   -0.0260   -1.2440 ha        1 S51      0.138000
     32 H2          2.4490    0.2170   -0.9380 ha        1 S51      0.138500
     33 H3          3.4490    0.1370    1.3310 ha        1 S51      0.147000
     34 H5         -0.5250   -0.4100    3.0260 ha        1 S51      0.147000
     35 H6         -1.4900   -0.3410    0.7460 ha        1 S51      0.138500
     36 H17         2.9720    2.3850    2.6400 ha        1 S51      0.141000
     37 H18         4.3000    3.9300    4.0890 ha        1 S51      0.132000
     38 H19         4.9050    3.3040    6.4040 ha        1 S51      0.131000
     39 H20         4.1980    1.1110    7.3710 ha        1 S51      0.137000
     40 H29         3.7510   -3.5400    4.9180 ha        1 S51      0.149000
     41 H30         5.0820   -5.1330    3.5270 ha        1 S51      0.131000
     42 H31         4.1900   -5.9310    1.3350 ha        1 S51      0.129000
     43 H32         1.9650   -5.1340    0.5340 ha        1 S51      0.131000
     44 H33         0.6390   -3.5420    1.9090 ha        1 S51      0.149000
     45 H42         2.9850   -2.8350    9.2120 h1        1 S51      0.065950
     46 H42A        1.2340   -2.5090    9.6330 h1        1 S51      0.065950
     47 H43         2.5630   -1.7060   11.4740 h1        1 S51      0.035950
     48 H43A        3.7690   -0.8880   10.3800 h1        1 S51      0.035950
     49 HN44        2.2610    0.6820   11.3500 hn        1 S51      0.364800
     50 H45         2.6540    1.3360    9.0910 h1        1 S51      0.035950
     51 H45A        0.9140    1.5880    9.5700 h1        1 S51      0.035950
     52 H46         0.1700   -0.3890    8.4130 h1        1 S51      0.065950
     53 H46A        1.3010    0.5090    7.2910 h1        1 S51      0.065950
     54 H60         0.3020   -2.3360    3.8700 hc        1 S51      0.070700
     55 H60A        1.1390   -2.9970    5.3440 hc        1 S51      0.070700
@<TRIPOS>BOND
     1    1    2 ar  
     2    1    6 ar  
     3    1   31 1   
     4    2    3 ar  
     5    2   32 1   
     6    3    4 ar  
     7    3   33 1   
     8    4    5 ar  
     9    4    7 1   
    10    5    6 ar  
    11    5   34 1   
    12    6   35 1   
    13    7    8 1   
    14    7   11 1   
    15    8    9 ar  
    16    8   12 ar  
    17    9   10 1   
    18    9   15 ar  
    19   10   11 2   
    20   10   22 1   
    21   11   30 1   
    22   12   13 ar  
    23   12   36 1   
    24   13   14 ar  
    25   13   37 1   
    26   14   15 ar  
    27   14   38 1   
    28   15   39 1   
    29   16   17 ar  
    30   16   21 ar  
    31   16   30 1   
    32   17   18 ar  
    33   17   40 1   
    34   18   19 ar  
    35   18   41 1   
    36   19   20 ar  
    37   19   42 1   
    38   20   21 ar  
    39   20   43 1   
    40   21   44 1   
    41   22   23 1   
    42   22   24 2   
    43   23   25 1   
    44   23   29 1   
    45   25   26 1   
    46   25   45 1   
    47   25   46 1   
    48   26   27 1   
    49   26   47 1   
    50   26   48 1   
    51   27   28 1   
    52   27   49 1   
    53   28   29 1   
    54   28   50 1   
    55   28   51 1   
    56   29   52 1   
    57   29   53 1   
    58   30   54 1   
    59   30   55 1   
@<TRIPOS>SUBSTRUCTURE
     1 S51         1 TEMP              0 ****  ****    0 ROOT
