@<TRIPOS>MOLECULE
S51
   55    59     1     0     0
SMALL
bcc


@<TRIPOS>ATOM
      1 C1          0.4070   -0.0680   -0.2320 ca        1 S51     -0.126000
      2 C2          1.7840    0.0730   -0.0630 ca        1 S51     -0.122000
      3 C3          2.3490    0.0300    1.2090 ca        1 S51     -0.127500
      4 C4          1.5250   -0.1550    2.3400 ca        1 S51      0.006800
      5 C5          0.1320   -0.2880    2.1620 ca        1 S51     -0.127500
      6 C6         -0.4120   -0.2480    0.8810 ca        1 S51     -0.122000
      7 N12         2.0930   -0.1820    3.6340 na        1 S51     -0.004500
      8 C13         2.8280    0.8750    4.2030 ca        1 S51     -0.038200
      9 C14         3.1710    0.5080    5.5560 ca        1 S51     -0.067800
     10 C15         2.6170   -0.8090    5.7720 cc        1 S51     -0.210400
     11 C16         1.9840   -1.2100    4.5870 cd        1 S51      0.024700
     12 C17         3.2220    2.1110    3.6670 ca        1 S51     -0.132000
     13 C18         3.9570    2.9620    4.4780 ca        1 S51     -0.118000
     14 C19         4.3030    2.6080    5.7940 ca        1 S51     -0.148000
     15 C20         3.9180    1.3920    6.3380 ca        1 S51     -0.094000
     16 C26         2.1210   -3.4370    3.4960 ca        1 S51     -0.092300
     17 C29         3.3690   -3.8870    3.9430 ca        1 S51     -0.117500
     18 C30         4.1110   -4.7760    3.1660 ca        1 S51     -0.134000
     19 C31         3.6110   -5.2240    1.9430 ca        1 S51     -0.128000
     20 C32         2.3660   -4.7830    1.4980 ca        1 S51     -0.134000
     21 C33         1.6220   -3.8920    2.2710 ca        1 S51     -0.117500
     22 C39         2.7650   -1.6330    6.9850 c         1 S51      0.705300
     23 N40         2.0240   -1.3080    8.1150 n         1 S51     -0.464800
     24 O41         3.4970   -2.6470    6.9950 o         1 S51     -0.613100
     25 C42         2.2280   -2.0250    9.3550 c3        1 S51      0.086500
     26 C43         2.6850   -1.1170   10.5190 c3        1 S51      0.140300
     27 N44         1.8800    0.0810   10.6510 n7        1 S51     -0.820200
     28 C45         1.7120    0.8060    9.4080 c3        1 S51      0.140300
     29 C46         1.2510   -0.0970    8.2410 c3        1 S51      0.086500
     30 C60         1.3120   -2.5140    4.3440 c3        1 S51      0.015100
     31 H1         -0.0310   -0.0360   -1.2400 ha        1 S51      0.138000
     32 H2          2.4340    0.2150   -0.9390 ha        1 S51      0.138500
     33 H3          3.4390    0.1390    1.3280 ha        1 S51      0.147000
     34 H5         -0.5310   -0.4190    3.0310 ha        1 S51      0.147000
     35 H6         -1.5000   -0.3550    0.7520 ha        1 S51      0.138500
     36 H17         2.9560    2.3870    2.6370 ha        1 S51      0.141000
     37 H18         4.2820    3.9360    4.0830 ha        1 S51      0.132000
     38 H19         4.8940    3.3130    6.3970 ha        1 S51      0.131000
     39 H20         4.1960    1.1180    7.3660 ha        1 S51      0.137000
     40 H29         3.7590   -3.5360    4.9160 ha        1 S51      0.149000
     41 H30         5.0910   -5.1240    3.5230 ha        1 S51      0.131000
     42 H31         4.1970   -5.9260    1.3330 ha        1 S51      0.129000
     43 H32         1.9680   -5.1360    0.5360 ha        1 S51      0.131000
     44 H33         0.6400   -3.5480    1.9140 ha        1 S51      0.149000
     45 H42         1.2490   -2.5100    9.6360 h1        1 S51      0.065950
     46 H42A        3.0000   -2.8310    9.2110 h1        1 S51      0.065950
     47 H43         2.5800   -1.7040   11.4740 h1        1 S51      0.035950
     48 H43A        3.7810   -0.8820   10.3770 h1        1 S51      0.035950
     49 HN44        2.2710    0.6830   11.3510 hn        1 S51      0.364800
     50 H45         2.6570    1.3390    9.0910 h1        1 S51      0.035950
     51 H45A        0.9180    1.5860    9.5740 h1        1 S51      0.035950
     52 H46         1.3030    0.5080    7.2940 h1        1 S51      0.065950
     53 H46A        0.1760   -0.3930    8.4180 h1        1 S51      0.065950
     54 H60         1.1450   -3.0010    5.3470 hc        1 S51      0.070700
     55 H60A        0.3040   -2.3420    3.8750 hc        1 S51      0.070700
@<TRIPOS>BOND
     1    1    2 ar  
     2    1    6 ar  
     3    1   31 1   
     4    2    3 ar  
     5    2   32 1   
     6    3    4 ar  
     7    3   33 1   
     8    4    5 ar  
     9    4    7 1   
    10    5    6 ar  
    11    5   34 1   
    12    6   35 1   
    13    7    8 1   
    14    7   11 1   
    15    8    9 ar  
    16    8   12 ar  
    17    9   10 1   
    18    9   15 ar  
    19   10   11 2   
    20   10   22 1   
    21   11   30 1   
    22   12   13 ar  
    23   12   36 1   
    24   13   14 ar  
    25   13   37 1   
    26   14   15 ar  
    27   14   38 1   
    28   15   39 1   
    29   16   17 ar  
    30   16   21 ar  
    31   16   30 1   
    32   17   18 ar  
    33   17   40 1   
    34   18   19 ar  
    35   18   41 1   
    36   19   20 ar  
    37   19   42 1   
    38   20   21 ar  
    39   20   43 1   
    40   21   44 1   
    41   22   23 1   
    42   22   24 2   
    43   23   25 1   
    44   23   29 1   
    45   25   26 1   
    46   25   45 1   
    47   25   46 1   
    48   26   27 1   
    49   26   47 1   
    50   26   48 1   
    51   27   28 1   
    52   27   49 1   
    53   28   29 1   
    54   28   50 1   
    55   28   51 1   
    56   29   52 1   
    57   29   53 1   
    58   30   54 1   
    59   30   55 1   
@<TRIPOS>SUBSTRUCTURE
     1 S51         1 TEMP              0 ****  ****    0 ROOT
