@<TRIPOS>MOLECULE
S52
   53    57     1     0     0
SMALL
bcc


@<TRIPOS>ATOM
      1 C1         -0.0360   -0.1750   -0.0850 ca        1 S52     -0.130000
      2 O1          3.1350   -2.2670    3.4380 os        1 S52     -0.238200
      3 C2          1.2750   -0.6410   -0.0010 ca        1 S52     -0.119000
      4 C3          1.9540   -0.6300    1.2140 ca        1 S52     -0.133000
      5 C4          1.3140   -0.1440    2.3750 ca        1 S52      0.008800
      6 C5         -0.0180    0.3140    2.2850 ca        1 S52     -0.133000
      7 C6         -0.6760    0.2980    1.0590 ca        1 S52     -0.119000
      8 N12         1.9950   -0.1140    3.6100 na        1 S52     -0.015500
      9 C13         2.0590    0.9890    4.4840 ca        1 S52     -0.031200
     10 C14         2.9590    0.6660    5.5670 ca        1 S52     -0.067800
     11 C15         3.4510   -0.6710    5.3160 cc        1 S52     -0.191400
     12 C16         2.8600   -1.1060    4.1270 cd        1 S52      0.160000
     13 C17         1.4230    2.2390    4.4310 ca        1 S52     -0.136000
     14 C18         1.6730    3.1390    5.4560 ca        1 S52     -0.113000
     15 C19         2.5350    2.8230    6.5210 ca        1 S52     -0.148000
     16 C20         3.1800    1.5970    6.5840 ca        1 S52     -0.084000
     17 C26         2.1870   -3.2930    3.5960 ca        1 S52      0.080100
     18 C29         1.7960   -3.9540    2.4250 ca        1 S52     -0.135500
     19 C30         0.9470   -5.0540    2.5320 ca        1 S52     -0.117500
     20 C31         0.4910   -5.4740    3.7820 ca        1 S52     -0.136000
     21 C32         0.8880   -4.8010    4.9380 ca        1 S52     -0.117500
     22 C33         1.7440   -3.7030    4.8570 ca        1 S52     -0.135500
     23 C39         4.3380   -1.4500    6.1990 c         1 S52      0.704300
     24 N40         5.6570   -1.0290    6.3550 n         1 S52     -0.447800
     25 O41         3.8990   -2.4140    6.8610 o         1 S52     -0.605100
     26 C42         6.5830   -1.8420    7.1170 c3        1 S52      0.080500
     27 C43         7.6480   -2.5460    6.2470 c3        1 S52      0.135800
     28 N44         8.2910   -1.6500    5.3050 n3        1 S52     -0.820200
     29 C45         7.3590   -0.8570    4.5280 c3        1 S52      0.135800
     30 C46         6.2990   -0.1500    5.4040 c3        1 S52      0.080500
     31 H1         -0.5640   -0.1840   -1.0500 ha        1 S52      0.137000
     32 H2          1.7830   -1.0200   -0.9000 ha        1 S52      0.137500
     33 H3          2.9860   -1.0150    1.2720 ha        1 S52      0.150500
     34 H5         -0.5430    0.6780    3.1820 ha        1 S52      0.150500
     35 H6         -1.7150    0.6580    0.9990 ha        1 S52      0.137500
     36 H17         0.7530    2.4980    3.5980 ha        1 S52      0.142000
     37 H18         1.1850    4.1250    5.4380 ha        1 S52      0.133000
     38 H19         2.6970    3.5670    7.3150 ha        1 S52      0.134000
     39 H20         3.8560    1.3510    7.4160 ha        1 S52      0.147000
     40 H29         2.1630   -3.6070    1.4490 ha        1 S52      0.163000
     41 H30         0.6340   -5.5890    1.6230 ha        1 S52      0.137000
     42 H31        -0.1830   -6.3400    3.8560 ha        1 S52      0.133000
     43 H32         0.5320   -5.1380    5.9230 ha        1 S52      0.137000
     44 H33         2.0820   -3.1720    5.7650 ha        1 S52      0.163000
     45 H42         7.1020   -1.1600    7.8500 h1        1 S52      0.067950
     46 H42A        6.0200   -2.6290    7.6930 h1        1 S52      0.067950
     47 H43         7.1620   -3.4280    5.7350 h1        1 S52      0.037950
     48 H43A        8.4460   -2.9440    6.9340 h1        1 S52      0.037950
     49 HN44        8.8920   -2.1700    4.6930 hn        1 S52      0.364800
     50 H45         7.9520   -0.0620    3.9960 h1        1 S52      0.037950
     51 H45A        6.8230   -1.4700    3.7450 h1        1 S52      0.037950
     52 H46         6.8040    0.6690    5.9920 h1        1 S52      0.067950
     53 H46A        5.5380    0.3220    4.7230 h1        1 S52      0.067950
@<TRIPOS>BOND
     1    1    3 ar  
     2    1    7 ar  
     3    1   31 1   
     4    2   12 1   
     5    2   17 1   
     6    3    4 ar  
     7    3   32 1   
     8    4    5 ar  
     9    4   33 1   
    10    5    6 ar  
    11    5    8 1   
    12    6    7 ar  
    13    6   34 1   
    14    7   35 1   
    15    8    9 1   
    16    8   12 1   
    17    9   10 ar  
    18    9   13 ar  
    19   10   11 1   
    20   10   16 ar  
    21   11   12 2   
    22   11   23 1   
    23   13   14 ar  
    24   13   36 1   
    25   14   15 ar  
    26   14   37 1   
    27   15   16 ar  
    28   15   38 1   
    29   16   39 1   
    30   17   18 ar  
    31   17   22 ar  
    32   18   19 ar  
    33   18   40 1   
    34   19   20 ar  
    35   19   41 1   
    36   20   21 ar  
    37   20   42 1   
    38   21   22 ar  
    39   21   43 1   
    40   22   44 1   
    41   23   24 1   
    42   23   25 2   
    43   24   26 1   
    44   24   30 1   
    45   26   27 1   
    46   26   45 1   
    47   26   46 1   
    48   27   28 1   
    49   27   47 1   
    50   27   48 1   
    51   28   29 1   
    52   28   49 1   
    53   29   30 1   
    54   29   50 1   
    55   29   51 1   
    56   30   52 1   
    57   30   53 1   
@<TRIPOS>SUBSTRUCTURE
     1 S52         1 TEMP              0 ****  ****    0 ROOT
