@<TRIPOS>MOLECULE
S52
   53    57     1     0     0
SMALL
bcc


@<TRIPOS>ATOM
      1 C1         -0.0220   -0.1790   -0.0970 ca        1 S52     -0.130000
      2 O1          3.1380   -2.2670    3.4390 os        1 S52     -0.238200
      3 C2          1.2890   -0.6450   -0.0080 ca        1 S52     -0.119000
      4 C3          1.9650   -0.6320    1.2090 ca        1 S52     -0.133000
      5 C4          1.3210   -0.1450    2.3670 ca        1 S52      0.008800
      6 C5         -0.0110    0.3130    2.2730 ca        1 S52     -0.133000
      7 C6         -0.6660    0.2950    1.0450 ca        1 S52     -0.119000
      8 N12         1.9970   -0.1140    3.6050 na        1 S52     -0.015500
      9 C13         2.0590    0.9910    4.4780 ca        1 S52     -0.031200
     10 C14         2.9550    0.6680    5.5640 ca        1 S52     -0.067800
     11 C15         3.4480   -0.6690    5.3170 cc        1 S52     -0.191400
     12 C16         2.8610   -1.1050    4.1260 cd        1 S52      0.160000
     13 C17         1.4230    2.2400    4.4210 ca        1 S52     -0.136000
     14 C18         1.6700    3.1410    5.4460 ca        1 S52     -0.113000
     15 C19         2.5280    2.8260    6.5140 ca        1 S52     -0.148000
     16 C20         3.1730    1.6000    6.5810 ca        1 S52     -0.084000
     17 C26         2.1890   -3.2930    3.5950 ca        1 S52      0.080100
     18 C29         1.8030   -3.9560    2.4230 ca        1 S52     -0.135500
     19 C30         0.9530   -5.0560    2.5280 ca        1 S52     -0.117500
     20 C31         0.4930   -5.4740    3.7770 ca        1 S52     -0.136000
     21 C32         0.8850   -4.7990    4.9340 ca        1 S52     -0.117500
     22 C33         1.7410   -3.7020    4.8550 ca        1 S52     -0.135500
     23 C39         4.3300   -1.4480    6.2040 c         1 S52      0.704300
     24 N40         5.6500   -1.0270    6.3640 n         1 S52     -0.447800
     25 O41         3.8890   -2.4110    6.8660 o         1 S52     -0.605100
     26 C42         6.5730   -1.8400    7.1300 c3        1 S52      0.080500
     27 C43         7.6400   -2.5460    6.2640 c3        1 S52      0.135800
     28 N44         8.2860   -1.6520    5.3240 n7        1 S52     -0.820200
     29 C45         7.3580   -0.8600    4.5430 c3        1 S52      0.135800
     30 C46         6.2950   -0.1500    5.4130 c3        1 S52      0.080500
     31 H1         -0.5470   -0.1880   -1.0630 ha        1 S52      0.137000
     32 H2          1.8000   -1.0250   -0.9050 ha        1 S52      0.137500
     33 H3          2.9960   -1.0170    1.2710 ha        1 S52      0.150500
     34 H5         -0.5390    0.6780    3.1680 ha        1 S52      0.150500
     35 H6         -1.7040    0.6560    0.9810 ha        1 S52      0.137500
     36 H17         0.7570    2.4980    3.5860 ha        1 S52      0.142000
     37 H18         1.1830    4.1280    5.4250 ha        1 S52      0.133000
     38 H19         2.6880    3.5710    7.3080 ha        1 S52      0.134000
     39 H20         3.8450    1.3550    7.4160 ha        1 S52      0.147000
     40 H29         2.1740   -3.6100    1.4480 ha        1 S52      0.163000
     41 H30         0.6440   -5.5920    1.6190 ha        1 S52      0.137000
     42 H31        -0.1810   -6.3400    3.8500 ha        1 S52      0.133000
     43 H32         0.5250   -5.1350    5.9180 ha        1 S52      0.137000
     44 H33         2.0750   -3.1700    5.7630 ha        1 S52      0.163000
     45 H42         7.0890   -1.1570    7.8640 h1        1 S52      0.067950
     46 H42A        6.0060   -2.6260    7.7050 h1        1 S52      0.067950
     47 H43         8.4350   -2.9440    6.9550 h1        1 S52      0.037950
     48 H43A        7.1550   -3.4280    5.7520 h1        1 S52      0.037950
     49 HN44        8.8890   -2.1730    4.7150 hn        1 S52      0.364800
     50 H45         6.8250   -1.4730    3.7580 h1        1 S52      0.037950
     51 H45A        7.9540   -0.0650    4.0120 h1        1 S52      0.037950
     52 H46         6.7990    0.6690    6.0030 h1        1 S52      0.067950
     53 H46A        5.5370    0.3210    4.7290 h1        1 S52      0.067950
@<TRIPOS>BOND
     1    1    3 ar  
     2    1    7 ar  
     3    1   31 1   
     4    2   12 1   
     5    2   17 1   
     6    3    4 ar  
     7    3   32 1   
     8    4    5 ar  
     9    4   33 1   
    10    5    6 ar  
    11    5    8 1   
    12    6    7 ar  
    13    6   34 1   
    14    7   35 1   
    15    8    9 1   
    16    8   12 1   
    17    9   10 ar  
    18    9   13 ar  
    19   10   11 1   
    20   10   16 ar  
    21   11   12 2   
    22   11   23 1   
    23   13   14 ar  
    24   13   36 1   
    25   14   15 ar  
    26   14   37 1   
    27   15   16 ar  
    28   15   38 1   
    29   16   39 1   
    30   17   18 ar  
    31   17   22 ar  
    32   18   19 ar  
    33   18   40 1   
    34   19   20 ar  
    35   19   41 1   
    36   20   21 ar  
    37   20   42 1   
    38   21   22 ar  
    39   21   43 1   
    40   22   44 1   
    41   23   24 1   
    42   23   25 2   
    43   24   26 1   
    44   24   30 1   
    45   26   27 1   
    46   26   45 1   
    47   26   46 1   
    48   27   28 1   
    49   27   47 1   
    50   27   48 1   
    51   28   29 1   
    52   28   49 1   
    53   29   30 1   
    54   29   50 1   
    55   29   51 1   
    56   30   52 1   
    57   30   53 1   
@<TRIPOS>SUBSTRUCTURE
     1 S52         1 TEMP              0 ****  ****    0 ROOT
