@<TRIPOS>MOLECULE
S52
   53    57     1     0     0
SMALL
bcc


@<TRIPOS>ATOM
      1 C1         -0.0310   -0.1730   -0.0890 ca        1 S52     -0.130000
      2 O1          3.1330   -2.2680    3.4380 os        1 S52     -0.238200
      3 C2          1.2780   -0.6410   -0.0030 ca        1 S52     -0.119000
      4 C3          1.9580   -0.6300    1.2120 ca        1 S52     -0.133000
      5 C4          1.3180   -0.1420    2.3720 ca        1 S52      0.008800
      6 C5         -0.0130    0.3180    2.2810 ca        1 S52     -0.133000
      7 C6         -0.6710    0.3020    1.0550 ca        1 S52     -0.119000
      8 N12         1.9980   -0.1120    3.6070 na        1 S52     -0.015500
      9 C13         2.0640    0.9920    4.4800 ca        1 S52     -0.031200
     10 C14         2.9620    0.6680    5.5640 ca        1 S52     -0.067800
     11 C15         3.4510   -0.6700    5.3160 cc        1 S52     -0.191400
     12 C16         2.8610   -1.1060    4.1260 cd        1 S52      0.160000
     13 C17         1.4310    2.2430    4.4250 ca        1 S52     -0.136000
     14 C18         1.6820    3.1430    5.4500 ca        1 S52     -0.113000
     15 C19         2.5420    2.8270    6.5150 ca        1 S52     -0.148000
     16 C20         3.1840    1.5990    6.5800 ca        1 S52     -0.084000
     17 C26         2.1830   -3.2920    3.5970 ca        1 S52      0.080100
     18 C29         1.7910   -3.9530    2.4250 ca        1 S52     -0.135500
     19 C30         0.9400   -5.0510    2.5330 ca        1 S52     -0.117500
     20 C31         0.4820   -5.4690    3.7830 ca        1 S52     -0.136000
     21 C32         0.8790   -4.7960    4.9390 ca        1 S52     -0.117500
     22 C33         1.7380   -3.7000    4.8580 ca        1 S52     -0.135500
     23 C39         4.3350   -1.4510    6.2010 c         1 S52      0.704300
     24 N40         5.6550   -1.0320    6.3580 n         1 S52     -0.447800
     25 O41         3.8940   -2.4140    6.8620 o         1 S52     -0.605100
     26 C42         6.5790   -1.8470    7.1220 c3        1 S52      0.080500
     27 C43         7.6430   -2.5540    6.2540 c3        1 S52      0.135800
     28 N44         8.2890   -1.6600    5.3130 n3        1 S52     -0.820200
     29 C45         7.3600   -0.8660    4.5340 c3        1 S52      0.135800
     30 C46         6.3000   -0.1560    5.4070 c3        1 S52      0.080500
     31 H1         -0.5590   -0.1810   -1.0540 ha        1 S52      0.137000
     32 H2          1.7870   -1.0220   -0.9020 ha        1 S52      0.137500
     33 H3          2.9880   -1.0170    1.2710 ha        1 S52      0.150500
     34 H5         -0.5380    0.6850    3.1780 ha        1 S52      0.150500
     35 H6         -1.7090    0.6650    0.9940 ha        1 S52      0.137500
     36 H17         0.7620    2.5020    3.5920 ha        1 S52      0.142000
     37 H18         1.1970    4.1310    5.4290 ha        1 S52      0.133000
     38 H19         2.7060    3.5710    7.3090 ha        1 S52      0.134000
     39 H20         3.8590    1.3530    7.4140 ha        1 S52      0.147000
     40 H29         2.1600   -3.6070    1.4500 ha        1 S52      0.163000
     41 H30         0.6260   -5.5850    1.6240 ha        1 S52      0.137000
     42 H31        -0.1940   -6.3330    3.8570 ha        1 S52      0.133000
     43 H32         0.5210   -5.1310    5.9230 ha        1 S52      0.137000
     44 H33         2.0760   -3.1690    5.7650 ha        1 S52      0.163000
     45 H42         7.0970   -1.1650    7.8550 h1        1 S52      0.067950
     46 H42A        6.0130   -2.6320    7.6970 h1        1 S52      0.067950
     47 H43         7.1560   -3.4350    5.7420 h1        1 S52      0.037950
     48 H43A        8.4400   -2.9530    6.9420 h1        1 S52      0.037950
     49 HN44        8.8900   -2.1810    4.7020 hn        1 S52      0.364800
     50 H45         6.8240   -1.4780    3.7500 h1        1 S52      0.037950
     51 H45A        7.9560   -0.0720    4.0020 h1        1 S52      0.037950
     52 H46         5.5410    0.3170    4.7250 h1        1 S52      0.067950
     53 H46A        6.8060    0.6630    5.9960 h1        1 S52      0.067950
@<TRIPOS>BOND
     1    1    3 ar  
     2    1    7 ar  
     3    1   31 1   
     4    2   12 1   
     5    2   17 1   
     6    3    4 ar  
     7    3   32 1   
     8    4    5 ar  
     9    4   33 1   
    10    5    6 ar  
    11    5    8 1   
    12    6    7 ar  
    13    6   34 1   
    14    7   35 1   
    15    8    9 1   
    16    8   12 1   
    17    9   10 ar  
    18    9   13 ar  
    19   10   11 1   
    20   10   16 ar  
    21   11   12 2   
    22   11   23 1   
    23   13   14 ar  
    24   13   36 1   
    25   14   15 ar  
    26   14   37 1   
    27   15   16 ar  
    28   15   38 1   
    29   16   39 1   
    30   17   18 ar  
    31   17   22 ar  
    32   18   19 ar  
    33   18   40 1   
    34   19   20 ar  
    35   19   41 1   
    36   20   21 ar  
    37   20   42 1   
    38   21   22 ar  
    39   21   43 1   
    40   22   44 1   
    41   23   24 1   
    42   23   25 2   
    43   24   26 1   
    44   24   30 1   
    45   26   27 1   
    46   26   45 1   
    47   26   46 1   
    48   27   28 1   
    49   27   47 1   
    50   27   48 1   
    51   28   29 1   
    52   28   49 1   
    53   29   30 1   
    54   29   50 1   
    55   29   51 1   
    56   30   52 1   
    57   30   53 1   
@<TRIPOS>SUBSTRUCTURE
     1 S52         1 TEMP              0 ****  ****    0 ROOT
