@<TRIPOS>MOLECULE
S52
   53    57     1     0     0
SMALL
bcc


@<TRIPOS>ATOM
      1 C1          5.0080   -0.0360   -1.9670 ca        1 S52     -0.130000
      2 O1          0.2100    1.3130   -0.5620 os        1 S52     -0.237200
      3 C2          3.8220    0.3900   -2.5630 ca        1 S52     -0.119000
      4 C3          2.5950    0.1410   -1.9560 ca        1 S52     -0.133000
      5 C4          2.5450   -0.5480   -0.7240 ca        1 S52      0.007800
      6 C5          3.7510   -0.9650   -0.1200 ca        1 S52     -0.133000
      7 C6          4.9660   -0.7090   -0.7470 ca        1 S52     -0.119000
      8 N12         1.3080   -0.8190   -0.1040 na        1 S52     -0.014500
      9 C13         0.9040   -2.0660    0.4120 ca        1 S52     -0.031200
     10 C14        -0.4710   -1.9630    0.8440 ca        1 S52     -0.067800
     11 C15        -0.8970   -0.6100    0.5600 cc        1 S52     -0.191400
     12 C16         0.1930    0.0470   -0.0190 cd        1 S52      0.159000
     13 C17         1.6040   -3.2760    0.5390 ca        1 S52     -0.136000
     14 C18         0.9410   -4.3540    1.1060 ca        1 S52     -0.113000
     15 C19        -0.3910   -4.2530    1.5430 ca        1 S52     -0.148000
     16 C20        -1.1020   -3.0690    1.4160 ca        1 S52     -0.084000
     17 C26         0.7740    2.3070    0.2580 ca        1 S52      0.080100
     18 C29         1.6460    3.2010   -0.3760 ca        1 S52     -0.135500
     19 C30         2.1480    4.2740    0.3570 ca        1 S52     -0.116500
     20 C31         1.7950    4.4400    1.6970 ca        1 S52     -0.137000
     21 C32         0.9270    3.5370    2.3130 ca        1 S52     -0.116500
     22 C33         0.4050    2.4610    1.5970 ca        1 S52     -0.135500
     23 C39        -2.2040   -0.0200    0.9030 c         1 S52      0.710300
     24 N40        -3.3200   -0.4050    0.1670 n         1 S52     -0.455800
     25 O41        -2.3250    0.7520    1.8770 o         1 S52     -0.606100
     26 C42        -4.6010    0.2220    0.4220 c3        1 S52      0.048500
     27 C43        -5.1600    0.9950   -0.7950 c3        1 S52      0.127800
     28 N44        -5.1010    0.2800   -2.0540 n3        1 S52     -0.795200
     29 C45        -3.7930   -0.2990   -2.2870 c3        1 S52      0.127800
     30 C46        -3.2120   -1.0970   -1.0960 c3        1 S52      0.048500
     31 H1          5.9740    0.1620   -2.4560 ha        1 S52      0.137000
     32 H2          3.8500    0.9260   -3.5230 ha        1 S52      0.138000
     33 H3          1.6640    0.4950   -2.4280 ha        1 S52      0.151000
     34 H5          3.7360   -1.4860    0.8510 ha        1 S52      0.151000
     35 H6          5.9010   -1.0390   -0.2680 ha        1 S52      0.138000
     36 H17         2.6430   -3.3660    0.1930 ha        1 S52      0.142000
     37 H18         1.4690   -5.3130    1.2170 ha        1 S52      0.133000
     38 H19        -0.8740   -5.1330    1.9940 ha        1 S52      0.134000
     39 H20        -2.1440   -2.9910    1.7590 ha        1 S52      0.145000
     40 H29         1.9140    3.0530   -1.4310 ha        1 S52      0.163000
     41 H30         2.8300    4.9900   -0.1250 ha        1 S52      0.137000
     42 H31         2.2000    5.2870    2.2690 ha        1 S52      0.133000
     43 H32         0.6450    3.6740    3.3680 ha        1 S52      0.137000
     44 H33        -0.2980    1.7490    2.0660 ha        1 S52      0.163000
     45 H42        -5.3250   -0.5940    0.7060 h1        1 S52      0.062200
     46 H42A       -4.5120    0.9330    1.2900 h1        1 S52      0.062200
     47 H43        -6.2300    1.2620   -0.5760 h1        1 S52      0.062200
     48 H43A       -4.5790    1.9510   -0.9210 h1        1 S52      0.062200
     49 HN44       -5.7990   -0.4440   -2.0670 hn        1 S52      0.348800
     50 H45        -3.8500   -0.9890   -3.1730 h1        1 S52      0.062200
     51 H45A       -3.0910    0.5430   -2.5420 h1        1 S52      0.062200
     52 H46        -2.1370   -1.3410   -1.3220 h1        1 S52      0.062200
     53 H46A       -3.7760   -2.0700   -0.9990 h1        1 S52      0.062200
@<TRIPOS>BOND
     1    1    3 ar  
     2    1    7 ar  
     3    1   31 1   
     4    2   12 1   
     5    2   17 1   
     6    3    4 ar  
     7    3   32 1   
     8    4    5 ar  
     9    4   33 1   
    10    5    6 ar  
    11    5    8 1   
    12    6    7 ar  
    13    6   34 1   
    14    7   35 1   
    15    8    9 1   
    16    8   12 1   
    17    9   10 ar  
    18    9   13 ar  
    19   10   11 1   
    20   10   16 ar  
    21   11   12 2   
    22   11   23 1   
    23   13   14 ar  
    24   13   36 1   
    25   14   15 ar  
    26   14   37 1   
    27   15   16 ar  
    28   15   38 1   
    29   16   39 1   
    30   17   18 ar  
    31   17   22 ar  
    32   18   19 ar  
    33   18   40 1   
    34   19   20 ar  
    35   19   41 1   
    36   20   21 ar  
    37   20   42 1   
    38   21   22 ar  
    39   21   43 1   
    40   22   44 1   
    41   23   24 1   
    42   23   25 2   
    43   24   26 1   
    44   24   30 1   
    45   26   27 1   
    46   26   45 1   
    47   26   46 1   
    48   27   28 1   
    49   27   47 1   
    50   27   48 1   
    51   28   29 1   
    52   28   49 1   
    53   29   30 1   
    54   29   50 1   
    55   29   51 1   
    56   30   52 1   
    57   30   53 1   
@<TRIPOS>SUBSTRUCTURE
     1 S52         1 TEMP              0 ****  ****    0 ROOT
