@<TRIPOS>MOLECULE
S52
   53    46     1     0     0
SMALL
bcc


@<TRIPOS>ATOM
      1 C1         -3.4580    0.7920   -4.6510 c1        1 S52     -0.124100
      2 O1         -2.0960   -0.5090    0.0230 os        1 S52     -0.149000
      3 C2         -3.8650    1.5660   -3.5570 c1        1 S52     -0.124100
      4 C3         -3.1130    1.5620   -2.3830 c1        1 S52     -0.124100
      5 C4         -1.9530    0.7850   -2.2990 c1        1 S52      0.054000
      6 C5         -1.5490    0.0110   -3.3960 c1        1 S52     -0.132000
      7 C6         -2.2980    0.0160   -4.5650 c1        1 S52     -0.124100
      8 N12        -1.1580    0.8970   -1.2430 n2        1 S52     -0.133000
      9 C13        -0.0740    1.7180   -1.4850 c1        1 S52      0.014000
     10 C14         0.9720    1.2910   -0.6860 c1        1 S52     -0.056000
     11 C15         0.5340    0.2130    0.0440 c1        1 S52     -0.184000
     12 C16        -0.7870   -0.0310   -0.3020 c2        1 S52      0.143000
     13 C17         0.0770    2.8650   -2.2900 c1        1 S52     -0.124100
     14 C18         1.2820    3.5690   -2.2810 c1        1 S52     -0.124100
     15 C19         2.3450    3.1350   -1.4700 c1        1 S52     -0.124100
     16 C20         2.1970    2.0080   -0.6780 c1        1 S52     -0.124100
     17 C26        -2.3150   -0.3740    1.4330 c2        1 S52      0.035000
     18 C29        -2.6120    0.8800    1.9710 c2        1 S52     -0.140000
     19 C30        -2.9880    0.9960    3.3190 c1        1 S52     -0.113000
     20 C31        -3.0650   -0.1450    4.1250 c1        1 S52     -0.124100
     21 C32        -2.7680   -1.4020    3.5890 c1        1 S52     -0.124100
     22 C33        -2.3930   -1.5200    2.2430 c1        1 S52     -0.131000
     23 C39         1.3400   -0.0780    1.3260 c1        1 S52      0.379000
     24 N40         2.4820   -0.9430    1.2740 n3        1 S52     -0.306000
     25 O41         1.0640    0.5200    2.3830 o         1 S52     -0.366000
     26 C42         3.3450   -1.1660    2.4000 c3        1 S52     -0.035500
     27 C43         3.5400   -2.6440    2.6900 c3        1 S52     -0.101000
     28 N44         3.9370   -3.3840    1.5150 n3        1 S52     -0.299000
     29 C45         3.0560   -3.1490    0.3890 c3        1 S52     -0.101000
     30 C46         2.8590   -1.6550    0.1120 c3        1 S52     -0.035500
     31 H1         -3.9910    0.7940   -5.4860 ha        1 S52      0.138300
     32 H2         -4.6820    2.1120   -3.6160 ha        1 S52      0.138300
     33 H3         -3.4080    2.1240   -1.5860 ha        1 S52      0.138300
     34 H5         -0.7320   -0.5370   -3.3370 ha        1 S52      0.153000
     35 H6         -2.0130   -0.5270   -5.3330 ha        1 S52      0.138300
     36 H17        -0.6900    3.1800   -2.8760 ha        1 S52      0.138300
     37 H18         1.3860    4.3500   -2.8310 ha        1 S52      0.138300
     38 H19         3.2050    3.6410   -1.4630 ha        1 S52      0.138300
     39 H20         2.9530    1.6990   -0.1010 ha        1 S52      0.138300
     40 H29        -2.5620    1.6840    1.4030 ha        1 S52      0.182000
     41 H30        -3.1900    1.8560    3.6860 ha        1 S52      0.140000
     42 H31        -3.3300   -0.0630    5.0730 ha        1 S52      0.138300
     43 H32        -2.8230   -2.2050    4.1560 ha        1 S52      0.138300
     44 H33        -2.1780   -2.4360    1.8530 ha        1 S52      0.144000
     45 H42         4.2390   -0.7550    2.2100 h1        1 S52      0.107250
     46 H42A        2.9450   -0.7200    3.2140 h1        1 S52      0.107250
     47 H43         2.7020   -3.0120    3.0260 h1        1 S52      0.077250
     48 H43A        4.2280   -2.7450    3.3780 h1        1 S52      0.077250
     49 HN44        3.9490   -4.2930    1.7120 hn        1 S52      0.160000
     50 H45         3.4420   -3.5790   -0.4150 h1        1 S52      0.077250
     51 H45A        2.1520   -3.5690    0.5860 h1        1 S52      0.077250
     52 H46         3.7000   -1.2810   -0.2310 h1        1 S52      0.107250
     53 H46A        2.1590   -1.5440   -0.5720 h1        1 S52      0.107250
@<TRIPOS>BOND
     1    1    7 1   
     2    1   31 1   
     3    2   12 1   
     4    2   17 1   
     5    3    4 1   
     6    3   32 1   
     7    4   33 1   
     8    5    6 1   
     9    6   34 1   
    10    7   35 1   
    11    8    9 1   
    12    8   12 1   
    13    9   10 1   
    14   11   12 1   
    15   13   14 1   
    16   13   36 1   
    17   14   37 1   
    18   15   16 1   
    19   15   38 1   
    20   16   39 1   
    21   17   18 1   
    22   17   22 1   
    23   18   19 1   
    24   18   40 1   
    25   19   41 1   
    26   20   21 1   
    27   20   42 1   
    28   21   43 1   
    29   22   44 1   
    30   23   24 1   
    31   23   25 1   
    32   24   26 1   
    33   24   30 1   
    34   26   27 1   
    35   26   45 1   
    36   26   46 1   
    37   27   28 1   
    38   27   47 1   
    39   27   48 1   
    40   28   29 1   
    41   28   49 1   
    42   29   30 1   
    43   29   50 1   
    44   29   51 1   
    45   30   52 1   
    46   30   53 1   
@<TRIPOS>SUBSTRUCTURE
     1 S52         1 TEMP              0 ****  ****    0 ROOT
