@<TRIPOS>MOLECULE
S53
   68    73     1     0     0
SMALL
bcc


@<TRIPOS>ATOM
      1 N1         -3.1100    1.3970    2.4470 nb        1 S53     -0.661000
      2 C2         -2.6820    0.4790    1.5600 ca        1 S53      0.431600
      3 C3         -1.3350    0.5050    1.0970 ca        1 S53     -0.142500
      4 C4         -0.4570    1.5600    1.5710 ca        1 S53     -0.036800
      5 C5         -0.9380    2.4950    2.4860 ca        1 S53     -0.193300
      6 C6         -2.2680    2.3580    2.8900 ca        1 S53      0.376200
      7 N9         -0.5970   -0.3100    0.2190 na        1 S53     -0.011500
      8 C10         0.7000    0.2380    0.1240 cc        1 S53      0.143000
      9 C11         0.8240    1.3710    0.9330 cd        1 S53     -0.183400
     10 C12        -1.0320   -1.4610   -0.4830 ca        1 S53     -0.015200
     11 C13        -1.0750   -2.7150    0.1620 ca        1 S53     -0.113000
     12 C14        -1.4840   -3.8440   -0.5440 ca        1 S53     -0.128500
     13 C15        -1.8500   -3.7460   -1.8860 ca        1 S53     -0.113000
     14 C16        -1.8090   -2.5100   -2.5280 ca        1 S53     -0.128500
     15 C17        -1.4040   -1.3680   -1.8400 ca        1 S53     -0.113000
     16 C23        -3.6780   -0.5490    1.0930 c3        1 S53     -0.088400
     17 C24        -4.7280    0.0500    0.2190 ca        1 S53     -0.077300
     18 C27        -4.6720   -0.1120   -1.1690 ca        1 S53     -0.118000
     19 C28        -5.6680    0.4270   -1.9820 ca        1 S53     -0.134000
     20 C29        -6.7290    1.1320   -1.4140 ca        1 S53     -0.129000
     21 C30        -6.7900    1.2970   -0.0300 ca        1 S53     -0.134000
     22 C31        -5.7960    0.7580    0.7850 ca        1 S53     -0.118000
     23 O37         1.6370   -0.2390   -0.7680 os        1 S53     -0.224200
     24 C38         2.3820   -1.3480   -0.3460 ca        1 S53      0.122100
     25 C39         2.4650   -1.7380    0.9900 ca        1 S53     -0.207000
     26 C40         3.2760   -2.8410    1.3150 ca        1 S53      0.149900
     27 C41         3.9880   -3.5230    0.3110 ca        1 S53     -0.181000
     28 C42         3.8880   -3.0990   -1.0100 ca        1 S53     -0.087000
     29 C43         3.0880   -2.0120   -1.3700 ca        1 S53     -0.095300
     30 C47         2.9940   -1.5540   -2.7730 c3        1 S53     -0.046800
     31 F51         3.3680   -3.2460    2.6030 f         1 S53     -0.133900
     32 C52         2.0290    2.1820    1.1850 c         1 S53      0.707300
     33 N53         2.5280    2.9900    0.1740 n         1 S53     -0.461800
     34 O54         2.5660    2.1840    2.3120 o         1 S53     -0.598100
     35 C55         3.7880    3.6810    0.3560 c3        1 S53      0.054000
     36 C56         4.8210    3.3600   -0.7490 c3        1 S53      0.130300
     37 N57         4.3100    3.4260   -2.1040 n3        1 S53     -0.796200
     38 C58         3.0610    2.7060   -2.2490 c3        1 S53      0.130300
     39 C59         1.9980    3.0140   -1.1680 c3        1 S53      0.054000
     40 H5         -0.2910    3.2920    2.8760 ha        1 S53      0.160000
     41 H6         -2.7120    3.0590    3.6190 h4        1 S53      0.025100
     42 H13        -0.7860   -2.8080    1.2210 ha        1 S53      0.151000
     43 H14        -1.5140   -4.8190   -0.0340 ha        1 S53      0.142000
     44 H15        -2.1710   -4.6430   -2.4360 ha        1 S53      0.141000
     45 H16        -2.0980   -2.4290   -3.5870 ha        1 S53      0.142000
     46 H17        -1.3720   -0.3980   -2.3620 ha        1 S53      0.151000
     47 H23        -3.1500   -1.3740    0.5460 hc        1 S53      0.066700
     48 H23A       -4.1710   -1.0160    1.9920 hc        1 S53      0.066700
     49 H27        -3.8350   -0.6670   -1.6230 ha        1 S53      0.138000
     50 H28        -5.6170    0.2950   -3.0720 ha        1 S53      0.129000
     51 H29        -7.5150    1.5570   -2.0550 ha        1 S53      0.129000
     52 H30        -7.6240    1.8540    0.4210 ha        1 S53      0.129000
     53 H31        -5.8410    0.8950    1.8770 ha        1 S53      0.138000
     54 H39         1.9240   -1.1960    1.7800 ha        1 S53      0.174000
     55 H41         4.6190   -4.3810    0.5810 ha        1 S53      0.152000
     56 H42         4.4510   -3.6330   -1.7920 ha        1 S53      0.143000
     57 H47         3.4980   -0.5590   -2.8830 hc        1 S53      0.050367
     58 H47A        3.4780   -2.2800   -3.4700 hc        1 S53      0.050367
     59 H47B        1.9220   -1.4290   -3.0680 hc        1 S53      0.050367
     60 H55         3.5770    4.7890    0.3550 h1        1 S53      0.060700
     61 H55A        4.2310    3.4080    1.3550 h1        1 S53      0.060700
     62 H56         5.6760    4.0820   -0.6450 h1        1 S53      0.061200
     63 H56A        5.2190    2.3200   -0.5870 h1        1 S53      0.061200
     64 HN57        4.1810    4.3860   -2.3710 hn        1 S53      0.349800
     65 H58         2.6150    2.9440   -3.2530 h1        1 S53      0.061200
     66 H58A        3.2960    1.6040   -2.2200 h1        1 S53      0.061200
     67 H59         1.1620    2.2700   -1.2770 h1        1 S53      0.060700
     68 H59A        1.5750    4.0450   -1.3520 h1        1 S53      0.060700
@<TRIPOS>BOND
     1    1    2 ar  
     2    1    6 ar  
     3    2    3 ar  
     4    2   16 1   
     5    3    4 ar  
     6    3    7 1   
     7    4    5 ar  
     8    4    9 1   
     9    5    6 ar  
    10    5   40 1   
    11    6   41 1   
    12    7    8 1   
    13    7   10 1   
    14    8    9 2   
    15    8   23 1   
    16    9   32 1   
    17   10   11 ar  
    18   10   15 ar  
    19   11   12 ar  
    20   11   42 1   
    21   12   13 ar  
    22   12   43 1   
    23   13   14 ar  
    24   13   44 1   
    25   14   15 ar  
    26   14   45 1   
    27   15   46 1   
    28   16   17 1   
    29   16   47 1   
    30   16   48 1   
    31   17   18 ar  
    32   17   22 ar  
    33   18   19 ar  
    34   18   49 1   
    35   19   20 ar  
    36   19   50 1   
    37   20   21 ar  
    38   20   51 1   
    39   21   22 ar  
    40   21   52 1   
    41   22   53 1   
    42   23   24 1   
    43   24   25 ar  
    44   24   29 ar  
    45   25   26 ar  
    46   25   54 1   
    47   26   27 ar  
    48   26   31 1   
    49   27   28 ar  
    50   27   55 1   
    51   28   29 ar  
    52   28   56 1   
    53   29   30 1   
    54   30   57 1   
    55   30   58 1   
    56   30   59 1   
    57   32   33 1   
    58   32   34 2   
    59   33   35 1   
    60   33   39 1   
    61   35   36 1   
    62   35   60 1   
    63   35   61 1   
    64   36   37 1   
    65   36   62 1   
    66   36   63 1   
    67   37   38 1   
    68   37   64 1   
    69   38   39 1   
    70   38   65 1   
    71   38   66 1   
    72   39   67 1   
    73   39   68 1   
@<TRIPOS>SUBSTRUCTURE
     1 S53         1 TEMP              0 ****  ****    0 ROOT
