@<TRIPOS>MOLECULE
S53
   68    59     1     0     0
SMALL
bcc


@<TRIPOS>ATOM
      1 N1         -2.7610   -0.2600   -2.1000 n1        1 S53     -0.122000
      2 C2         -1.3930   -0.2520   -2.0990 c1        1 S53      0.007000
      3 C3         -0.6860   -0.2340   -0.8710 c1        1 S53     -0.047000
      4 C4         -1.3720   -0.2240    0.3120 c1        1 S53     -0.028000
      5 C5         -2.7610   -0.2320    0.3070 c1        1 S53     -0.139000
      6 C6         -3.4550   -0.2500   -0.9050 c1        1 S53     -0.089000
      7 N9          0.6710   -0.2930   -0.5810 n1        1 S53     -0.128000
      8 C10         0.8130   -0.3190    0.7720 c1        1 S53      0.150000
      9 C11        -0.4520   -0.2760    1.3370 c1        1 S53     -0.192000
     10 C12         1.6900   -0.2690   -1.6080 c1        1 S53      0.031000
     11 C13         2.4080    0.8890   -1.8400 c2        1 S53     -0.116000
     12 C14         3.4030    0.9110   -2.8140 c1        1 S53     -0.129000
     13 C15         3.6770   -0.2360   -3.5560 c1        1 S53     -0.124750
     14 C16         2.9560   -1.4030   -3.3250 c1        1 S53     -0.124750
     15 C17         1.9630   -1.4230   -2.3530 c1        1 S53     -0.115000
     16 C23        -1.2480   -0.4680   -3.6180 c3        1 S53     -0.077000
     17 C24        -2.6230   -0.2220   -4.3090 c2        1 S53     -0.059000
     18 C27        -2.7420    0.7520   -5.3170 c2        1 S53     -0.123000
     19 C28        -3.9770    0.9460   -5.9640 c1        1 S53     -0.133000
     20 C29        -5.0800    0.1710   -5.6050 c1        1 S53     -0.124750
     21 C30        -4.9570   -0.7980   -4.6000 c1        1 S53     -0.124750
     22 C31        -3.7210   -0.9900   -3.9540 c1        1 S53     -0.102000
     23 O37         2.0360   -0.0330    1.4470 o         1 S53     -0.137000
     24 C38         2.7170   -1.2200    1.6960 c2        1 S53      0.063000
     25 C39         2.0260   -2.4190    1.7030 c2        1 S53     -0.182000
     26 C40         2.6630   -3.5840    2.0930 c1        1 S53      0.106000
     27 C41         3.9950   -3.5500    2.4770 c2        1 S53     -0.173000
     28 C42         4.6920   -2.3390    2.4700 c1        1 S53     -0.098000
     29 C43         4.0590   -1.1840    2.0830 c1        1 S53     -0.082000
     30 C47         4.8400    0.1470    2.0370 c3        1 S53     -0.173000
     31 F51         1.9600   -4.7650    2.1510 f         1 S53     -0.099000
     32 C52        -0.6440   -0.2400    2.8710 c1        1 S53      0.377000
     33 N53        -1.2630    0.9490    3.5130 n3        1 S53     -0.305000
     34 O54        -0.3060   -1.1940    3.5520 o         1 S53     -0.361000
     35 C55        -1.4900    1.0450    4.9020 c3        1 S53     -0.036500
     36 C56        -0.9150    2.3530    5.4990 c3        1 S53     -0.101000
     37 N57        -1.3460    3.5190    4.7710 n3        1 S53     -0.299000
     38 C58        -1.1090    3.4020    3.3660 c3        1 S53     -0.101000
     39 C59        -1.6830    2.0900    2.7820 c3        1 S53     -0.036500
     40 H5         -3.2640   -0.2240    1.1690 ha        1 S53      0.157000
     41 H6         -4.4680   -0.2560   -0.9080 ha        1 S53      0.162000
     42 H13         2.2190    1.6890   -1.3220 ha        1 S53      0.150000
     43 H14         3.9160    1.7420   -2.9790 ha        1 S53      0.141000
     44 H15         4.3490   -0.2210   -4.2140 ha        1 S53      0.135500
     45 H16         3.1520   -2.2250   -3.8570 ha        1 S53      0.135500
     46 H17         1.4320   -2.2780   -2.1840 ha        1 S53      0.152000
     47 H23        -0.5810    0.1590   -3.9780 hc        1 S53      0.102000
     48 H23A       -0.9570   -1.3880   -3.7910 hc        1 S53      0.102000
     49 H27        -1.9050    1.3380   -5.5910 ha        1 S53      0.127000
     50 H28        -4.0620    1.6220   -6.6650 ha        1 S53      0.128000
     51 H29        -5.9840    0.3110   -6.0770 ha        1 S53      0.135500
     52 H30        -5.7320   -1.3430   -4.3470 ha        1 S53      0.135500
     53 H31        -3.6400   -1.6410   -3.2790 ha        1 S53      0.135000
     54 H39         1.1490   -2.4410    1.4510 ha        1 S53      0.193000
     55 H41         4.4430   -4.3690    2.7510 ha        1 S53      0.150000
     56 H42         5.6680   -2.3130    2.7510 ha        1 S53      0.141000
     57 H47         5.8250   -0.0340    2.1600 hc        1 S53      0.088333
     58 H47A        4.6950    0.5740    1.1820 hc        1 S53      0.088333
     59 H47B        4.5080    0.7630    2.7870 hc        1 S53      0.088333
     60 H55        -1.0410    0.2390    5.3700 h1        1 S53      0.107750
     61 H55A       -2.4380    1.0150    5.0690 h1        1 S53      0.107750
     62 H56        -1.2140    2.4350    6.4410 h1        1 S53      0.077250
     63 H56A        0.0340    2.3090    5.4800 h1        1 S53      0.077250
     64 HN57       -0.9030    4.2710    5.0990 hn        1 S53      0.160000
     65 H58        -0.1610    3.4230    3.2080 h1        1 S53      0.077250
     66 H58A       -1.5480    4.2090    2.8800 h1        1 S53      0.077250
     67 H59        -1.3900    2.0010    1.8710 h1        1 S53      0.107750
     68 H59A       -2.6880    2.1370    2.7980 h1        1 S53      0.107750
@<TRIPOS>BOND
     1    1    6 1   
     2    2    3 1   
     3    2   16 1   
     4    4    5 1   
     5    5   40 1   
     6    6   41 1   
     7    7    8 1   
     8    8    9 1   
     9   10   11 1   
    10   10   15 1   
    11   11   12 1   
    12   11   42 1   
    13   12   43 1   
    14   13   14 1   
    15   13   44 1   
    16   14   45 1   
    17   15   46 1   
    18   16   17 1   
    19   16   47 1   
    20   16   48 1   
    21   17   18 1   
    22   17   22 1   
    23   18   19 1   
    24   18   49 1   
    25   19   50 1   
    26   20   21 1   
    27   20   51 1   
    28   21   52 1   
    29   22   53 1   
    30   23   24 1   
    31   24   25 1   
    32   24   29 1   
    33   25   26 1   
    34   25   54 1   
    35   26   27 1   
    36   27   28 1   
    37   27   55 1   
    38   28   56 1   
    39   29   30 1   
    40   30   57 1   
    41   30   58 1   
    42   30   59 1   
    43   32   33 1   
    44   32   34 1   
    45   33   35 1   
    46   33   39 1   
    47   35   36 1   
    48   35   60 1   
    49   35   61 1   
    50   36   37 1   
    51   36   62 1   
    52   36   63 1   
    53   37   38 1   
    54   37   64 1   
    55   38   39 1   
    56   38   65 1   
    57   38   66 1   
    58   39   67 1   
    59   39   68 1   
@<TRIPOS>SUBSTRUCTURE
     1 S53         1 TEMP              0 ****  ****    0 ROOT
