@<TRIPOS>MOLECULE
S53
   68    73     1     0     0
SMALL
bcc


@<TRIPOS>ATOM
      1 N1          0.0620    0.3030    0.0680 nb        1 S53     -0.663000
      2 C2          1.4050    0.2030    0.0650 ca        1 S53      0.432600
      3 C3          2.1170    0.0940    1.2940 ca        1 S53     -0.142500
      4 C4          1.3710    0.1430    2.5380 ca        1 S53     -0.040800
      5 C5         -0.0190    0.2570    2.5010 ca        1 S53     -0.203300
      6 C6         -0.6140    0.3240    1.2390 ca        1 S53      0.378200
      7 N9          3.4810   -0.0420    1.6140 na        1 S53     -0.012500
      8 C10         3.5870   -0.0690    3.0220 cc        1 S53      0.168000
      9 C11         2.3250    0.0410    3.6150 cd        1 S53     -0.200400
     10 C12         4.5720   -0.2090    0.7270 ca        1 S53     -0.013200
     11 C13         4.8050   -1.4550    0.1060 ca        1 S53     -0.114000
     12 C14         5.8880   -1.6100   -0.7540 ca        1 S53     -0.128500
     13 C15         6.7510   -0.5430   -1.0050 ca        1 S53     -0.114000
     14 C16         6.5300    0.6880   -0.3910 ca        1 S53     -0.128500
     15 C17         5.4500    0.8650    0.4720 ca        1 S53     -0.114000
     16 C23         2.0960    0.2270   -1.2720 c3        1 S53     -0.088400
     17 C24         2.0670    1.5870   -1.8850 ca        1 S53     -0.078300
     18 C27         3.2010    2.4060   -1.8460 ca        1 S53     -0.118500
     19 C28         3.1790    3.6660   -2.4420 ca        1 S53     -0.134000
     20 C29         2.0250    4.1180   -3.0810 ca        1 S53     -0.129000
     21 C30         0.8920    3.3060   -3.1210 ca        1 S53     -0.134000
     22 C31         0.9110    2.0450   -2.5280 ca        1 S53     -0.118500
     23 O37         4.8070   -0.0280    3.6620 os        1 S53     -0.226200
     24 C38         5.4490   -1.2660    3.8240 ca        1 S53      0.108100
     25 C39         4.7430   -2.4090    4.1990 ca        1 S53     -0.183000
     26 C40         5.4650   -3.5940    4.4250 ca        1 S53      0.140900
     27 C41         6.8650   -3.6120    4.2870 ca        1 S53     -0.173000
     28 C42         7.5370   -2.4480    3.9290 ca        1 S53     -0.099000
     29 C43         6.8500   -1.2540    3.6870 ca        1 S53     -0.088300
     30 C47         7.5670   -0.0150    3.3200 c3        1 S53     -0.047800
     31 F51         4.8090   -4.7230    4.7810 f         1 S53     -0.133900
     32 C52         2.0230   -0.0430    5.0550 c         1 S53      0.702300
     33 N53         1.3940    1.0380    5.6700 n         1 S53     -0.446800
     34 O54         2.2460   -1.0950    5.6900 o         1 S53     -0.601100
     35 C55         1.1860    1.0200    7.1040 c3        1 S53      0.079000
     36 C56         2.1030    1.9960    7.8750 c3        1 S53      0.136300
     37 N57         2.1200    3.3270    7.3010 n7        1 S53     -0.820200
     38 C58         2.3550    3.3410    5.8710 c3        1 S53      0.136300
     39 C59         1.4310    2.3680    5.1040 c3        1 S53      0.079000
     40 H5         -0.6120    0.2910    3.4230 ha        1 S53      0.157000
     41 H6         -1.7120    0.4040    1.1360 h4        1 S53      0.024100
     42 H13         4.1330   -2.3070    0.2980 ha        1 S53      0.152000
     43 H14         6.0630   -2.5840   -1.2340 ha        1 S53      0.142000
     44 H15         7.6050   -0.6740   -1.6870 ha        1 S53      0.141000
     45 H16         7.2100    1.5310   -0.5860 ha        1 S53      0.142000
     46 H17         5.2910    1.8420    0.9560 ha        1 S53      0.152000
     47 H23         1.5830   -0.4980   -1.9640 hc        1 S53      0.066700
     48 H23A        3.1560   -0.1210   -1.1630 hc        1 S53      0.066700
     49 H27         4.1150    2.0530   -1.3410 ha        1 S53      0.138000
     50 H28         4.0750    4.3030   -2.4080 ha        1 S53      0.129000
     51 H29         2.0090    5.1120   -3.5500 ha        1 S53      0.129000
     52 H30        -0.0210    3.6610   -3.6220 ha        1 S53      0.129000
     53 H31         0.0130    1.4080   -2.5540 ha        1 S53      0.138000
     54 H39         3.6490   -2.3750    4.3470 ha        1 S53      0.193000
     55 H41         7.4170   -4.5460    4.4690 ha        1 S53      0.150000
     56 H42         8.6340   -2.4660    3.8310 ha        1 S53      0.141000
     57 H47         8.6340   -0.2250    3.0620 hc        1 S53      0.049367
     58 H47A        7.0700    0.4730    2.4420 hc        1 S53      0.049367
     59 H47B        7.5410    0.7080    4.1750 hc        1 S53      0.049367
     60 H55         0.1110    1.3050    7.2880 h1        1 S53      0.068450
     61 H55A        1.3580   -0.0180    7.5040 h1        1 S53      0.068450
     62 H56         3.1360    1.5420    7.9330 h1        1 S53      0.037950
     63 H56A        1.7070    2.0850    8.9250 h1        1 S53      0.037950
     64 HN57        2.8050    3.8930    7.7670 hn        1 S53      0.364800
     65 H58         2.1390    4.3830    5.5020 h1        1 S53      0.037950
     66 H58A        3.4260    3.0970    5.6090 h1        1 S53      0.037950
     67 H59         1.7680    2.3340    4.0320 h1        1 S53      0.068450
     68 H59A        0.3770    2.7720    5.1310 h1        1 S53      0.068450
@<TRIPOS>BOND
     1    1    2 ar  
     2    1    6 ar  
     3    2    3 ar  
     4    2   16 1   
     5    3    4 ar  
     6    3    7 1   
     7    4    5 ar  
     8    4    9 1   
     9    5    6 ar  
    10    5   40 1   
    11    6   41 1   
    12    7    8 1   
    13    7   10 1   
    14    8    9 2   
    15    8   23 1   
    16    9   32 1   
    17   10   11 ar  
    18   10   15 ar  
    19   11   12 ar  
    20   11   42 1   
    21   12   13 ar  
    22   12   43 1   
    23   13   14 ar  
    24   13   44 1   
    25   14   15 ar  
    26   14   45 1   
    27   15   46 1   
    28   16   17 1   
    29   16   47 1   
    30   16   48 1   
    31   17   18 ar  
    32   17   22 ar  
    33   18   19 ar  
    34   18   49 1   
    35   19   20 ar  
    36   19   50 1   
    37   20   21 ar  
    38   20   51 1   
    39   21   22 ar  
    40   21   52 1   
    41   22   53 1   
    42   23   24 1   
    43   24   25 ar  
    44   24   29 ar  
    45   25   26 ar  
    46   25   54 1   
    47   26   27 ar  
    48   26   31 1   
    49   27   28 ar  
    50   27   55 1   
    51   28   29 ar  
    52   28   56 1   
    53   29   30 1   
    54   30   57 1   
    55   30   58 1   
    56   30   59 1   
    57   32   33 1   
    58   32   34 2   
    59   33   35 1   
    60   33   39 1   
    61   35   36 1   
    62   35   60 1   
    63   35   61 1   
    64   36   37 1   
    65   36   62 1   
    66   36   63 1   
    67   37   38 1   
    68   37   64 1   
    69   38   39 1   
    70   38   65 1   
    71   38   66 1   
    72   39   67 1   
    73   39   68 1   
@<TRIPOS>SUBSTRUCTURE
     1 S53         1 TEMP              0 ****  ****    0 ROOT
