@<TRIPOS>MOLECULE
S53
   68    73     1     0     0
SMALL
bcc


@<TRIPOS>ATOM
      1 N1          0.0540    0.3060    0.0780 nb        1 S53     -0.663000
      2 C2          1.3970    0.2020    0.0720 ca        1 S53      0.432600
      3 C3          2.1120    0.0940    1.2990 ca        1 S53     -0.142500
      4 C4          1.3690    0.1500    2.5450 ca        1 S53     -0.040800
      5 C5         -0.0200    0.2680    2.5110 ca        1 S53     -0.203300
      6 C6         -0.6190    0.3320    1.2500 ca        1 S53      0.378200
      7 N9          3.4760   -0.0440    1.6150 na        1 S53     -0.012500
      8 C10         3.5860   -0.0660    3.0230 cc        1 S53      0.168000
      9 C11         2.3260    0.0500    3.6190 cd        1 S53     -0.200400
     10 C12         4.5640   -0.2190    0.7260 ca        1 S53     -0.013200
     11 C13         4.7900   -1.4690    0.1090 ca        1 S53     -0.114500
     12 C14         5.8710   -1.6300   -0.7540 ca        1 S53     -0.128500
     13 C15         6.7370   -0.5690   -1.0110 ca        1 S53     -0.114000
     14 C16         6.5230    0.6650   -0.4000 ca        1 S53     -0.128500
     15 C17         5.4460    0.8500    0.4650 ca        1 S53     -0.114500
     16 C23         2.0840    0.2190   -1.2680 c3        1 S53     -0.088400
     17 C24         2.0590    1.5770   -1.8850 ca        1 S53     -0.078300
     18 C27         3.1960    2.3920   -1.8510 ca        1 S53     -0.118500
     19 C28         3.1770    3.6510   -2.4500 ca        1 S53     -0.134000
     20 C29         2.0220    4.1050   -3.0870 ca        1 S53     -0.129000
     21 C30         0.8860    3.2970   -3.1220 ca        1 S53     -0.134000
     22 C31         0.9020    2.0380   -2.5250 ca        1 S53     -0.118500
     23 O37         4.8080   -0.0270    3.6590 os        1 S53     -0.226200
     24 C38         5.4470   -1.2660    3.8250 ca        1 S53      0.108100
     25 C39         4.7380   -2.4050    4.2070 ca        1 S53     -0.183000
     26 C40         5.4570   -3.5920    4.4350 ca        1 S53      0.140900
     27 C41         6.8570   -3.6150    4.2930 ca        1 S53     -0.173000
     28 C42         7.5320   -2.4550    3.9290 ca        1 S53     -0.099000
     29 C43         6.8470   -1.2600    3.6840 ca        1 S53     -0.088300
     30 C47         7.5680   -0.0240    3.3110 c3        1 S53     -0.047800
     31 F51         4.7980   -4.7180    4.7970 f         1 S53     -0.133900
     32 C52         2.0280   -0.0280    5.0600 c         1 S53      0.702300
     33 N53         1.4060    1.0580    5.6730 n         1 S53     -0.446800
     34 O54         2.2480   -1.0790    5.6980 o         1 S53     -0.601100
     35 C55         1.2030    1.0460    7.1090 c3        1 S53      0.079000
     36 C56         2.1270    2.0200    7.8720 c3        1 S53      0.136300
     37 N57         2.1490    3.3490    7.2940 n3        1 S53     -0.820200
     38 C58         2.3780    3.3570    5.8630 c3        1 S53      0.136300
     39 C59         1.4470    2.3860    5.1020 c3        1 S53      0.079000
     40 H5         -0.6110    0.3070    3.4350 ha        1 S53      0.157000
     41 H6         -1.7160    0.4150    1.1500 h4        1 S53      0.024100
     42 H13         4.1150   -2.3170    0.3050 ha        1 S53      0.152000
     43 H14         6.0400   -2.6080   -1.2310 ha        1 S53      0.142000
     44 H15         7.5890   -0.7060   -1.6950 ha        1 S53      0.141000
     45 H16         7.2060    1.5050   -0.6000 ha        1 S53      0.142000
     46 H17         5.2920    1.8290    0.9460 ha        1 S53      0.152000
     47 H23         3.1430   -0.1330   -1.1600 hc        1 S53      0.066700
     48 H23A        1.5670   -0.5060   -1.9560 hc        1 S53      0.066700
     49 H27         4.1090    2.0370   -1.3470 ha        1 S53      0.138000
     50 H28         4.0740    4.2850   -2.4210 ha        1 S53      0.129000
     51 H29         2.0080    5.0980   -3.5590 ha        1 S53      0.129000
     52 H30        -0.0270    3.6540   -3.6220 ha        1 S53      0.129000
     53 H31         0.0020    1.4040   -2.5470 ha        1 S53      0.138000
     54 H39         3.6440   -2.3680    4.3570 ha        1 S53      0.193000
     55 H41         7.4050   -4.5500    4.4780 ha        1 S53      0.150000
     56 H42         8.6280   -2.4760    3.8290 ha        1 S53      0.141000
     57 H47         7.0700    0.4620    2.4310 hc        1 S53      0.049367
     58 H47A        7.5460    0.7020    4.1630 hc        1 S53      0.049367
     59 H47B        8.6330   -0.2380    3.0510 hc        1 S53      0.049367
     60 H55         1.3710    0.0080    7.5120 h1        1 S53      0.068450
     61 H55A        0.1300    1.3370    7.2950 h1        1 S53      0.068450
     62 H56         3.1580    1.5620    7.9290 h1        1 S53      0.037950
     63 H56A        1.7350    2.1150    8.9230 h1        1 S53      0.037950
     64 HN57        2.8370    3.9140    7.7550 hn        1 S53      0.364800
     65 H58         3.4470    3.1070    5.5980 h1        1 S53      0.037950
     66 H58A        2.1670    4.3990    5.4910 h1        1 S53      0.037950
     67 H59         0.3960    2.7940    5.1310 h1        1 S53      0.068450
     68 H59A        1.7810    2.3460    4.0290 h1        1 S53      0.068450
@<TRIPOS>BOND
     1    1    2 ar  
     2    1    6 ar  
     3    2    3 ar  
     4    2   16 1   
     5    3    4 ar  
     6    3    7 1   
     7    4    5 ar  
     8    4    9 1   
     9    5    6 ar  
    10    5   40 1   
    11    6   41 1   
    12    7    8 1   
    13    7   10 1   
    14    8    9 2   
    15    8   23 1   
    16    9   32 1   
    17   10   11 ar  
    18   10   15 ar  
    19   11   12 ar  
    20   11   42 1   
    21   12   13 ar  
    22   12   43 1   
    23   13   14 ar  
    24   13   44 1   
    25   14   15 ar  
    26   14   45 1   
    27   15   46 1   
    28   16   17 1   
    29   16   47 1   
    30   16   48 1   
    31   17   18 ar  
    32   17   22 ar  
    33   18   19 ar  
    34   18   49 1   
    35   19   20 ar  
    36   19   50 1   
    37   20   21 ar  
    38   20   51 1   
    39   21   22 ar  
    40   21   52 1   
    41   22   53 1   
    42   23   24 1   
    43   24   25 ar  
    44   24   29 ar  
    45   25   26 ar  
    46   25   54 1   
    47   26   27 ar  
    48   26   31 1   
    49   27   28 ar  
    50   27   55 1   
    51   28   29 ar  
    52   28   56 1   
    53   29   30 1   
    54   30   57 1   
    55   30   58 1   
    56   30   59 1   
    57   32   33 1   
    58   32   34 2   
    59   33   35 1   
    60   33   39 1   
    61   35   36 1   
    62   35   60 1   
    63   35   61 1   
    64   36   37 1   
    65   36   62 1   
    66   36   63 1   
    67   37   38 1   
    68   37   64 1   
    69   38   39 1   
    70   38   65 1   
    71   38   66 1   
    72   39   67 1   
    73   39   68 1   
@<TRIPOS>SUBSTRUCTURE
     1 S53         1 TEMP              0 ****  ****    0 ROOT
