@<TRIPOS>MOLECULE
S53
   68    73     1     0     0
SMALL
bcc


@<TRIPOS>ATOM
      1 N1          0.0550    0.2960    0.0800 nb        1 S53     -0.663000
      2 C2          1.3980    0.1960    0.0730 ca        1 S53      0.432600
      3 C3          2.1150    0.0900    1.3000 ca        1 S53     -0.142500
      4 C4          1.3720    0.1440    2.5470 ca        1 S53     -0.040800
      5 C5         -0.0170    0.2580    2.5130 ca        1 S53     -0.203300
      6 C6         -0.6170    0.3200    1.2530 ca        1 S53      0.378200
      7 N9          3.4790   -0.0440    1.6160 na        1 S53     -0.012500
      8 C10         3.5900   -0.0660    3.0230 cc        1 S53      0.168000
      9 C11         2.3300    0.0460    3.6200 cd        1 S53     -0.200400
     10 C12         4.5670   -0.2140    0.7260 ca        1 S53     -0.013200
     11 C13         4.7980   -1.4630    0.1080 ca        1 S53     -0.114000
     12 C14         5.8780   -1.6200   -0.7550 ca        1 S53     -0.128500
     13 C15         6.7410   -0.5550   -1.0130 ca        1 S53     -0.114000
     14 C16         6.5220    0.6780   -0.4020 ca        1 S53     -0.128500
     15 C17         5.4450    0.8580    0.4640 ca        1 S53     -0.114000
     16 C23         2.0850    0.2160   -1.2660 c3        1 S53     -0.088400
     17 C24         2.0540    1.5730   -1.8840 ca        1 S53     -0.078300
     18 C27         3.1880    2.3920   -1.8510 ca        1 S53     -0.118500
     19 C28         3.1650    3.6500   -2.4510 ca        1 S53     -0.134000
     20 C29         2.0090    4.1010   -3.0870 ca        1 S53     -0.129000
     21 C30         0.8750    3.2890   -3.1210 ca        1 S53     -0.134000
     22 C31         0.8950    2.0300   -2.5240 ca        1 S53     -0.118500
     23 O37         4.8120   -0.0240    3.6590 os        1 S53     -0.226200
     24 C38         5.4550   -1.2610    3.8230 ca        1 S53      0.108100
     25 C39         4.7500   -2.4030    4.2050 ca        1 S53     -0.183000
     26 C40         5.4730   -3.5870    4.4310 ca        1 S53      0.140900
     27 C41         6.8730   -3.6050    4.2890 ca        1 S53     -0.173000
     28 C42         7.5440   -2.4430    3.9250 ca        1 S53     -0.099000
     29 C43         6.8550   -1.2500    3.6810 ca        1 S53     -0.088300
     30 C47         7.5720   -0.0110    3.3080 c3        1 S53     -0.047800
     31 F51         4.8180   -4.7150    4.7930 f         1 S53     -0.133900
     32 C52         2.0330   -0.0340    5.0620 c         1 S53      0.702300
     33 N53         1.4050    1.0490    5.6750 n         1 S53     -0.446800
     34 O54         2.2600   -1.0830    5.6990 o         1 S53     -0.601100
     35 C55         1.2020    1.0360    7.1100 c3        1 S53      0.079000
     36 C56         2.1200    2.0150    7.8740 c3        1 S53      0.136300
     37 N57         2.1340    3.3440    7.2960 n3        1 S53     -0.820200
     38 C58         2.3630    3.3540    5.8650 c3        1 S53      0.136300
     39 C59         1.4380    2.3770    5.1040 c3        1 S53      0.079000
     40 H5         -0.6080    0.2950    3.4380 ha        1 S53      0.157000
     41 H6         -1.7150    0.4010    1.1540 h4        1 S53      0.024100
     42 H13         4.1260   -2.3140    0.3050 ha        1 S53      0.152000
     43 H14         6.0510   -2.5970   -1.2330 ha        1 S53      0.142000
     44 H15         7.5920   -0.6890   -1.6970 ha        1 S53      0.141000
     45 H16         7.2010    1.5200   -0.6020 ha        1 S53      0.142000
     46 H17         5.2870    1.8370    0.9450 ha        1 S53      0.152000
     47 H23         1.5690   -0.5120   -1.9550 hc        1 S53      0.066700
     48 H23A        3.1450   -0.1320   -1.1590 hc        1 S53      0.066700
     49 H27         4.1040    2.0410   -1.3480 ha        1 S53      0.138000
     50 H28         4.0610    4.2870   -2.4220 ha        1 S53      0.129000
     51 H29         1.9910    5.0930   -3.5600 ha        1 S53      0.129000
     52 H30        -0.0400    3.6420   -3.6200 ha        1 S53      0.129000
     53 H31        -0.0020    1.3930   -2.5440 ha        1 S53      0.138000
     54 H39         3.6570   -2.3690    4.3560 ha        1 S53      0.193000
     55 H41         7.4250   -4.5380    4.4720 ha        1 S53      0.150000
     56 H42         8.6400   -2.4600    3.8230 ha        1 S53      0.141000
     57 H47         7.5480    0.7140    4.1610 hc        1 S53      0.049367
     58 H47A        7.0720    0.4730    2.4300 hc        1 S53      0.049367
     59 H47B        8.6370   -0.2220    3.0470 hc        1 S53      0.049367
     60 H55         1.3770   -0.0010    7.5130 h1        1 S53      0.068450
     61 H55A        0.1270    1.3200    7.2960 h1        1 S53      0.068450
     62 H56         1.7280    2.1070    8.9250 h1        1 S53      0.037950
     63 H56A        3.1540    1.5630    7.9310 h1        1 S53      0.037950
     64 HN57        2.8190    3.9130    7.7570 hn        1 S53      0.364800
     65 H58         2.1450    4.3940    5.4930 h1        1 S53      0.037950
     66 H58A        3.4330    3.1110    5.6000 h1        1 S53      0.037950
     67 H59         1.7720    2.3390    4.0310 h1        1 S53      0.068450
     68 H59A        0.3840    2.7790    5.1330 h1        1 S53      0.068450
@<TRIPOS>BOND
     1    1    2 ar  
     2    1    6 ar  
     3    2    3 ar  
     4    2   16 1   
     5    3    4 ar  
     6    3    7 1   
     7    4    5 ar  
     8    4    9 1   
     9    5    6 ar  
    10    5   40 1   
    11    6   41 1   
    12    7    8 1   
    13    7   10 1   
    14    8    9 2   
    15    8   23 1   
    16    9   32 1   
    17   10   11 ar  
    18   10   15 ar  
    19   11   12 ar  
    20   11   42 1   
    21   12   13 ar  
    22   12   43 1   
    23   13   14 ar  
    24   13   44 1   
    25   14   15 ar  
    26   14   45 1   
    27   15   46 1   
    28   16   17 1   
    29   16   47 1   
    30   16   48 1   
    31   17   18 ar  
    32   17   22 ar  
    33   18   19 ar  
    34   18   49 1   
    35   19   20 ar  
    36   19   50 1   
    37   20   21 ar  
    38   20   51 1   
    39   21   22 ar  
    40   21   52 1   
    41   22   53 1   
    42   23   24 1   
    43   24   25 ar  
    44   24   29 ar  
    45   25   26 ar  
    46   25   54 1   
    47   26   27 ar  
    48   26   31 1   
    49   27   28 ar  
    50   27   55 1   
    51   28   29 ar  
    52   28   56 1   
    53   29   30 1   
    54   30   57 1   
    55   30   58 1   
    56   30   59 1   
    57   32   33 1   
    58   32   34 2   
    59   33   35 1   
    60   33   39 1   
    61   35   36 1   
    62   35   60 1   
    63   35   61 1   
    64   36   37 1   
    65   36   62 1   
    66   36   63 1   
    67   37   38 1   
    68   37   64 1   
    69   38   39 1   
    70   38   65 1   
    71   38   66 1   
    72   39   67 1   
    73   39   68 1   
@<TRIPOS>SUBSTRUCTURE
     1 S53         1 TEMP              0 ****  ****    0 ROOT
