@<TRIPOS>MOLECULE
S54
   68    70     1     0     0
SMALL
bcc


@<TRIPOS>ATOM
      1 C7         -4.6540   -0.1600   -0.9560 c3        1 S54     -0.248300
      2 S8         -3.1020   -0.6410   -0.3430 s6        1 S54      1.448900
      3 C4         -5.6200   -1.2830   -1.0200 ca        1 S54     -0.075300
      4 C5         -6.0780   -1.7550   -2.2560 ca        1 S54     -0.114500
      5 C6         -7.0080   -2.7920   -2.3080 ca        1 S54     -0.126500
      6 C1         -7.4910   -3.3610   -1.1310 ca        1 S54     -0.121000
      7 C2         -7.0380   -2.8930    0.1030 ca        1 S54     -0.126500
      8 C3         -6.1080   -1.8570    0.1620 ca        1 S54     -0.114500
      9 O22        -3.2550   -0.9830    1.0170 o         1 S54     -0.643800
     10 O23        -2.5450   -1.5950   -1.2110 o         1 S54     -0.643800
     11 N9         -2.2610    0.7410   -0.4670 n3        1 S54     -0.912100
     12 C10        -1.8990    1.5910    0.6300 c3        1 S54      0.188500
     13 C18        -2.3760    3.0590    0.5020 c3        1 S54     -0.074700
     14 C19        -2.0440    3.6630   -0.8440 c3        1 S54     -0.098600
     15 C20        -3.8580    3.1640    0.7860 c3        1 S54     -0.098600
     16 C11        -0.3540    1.6350    0.7950 c         1 S54      0.646100
     17 O17         0.3860    1.7300   -0.2090 o         1 S54     -0.627100
     18 N12         0.1870    1.5360    2.0570 n         1 S54     -0.454800
     19 C13         1.6150    1.7140    2.3030 c3        1 S54      0.032700
     20 C24         2.4300    0.4100    2.1180 c         1 S54      0.650100
     21 O33         3.1620   -0.0240    3.0310 o         1 S54     -0.621100
     22 C14         1.7540    2.2470    3.7460 c3        1 S54     -0.088400
     23 C15         0.3880    2.0790    4.4020 c3        1 S54     -0.090400
     24 C16        -0.5810    1.6600    3.2840 c3        1 S54      0.085000
     25 N25         2.3080   -0.2390    0.9110 n         1 S54     -0.548900
     26 C26         3.0920   -1.4020    0.5910 c3        1 S54      0.129300
     27 C27         4.4020   -1.1130   -0.0880 ca        1 S54     -0.108300
     28 C32         4.5830   -1.4140   -1.4410 ca        1 S54     -0.124000
     29 C31         5.8110   -1.1720   -2.0560 ca        1 S54     -0.104000
     30 C30         6.8630   -0.6220   -1.3170 ca        1 S54     -0.139900
     31 C34         8.1850   -0.3600   -1.9710 ce        1 S54      0.650800
     32 N35         8.7130    0.8200   -1.8520 n2        1 S54     -0.826100
     33 N36         8.6840   -1.4480   -2.7230 nh        1 S54     -0.958800
     34 C29         6.6820   -0.3050    0.0330 ca        1 S54     -0.104000
     35 C28         5.4550   -0.5540    0.6450 ca        1 S54     -0.124000
     36 H7         -4.5600    0.2990   -1.9770 h1        1 S54      0.111700
     37 H7A        -5.1020    0.6410   -0.3060 h1        1 S54      0.111700
     38 H5         -5.6990   -1.3130   -3.1890 ha        1 S54      0.142500
     39 H6         -7.3600   -3.1620   -3.2830 ha        1 S54      0.135000
     40 H1         -8.2250   -4.1790   -1.1740 ha        1 S54      0.134000
     41 H2         -7.4120   -3.3430    1.0350 ha        1 S54      0.135000
     42 H3         -5.7380   -1.5000    1.1360 ha        1 S54      0.142500
     43 HN9        -1.8230    1.0130   -1.3190 hn        1 S54      0.463800
     44 H10        -2.3690    1.1520    1.5660 h1        1 S54      0.092700
     45 H18        -1.8240    3.6390    1.2970 hc        1 S54      0.056700
     46 H19        -2.7130    3.2590   -1.6420 hc        1 S54      0.043533
     47 H19A       -2.1820    4.7710   -0.8060 hc        1 S54      0.043533
     48 H19B       -0.9840    3.4410   -1.1220 hc        1 S54      0.043533
     49 H20        -4.1060    2.7180    1.7790 hc        1 S54      0.043533
     50 H20A       -4.1650    4.2390    0.7940 hc        1 S54      0.043533
     51 H20B       -4.4530    2.6400   -0.0010 hc        1 S54      0.043533
     52 H13         2.0340    2.4590    1.5620 h1        1 S54      0.086700
     53 H14         2.5440    1.6840    4.3040 hc        1 S54      0.076200
     54 H14A        2.0500    3.3250    3.7140 hc        1 S54      0.076200
     55 H15         0.4230    1.2900    5.1930 hc        1 S54      0.059200
     56 H15A        0.0490    3.0310    4.8770 hc        1 S54      0.059200
     57 H16        -1.3950    2.4280    3.1630 h1        1 S54      0.052700
     58 H16A       -1.0610    0.6700    3.5220 h1        1 S54      0.052700
     59 HN25        1.8760    0.2370    0.1500 hn        1 S54      0.335500
     60 H26         3.3050   -1.9650    1.5480 h1        1 S54      0.069700
     61 H26A        2.4620   -2.0590   -0.0750 h1        1 S54      0.069700
     62 H32         3.7560   -1.8430   -2.0260 ha        1 S54      0.146000
     63 H31         5.9410   -1.4010   -3.1240 ha        1 S54      0.145500
     64 HN35        9.5950    0.9600   -2.2980 hn        1 S54      0.381400
     65 HN36        8.3000   -2.3350   -2.4940 hn        1 S54      0.397800
     66 HN3A        9.6630   -1.4600   -2.8950 hn        1 S54      0.397800
     67 H29         7.5030    0.1480    0.6090 ha        1 S54      0.145500
     68 H28         5.3010   -0.3120    1.7100 ha        1 S54      0.146000
@<TRIPOS>BOND
     1    1    2 1   
     2    1    3 1   
     3    1   36 1   
     4    1   37 1   
     5    2    9 2   
     6    2   10 2   
     7    2   11 1   
     8    3    4 ar  
     9    3    8 ar  
    10    4    5 ar  
    11    4   38 1   
    12    5    6 ar  
    13    5   39 1   
    14    6    7 ar  
    15    6   40 1   
    16    7    8 ar  
    17    7   41 1   
    18    8   42 1   
    19   11   12 1   
    20   11   43 1   
    21   12   13 1   
    22   12   16 1   
    23   12   44 1   
    24   13   14 1   
    25   13   15 1   
    26   13   45 1   
    27   14   46 1   
    28   14   47 1   
    29   14   48 1   
    30   15   49 1   
    31   15   50 1   
    32   15   51 1   
    33   16   17 2   
    34   16   18 1   
    35   18   19 1   
    36   18   24 1   
    37   19   20 1   
    38   19   22 1   
    39   19   52 1   
    40   20   21 2   
    41   20   25 1   
    42   22   23 1   
    43   22   53 1   
    44   22   54 1   
    45   23   24 1   
    46   23   55 1   
    47   23   56 1   
    48   24   57 1   
    49   24   58 1   
    50   25   26 1   
    51   25   59 1   
    52   26   27 1   
    53   26   60 1   
    54   26   61 1   
    55   27   28 ar  
    56   27   35 ar  
    57   28   29 ar  
    58   28   62 1   
    59   29   30 ar  
    60   29   63 1   
    61   30   31 1   
    62   30   34 ar  
    63   31   32 2   
    64   31   33 1   
    65   32   64 1   
    66   33   65 1   
    67   33   66 1   
    68   34   35 ar  
    69   34   67 1   
    70   35   68 1   
@<TRIPOS>SUBSTRUCTURE
     1 S54         1 TEMP              0 ****  ****    0 ROOT
