@<TRIPOS>MOLECULE
S57
   42    43     1     0     0
SMALL
bcc


@<TRIPOS>ATOM
      1 C1         -0.5330    0.5200    0.0640 c3        1 S57      0.111700
      2 O4          0.8580    0.2220    0.0730 os        1 S57     -0.324900
      3 C4A         1.4380    0.0570    1.3170 ca        1 S57      0.104100
      4 C3A         0.7540    0.1750    2.5300 ca        1 S57     -0.176000
      5 C2A         1.4450   -0.0050    3.7330 ca        1 S57      0.024400
      6 CL          0.5790    0.1530    5.1860 cl        1 S57     -0.073400
      7 C1A         2.8180   -0.3160    3.7140 ca        1 S57      0.098100
      8 C6A         3.4910   -0.4350    2.4870 ca        1 S57     -0.159000
      9 C5A         2.8120   -0.2480    1.2920 ca        1 S57     -0.124000
     10 O1          3.4270   -0.5390    4.9340 os        1 S57     -0.320900
     11 C6B         4.8530   -0.3850    4.9480 c3        1 S57      0.130400
     12 C5B         5.2440   -0.3090    6.4140 c3        1 S57     -0.087400
     13 C4B         6.7460   -0.1990    6.5510 c3        1 S57     -0.077400
     14 C3B         7.1510   -0.1200    8.0080 c3        1 S57     -0.078400
     15 C2B         8.6540   -0.0070    8.1460 c3        1 S57     -0.102400
     16 C1B         9.0330    0.0670    9.6270 c3        1 S57      0.039300
     17 N1         10.4380    0.1830    9.8810 na        1 S57     -0.207900
     18 C2C        11.3460   -0.8690   10.0880 cc        1 S57      0.386400
     19 N3         12.6050   -0.4090   10.2410 nd        1 S57     -0.667000
     20 C4C        12.5220    0.9780   10.1170 cd        1 S57      0.289200
     21 C5C        11.1890    1.3630    9.8870 cc        1 S57     -0.256600
     22 H11        -1.1170   -0.3060    0.5350 h1        1 S57      0.046367
     23 H12        -0.7330    1.4880    0.5840 h1        1 S57      0.046367
     24 H13        -0.7730    0.6010   -1.0270 h1        1 S57      0.046367
     25 H3A        -0.3200    0.4120    2.5540 ha        1 S57      0.153000
     26 H6A         4.5620   -0.6830    2.4650 ha        1 S57      0.144000
     27 H5A         3.3290   -0.3380    0.3260 ha        1 S57      0.154000
     28 H6B1        5.1500    0.5470    4.4000 h1        1 S57      0.040200
     29 H6B2        5.3190   -1.2780    4.4530 h1        1 S57      0.040200
     30 H5B1        4.7430    0.5760    6.8860 hc        1 S57      0.060200
     31 H5B2        4.8700   -1.2240    6.9450 hc        1 S57      0.060200
     32 H4B1        7.1090    0.7150    6.0100 hc        1 S57      0.044200
     33 H4B2        7.2370   -1.0860    6.0710 hc        1 S57      0.044200
     34 H3B1        6.7880   -1.0340    8.5480 hc        1 S57      0.044700
     35 H3B2        6.6580    0.7660    8.4870 hc        1 S57      0.044700
     36 H2B1        9.0180    0.9090    7.6110 hc        1 S57      0.055200
     37 H2B2        9.1480   -0.8920    7.6660 hc        1 S57      0.055200
     38 H1B1        8.6600   -0.8630   10.1460 h1        1 S57      0.060700
     39 H1B2        8.5170    0.9570   10.0900 h1        1 S57      0.060700
     40 H2C        11.0350   -1.9170   10.1310 h5        1 S57      0.059100
     41 H4C        13.4040    1.6110   10.2020 h4        1 S57      0.041100
     42 H5C        10.7370    2.3420    9.7440 h4        1 S57      0.175000
@<TRIPOS>BOND
     1    1    2 1   
     2    1   22 1   
     3    1   23 1   
     4    1   24 1   
     5    2    3 1   
     6    3    4 ar  
     7    3    9 ar  
     8    4    5 ar  
     9    4   25 1   
    10    5    6 1   
    11    5    7 ar  
    12    7    8 ar  
    13    7   10 1   
    14    8    9 ar  
    15    8   26 1   
    16    9   27 1   
    17   10   11 1   
    18   11   12 1   
    19   11   28 1   
    20   11   29 1   
    21   12   13 1   
    22   12   30 1   
    23   12   31 1   
    24   13   14 1   
    25   13   32 1   
    26   13   33 1   
    27   14   15 1   
    28   14   34 1   
    29   14   35 1   
    30   15   16 1   
    31   15   36 1   
    32   15   37 1   
    33   16   17 1   
    34   16   38 1   
    35   16   39 1   
    36   17   18 1   
    37   17   21 1   
    38   18   19 2   
    39   18   40 1   
    40   19   20 1   
    41   20   21 2   
    42   20   41 1   
    43   21   42 1   
@<TRIPOS>SUBSTRUCTURE
     1 S57         1 TEMP              0 ****  ****    0 ROOT
