@<TRIPOS>MOLECULE
S57
   42    43     1     0     0
SMALL
bcc


@<TRIPOS>ATOM
      1 C1         -0.5720    0.0020   -0.0020 c3        1 S57      0.112700
      2 O4          0.8510    0.0010    0.0370 os        1 S57     -0.324900
      3 C4A         1.4250    0.0000    1.2950 ca        1 S57      0.099100
      4 C3A         0.7060    0.0010    2.4930 ca        1 S57     -0.172000
      5 C2A         1.3920   -0.0000    3.7110 ca        1 S57      0.020400
      6 Cl          0.4790    0.0000    5.1440 cl        1 S57     -0.073400
      7 C1A         2.8020   -0.0020    3.7240 ca        1 S57      0.104100
      8 C6A         3.5100   -0.0020    2.5130 ca        1 S57     -0.167000
      9 C5A         2.8310   -0.0010    1.3020 ca        1 S57     -0.120000
     10 O1          3.4030   -0.0030    4.9680 os        1 S57     -0.318900
     11 C6B         4.8360   -0.0040    4.9730 c3        1 S57      0.130400
     12 C5B         5.2360   -0.0050    6.4390 c3        1 S57     -0.086400
     13 C4B         6.7430    0.0010    6.5690 c3        1 S57     -0.077400
     14 C3B         7.1590   -0.0030    8.0250 c3        1 S57     -0.078400
     15 C2B         8.6660    0.0060    8.1570 c3        1 S57     -0.102400
     16 C1B         9.0560   -0.0020    9.6380 c3        1 S57      0.039300
     17 N1         10.4670    0.0120    9.8860 na        1 S57     -0.207900
     18 C2C        11.3040   -1.1050   10.0460 cc        1 S57      0.386400
     19 N3         12.5920   -0.7340   10.2070 nd        1 S57     -0.667000
     20 C4C        12.5990    0.6590   10.1380 cd        1 S57      0.289200
     21 C5C        11.2930    1.1390    9.9320 cc        1 S57     -0.256600
     22 H11        -0.9810   -0.9170    0.4850 h1        1 S57      0.045700
     23 H12        -0.9800    0.9200    0.4850 h1        1 S57      0.045700
     24 H13        -0.8000    0.0020   -1.0980 h1        1 S57      0.045700
     25 H3A        -0.3940    0.0020    2.4930 ha        1 S57      0.153000
     26 H6A         4.6090   -0.0040    2.5060 ha        1 S57      0.144000
     27 H5A         3.3780   -0.0020    0.3470 ha        1 S57      0.154000
     28 H6B1        5.2160    0.9140    4.4520 h1        1 S57      0.039700
     29 H6B2        5.2150   -0.9210    4.4500 h1        1 S57      0.039700
     30 H5B1        4.7980    0.8950    6.9440 hc        1 S57      0.060700
     31 H5B2        4.8040   -0.9100    6.9410 hc        1 S57      0.060700
     32 H4B1        7.1650    0.9070    6.0600 hc        1 S57      0.044200
     33 H4B2        7.1710   -0.8990    6.0540 hc        1 S57      0.044200
     34 H3B1        6.7380   -0.9110    8.5330 hc        1 S57      0.044700
     35 H3B2        6.7270    0.8950    8.5410 hc        1 S57      0.044700
     36 H2B1        9.0870    0.9150    7.6550 hc        1 S57      0.055200
     37 H2B2        9.0990   -0.8910    7.6410 hc        1 S57      0.055200
     38 H1B1        8.6250   -0.9250   10.1230 h1        1 S57      0.060700
     39 H1B2        8.6020    0.9020   10.1370 h1        1 S57      0.060700
     40 H2C        10.9250   -2.1310   10.0500 h5        1 S57      0.059100
     41 H4C        13.5210    1.2290   10.2410 h4        1 S57      0.041100
     42 H5C        10.9060    2.1500    9.8310 h4        1 S57      0.175000
@<TRIPOS>BOND
     1    1    2 1   
     2    1   22 1   
     3    1   23 1   
     4    1   24 1   
     5    2    3 1   
     6    3    4 ar  
     7    3    9 ar  
     8    4    5 ar  
     9    4   25 1   
    10    5    6 1   
    11    5    7 ar  
    12    7    8 ar  
    13    7   10 1   
    14    8    9 ar  
    15    8   26 1   
    16    9   27 1   
    17   10   11 1   
    18   11   12 1   
    19   11   28 1   
    20   11   29 1   
    21   12   13 1   
    22   12   30 1   
    23   12   31 1   
    24   13   14 1   
    25   13   32 1   
    26   13   33 1   
    27   14   15 1   
    28   14   34 1   
    29   14   35 1   
    30   15   16 1   
    31   15   36 1   
    32   15   37 1   
    33   16   17 1   
    34   16   38 1   
    35   16   39 1   
    36   17   18 1   
    37   17   21 1   
    38   18   19 2   
    39   18   40 1   
    40   19   20 1   
    41   20   21 2   
    42   20   41 1   
    43   21   42 1   
@<TRIPOS>SUBSTRUCTURE
     1 S57         1 TEMP              0 ****  ****    0 ROOT
