@<TRIPOS>MOLECULE
S57
   42    43     1     0     0
SMALL
bcc


@<TRIPOS>ATOM
      1 C1          1.1430    0.0020    7.9040 c3        1 S57      0.112700
      2 O4          1.9470    0.0050    6.7300 os        1 S57     -0.324900
      3 C4A         1.2680    0.0040    5.5260 ca        1 S57      0.099100
      4 C3A        -0.1250   -0.0020    5.4040 ca        1 S57     -0.172000
      5 C2A        -0.7070   -0.0030    4.1330 ca        1 S57      0.020400
      6 CL         -2.4030   -0.0100    4.0290 cl        1 S57     -0.073400
      7 C1A         0.1110    0.0010    2.9850 ca        1 S57      0.104100
      8 C6A         1.5070    0.0070    3.1240 ca        1 S57     -0.167000
      9 C5A         2.0880    0.0080    4.3840 ca        1 S57     -0.120000
     10 O1         -0.5410   -0.0000    1.7670 os        1 S57     -0.318900
     11 C6B         0.2970    0.0020    0.6050 c3        1 S57      0.130400
     12 C5B        -0.6540   -0.0020   -0.5800 c3        1 S57     -0.086400
     13 C4B         0.1260   -0.0040   -1.8760 c3        1 S57     -0.077400
     14 C3B        -0.8080   -0.0060   -3.0690 c3        1 S57     -0.078400
     15 C2B        -0.0280   -0.0110   -4.3660 c3        1 S57     -0.102400
     16 C1B        -0.9970   -0.0090   -5.5510 c3        1 S57      0.039300
     17 N1         -0.3690   -0.0200   -6.8380 na        1 S57     -0.207900
     18 C2C        -0.0120    1.0980   -7.6110 cc        1 S57      0.386400
     19 N3          0.6160    0.7310   -8.7470 nd        1 S57     -0.667000
     20 C4C         0.6840   -0.6620   -8.7120 cd        1 S57      0.289200
     21 C5C         0.0860   -1.1450   -7.5340 cc        1 S57     -0.256600
     22 H11         1.8950    0.0050    8.7330 h1        1 S57      0.045700
     23 H12         0.5050    0.9180    7.9480 h1        1 S57      0.045700
     24 H13         0.5120   -0.9180    7.9480 h1        1 S57      0.045700
     25 H3A        -0.7710   -0.0060    6.2940 ha        1 S57      0.153000
     26 H6A         2.1590    0.0100    2.2380 ha        1 S57      0.144000
     27 H5A         3.1820    0.0120    4.5030 ha        1 S57      0.154000
     28 H6B1        0.9390    0.9210    0.6040 h1        1 S57      0.039700
     29 H6B2        0.9450   -0.9140    0.6050 h1        1 S57      0.039700
     30 H5B1       -1.3170   -0.9050   -0.5220 hc        1 S57      0.060700
     31 H5B2       -1.3180    0.9000   -0.5260 hc        1 S57      0.060700
     32 H4B1        0.7910    0.8980   -1.9210 hc        1 S57      0.044200
     33 H4B2        0.7890   -0.9080   -1.9170 hc        1 S57      0.044200
     34 H3B1       -1.4740   -0.9070   -3.0220 hc        1 S57      0.044700
     35 H3B2       -1.4700    0.8990   -3.0270 hc        1 S57      0.044700
     36 H2B1        0.6390    0.8890   -4.4130 hc        1 S57      0.055200
     37 H2B2        0.6300   -0.9170   -4.4100 hc        1 S57      0.055200
     38 H1B1       -1.6630   -0.9160   -5.4770 h1        1 S57      0.060700
     39 H1B2       -1.6480    0.9100   -5.4880 h1        1 S57      0.060700
     40 H2C        -0.2440    2.1230   -7.3070 h5        1 S57      0.059100
     41 H4C         1.1460   -1.2300   -9.5180 h4        1 S57      0.041100
     42 H5C        -0.0540   -2.1560   -7.1600 h4        1 S57      0.175000
@<TRIPOS>BOND
     1    1    2 1   
     2    1   22 1   
     3    1   23 1   
     4    1   24 1   
     5    2    3 1   
     6    3    4 ar  
     7    3    9 ar  
     8    4    5 ar  
     9    4   25 1   
    10    5    6 1   
    11    5    7 ar  
    12    7    8 ar  
    13    7   10 1   
    14    8    9 ar  
    15    8   26 1   
    16    9   27 1   
    17   10   11 1   
    18   11   12 1   
    19   11   28 1   
    20   11   29 1   
    21   12   13 1   
    22   12   30 1   
    23   12   31 1   
    24   13   14 1   
    25   13   32 1   
    26   13   33 1   
    27   14   15 1   
    28   14   34 1   
    29   14   35 1   
    30   15   16 1   
    31   15   36 1   
    32   15   37 1   
    33   16   17 1   
    34   16   38 1   
    35   16   39 1   
    36   17   18 1   
    37   17   21 1   
    38   18   19 2   
    39   18   40 1   
    40   19   20 1   
    41   20   21 2   
    42   20   41 1   
    43   21   42 1   
@<TRIPOS>SUBSTRUCTURE
     1 S57         1 TEMP              0 ****  ****    0 ROOT
