@<TRIPOS>MOLECULE
S57
   42    38     1     0     0
SMALL
bcc


@<TRIPOS>ATOM
      1 C1         -6.0910   -1.5370   -5.7430 c3        1 S57     -0.078000
      2 O4         -4.8070   -0.9180   -5.6980 os        1 S57     -0.207000
      3 C4A        -4.2210   -0.9010   -4.4030 c2        1 S57      0.084000
      4 C3A        -3.5700   -2.0390   -3.9140 c2        1 S57     -0.197000
      5 C2A        -2.9660   -2.0130   -2.6540 c1        1 S57     -0.041000
      6 CL         -2.1430   -3.3860   -2.0770 cl        1 S57     -0.001000
      7 C1A        -3.0100   -0.8500   -1.8780 c2        1 S57      0.018000
      8 C6A        -3.6600    0.2870   -2.3650 c1        1 S57     -0.102000
      9 C5A        -4.2670    0.2590   -3.6340 c1        1 S57     -0.146000
     10 O1         -2.4010   -0.8310   -0.5840 os        1 S57     -0.220000
     11 C6B        -1.1410   -0.1540   -0.5380 c3        1 S57     -0.020000
     12 C5B        -0.4960   -0.3650    0.8570 c3        1 S57     -0.164000
     13 C4B         0.8500    0.3800    0.9210 c3        1 S57     -0.156000
     14 C3B         1.5150    0.1410    2.3300 c3        1 S57     -0.157000
     15 C2B         2.8370    0.8160    2.3780 c3        1 S57     -0.181000
     16 C1B         3.4990    0.5240    3.7390 c3        1 S57     -0.020000
     17 N1          4.7630    1.2390    3.8340 n3        1 S57     -0.163000
     18 C2C         4.9460    2.4720    4.3980 c1        1 S57     -0.103000
     19 N3          6.2710    2.7500    4.3820 n2        1 S57     -0.142000
     20 C4C         6.9090    1.7130    3.8180 c1        1 S57     -0.176000
     21 C5C         5.9670    0.7700    3.4770 c1        1 S57     -0.167000
     22 H11        -5.9810   -2.5210   -5.7700 h1        1 S57      0.086667
     23 H12        -6.5720   -1.2370   -6.5530 h1        1 S57      0.086667
     24 H13        -6.6170   -1.2810   -4.9260 h1        1 S57      0.086667
     25 H3A        -3.5600   -2.8770   -4.4550 ha        1 S57      0.153000
     26 H6A        -3.6940    1.1490   -1.7920 ha        1 S57      0.152000
     27 H5A        -4.7400    1.0820   -3.9890 ha        1 S57      0.156000
     28 H6B1       -1.2890    0.8630   -0.7020 h1        1 S57      0.077000
     29 H6B2       -0.5570   -0.5100   -1.2200 h1        1 S57      0.077000
     30 H5B1       -1.1290    0.0060    1.5880 hc        1 S57      0.097000
     31 H5B2       -0.3380   -1.3900    1.0190 hc        1 S57      0.097000
     32 H4B1        0.6950    1.3650    0.7880 hc        1 S57      0.083500
     33 H4B2        1.4620    0.0340    0.1940 hc        1 S57      0.083500
     34 H3B1        0.9590    0.4940    3.0050 hc        1 S57      0.083500
     35 H3B2        1.6330   -0.8190    2.4780 hc        1 S57      0.083500
     36 H2B1        3.4300    0.4630    1.6200 hc        1 S57      0.094500
     37 H2B2        2.7130    1.7970    2.2720 hc        1 S57      0.094500
     38 H1B1        2.8660    0.8400    4.5050 h1        1 S57      0.099000
     39 H1B2        3.6560   -0.4150    3.8240 h1        1 S57      0.099000
     40 H2C         4.2470    3.0490    4.7460 DU        1 S57      0.183000
     41 H4C         7.8850    1.6410    3.6740 DU        1 S57      0.183000
     42 H5C         6.1460   -0.0930    3.0490 DU        1 S57      0.183000
@<TRIPOS>BOND
     1    1    2 1   
     2    1   22 1   
     3    1   23 1   
     4    1   24 1   
     5    2    3 1   
     6    3    4 1   
     7    3    9 1   
     8    4    5 1   
     9    4   25 1   
    10    5    7 1   
    11    7    8 1   
    12    7   10 1   
    13    8   26 1   
    14    9   27 1   
    15   10   11 1   
    16   11   12 1   
    17   11   28 1   
    18   11   29 1   
    19   12   13 1   
    20   12   30 1   
    21   12   31 1   
    22   13   14 1   
    23   13   32 1   
    24   13   33 1   
    25   14   15 1   
    26   14   34 1   
    27   14   35 1   
    28   15   16 1   
    29   15   36 1   
    30   15   37 1   
    31   16   17 1   
    32   16   38 1   
    33   16   39 1   
    34   17   18 1   
    35   17   21 1   
    36   18   19 1   
    37   19   20 1   
    38   20   21 1   
@<TRIPOS>SUBSTRUCTURE
     1 S57         1 TEMP              0 ****  ****    0 ROOT
