@<TRIPOS>MOLECULE
S58
   38    40     1     0     0
SMALL
bcc


@<TRIPOS>ATOM
      1 C1          0.0250    0.0380   -0.0850 cc        1 S58     -0.206300
      2 C2          1.4170    0.0100   -0.1120 cd        1 S58     -0.007300
      3 C3         -0.3240    0.1700    1.3220 cc        1 S58      0.267600
      4 C4         -1.7390    0.2410    1.8830 c3        1 S58      0.629600
      5 C5          3.1600    0.1080    1.7520 ca        1 S58      0.192800
      6 C6          3.4520    0.6660    3.0310 ca        1 S58     -0.175000
      7 C7          4.7390    0.6420    3.5220 ca        1 S58      0.032500
      8 C8          5.8120    0.0620    2.8010 ca        1 S58     -0.601500
      9 C9          5.5050   -0.4860    1.5320 ca        1 S58      0.032500
     10 C10         4.2270   -0.4730    1.0160 ca        1 S58     -0.175000
     11 C11         2.2780   -0.0500   -1.2820 ca        1 S58     -0.072000
     12 C12         2.4310   -1.2580   -1.9750 ca        1 S58     -0.104500
     13 C13         3.1980   -1.3040   -3.1370 ca        1 S58     -0.105500
     14 C14         3.8170   -0.1440   -3.6170 ca        1 S58     -0.007900
     15 C15         3.6570    1.0640   -2.9310 ca        1 S58     -0.105500
     16 C16         2.8900    1.1130   -1.7680 ca        1 S58     -0.104500
     17 N1          1.8490    0.1200    1.2540 na        1 S58      0.121300
     18 N2          0.7820    0.2240    2.0910 nd        1 S58     -0.443800
     19 N3          7.2630   -1.5490    4.3500 n4        1 S58     -0.784500
     20 O1          7.5260    0.9850    4.3890 o         1 S58     -0.570300
     21 O2          8.2810   -0.2060    2.4350 o         1 S58     -0.570300
     22 BR1         4.8480   -0.2090   -5.1730 br        1 S58     -0.039100
     23 F1         -2.0330   -0.7750    2.7540 f         1 S58     -0.213633
     24 F2         -1.9970    1.3950    2.5750 f         1 S58     -0.213633
     25 F3         -2.7040    0.1760    0.9130 f         1 S58     -0.213633
     26 S1          7.2980    0.1100    3.3490 sy        1 S58      1.504200
     27 H1         -0.6750   -0.0140   -0.9170 ha        1 S58      0.210000
     28 H6          2.6540    1.1330    3.6380 ha        1 S58      0.194000
     29 H7          4.9460    1.1130    4.5030 ha        1 S58      0.171500
     30 H9          6.3220   -0.9320    0.9300 ha        1 S58      0.171500
     31 H10         4.0420   -0.9210    0.0220 ha        1 S58      0.194000
     32 H12         1.9330   -2.1710   -1.6120 ha        1 S58      0.152000
     33 H13         3.3020   -2.2580   -3.6800 ha        1 S58      0.165000
     34 H15         4.1250    1.9880   -3.3090 ha        1 S58      0.165000
     35 H16         2.7530    2.0720   -1.2450 ha        1 S58      0.152000
     36 HN31        7.9730   -2.1880    3.9990 hn        1 S58      0.453133
     37 HN32        6.3650   -2.0160    4.2940 hn        1 S58      0.453133
     38 H33         7.4650   -1.3710    5.3320 hn        1 S58      0.453133
@<TRIPOS>BOND
     1    1    2 2   
     2    1    3 1   
     3    1   27 1   
     4    2   11 1   
     5    2   17 1   
     6    3    4 1   
     7    3   18 2   
     8    4   23 1   
     9    4   24 1   
    10    4   25 1   
    11    5    6 ar  
    12    5   10 ar  
    13    5   17 1   
    14    6    7 ar  
    15    6   28 1   
    16    7    8 ar  
    17    7   29 1   
    18    8    9 ar  
    19    8   26 1   
    20    9   10 ar  
    21    9   30 1   
    22   10   31 1   
    23   11   12 ar  
    24   11   16 ar  
    25   12   13 ar  
    26   12   32 1   
    27   13   14 ar  
    28   13   33 1   
    29   14   15 ar  
    30   14   22 1   
    31   15   16 ar  
    32   15   34 1   
    33   16   35 1   
    34   17   18 1   
    35   19   26 1   
    36   19   36 1   
    37   19   37 1   
    38   19   38 1   
    39   20   26 2   
    40   21   26 2   
@<TRIPOS>SUBSTRUCTURE
     1 S58         1 TEMP              0 ****  ****    0 ROOT
