@<TRIPOS>MOLECULE
S58
   37    39     1     0     0
SMALL
bcc


@<TRIPOS>ATOM
      1 C1          1.4820   -0.0370   -2.9610 cc        1 S58     -0.226300
      2 C2          0.9480   -0.0090   -1.6630 cd        1 S58     -0.039300
      3 C3          0.3330    0.0090   -3.8320 cc        1 S58      0.215600
      4 C4          0.3610    0.0060   -5.3450 c3        1 S58      0.632600
      5 C5         -1.4300    0.0270   -0.7670 ca        1 S58      0.068800
      6 C6         -2.6020    0.8040   -0.8680 ca        1 S58     -0.148500
      7 C7         -3.5400    0.7630    0.1590 ca        1 S58     -0.011000
      8 C8         -3.3500   -0.0370    1.2890 ca        1 S58     -0.375500
      9 C9         -2.1810   -0.8000    1.3790 ca        1 S58     -0.011000
     10 C10        -1.2260   -0.7830    0.3690 ca        1 S58     -0.148500
     11 C11         1.6750    0.0120   -0.4060 ca        1 S58     -0.034000
     12 C12         2.5860   -1.0150   -0.1210 ca        1 S58     -0.106000
     13 C13         3.3320   -0.9820    1.0550 ca        1 S58     -0.105000
     14 C14         3.1760    0.0770    1.9550 ca        1 S58     -0.013900
     15 C15         2.2710    1.1040    1.6720 ca        1 S58     -0.105000
     16 C16         1.5240    1.0730    0.4960 ca        1 S58     -0.106000
     17 N1         -0.4630    0.0490   -1.8170 na        1 S58      0.164300
     18 N2         -0.8200    0.0580   -3.1090 nd        1 S58     -0.436800
     19 N3         -5.5000   -1.2180    2.0990 n3        1 S58     -1.027700
     20 O1         -5.1740    1.1800    2.5270 o         1 S58     -0.654300
     21 O2         -3.8350   -0.4350    3.7280 o         1 S58     -0.654300
     22 BR1         4.1790    0.1190    3.5340 br        1 S58     -0.070100
     23 F1         -0.2900   -1.0580   -5.9180 f         1 S58     -0.228300
     24 F2         -0.2090    1.1130   -5.9220 f         1 S58     -0.228300
     25 F3          1.6290   -0.0430   -5.8690 f         1 S58     -0.228300
     26 S1         -4.4950   -0.0550    2.5420 sy        1 S58      1.527200
     27 H1          2.5250   -0.0710   -3.2620 ha        1 S58      0.189000
     28 H6         -2.7860    1.4410   -1.7490 ha        1 S58      0.163000
     29 H7         -4.4460    1.3920    0.0870 ha        1 S58      0.162500
     30 H9         -2.0050   -1.4190    2.2780 ha        1 S58      0.162500
     31 H10        -0.3150   -1.3960    0.4660 ha        1 S58      0.163000
     32 H12         2.7150   -1.8470   -0.8300 ha        1 S58      0.148500
     33 H13         4.0450   -1.7950    1.2670 ha        1 S58      0.155000
     34 H15         2.1420    1.9450    2.3730 ha        1 S58      0.155000
     35 H16         0.8180    1.8880    0.2760 ha        1 S58      0.148500
     36 HN31       -5.3960   -2.1640    2.3670 hn        1 S58      0.450800
     37 HN32       -6.3070   -1.0650    1.5470 hn        1 S58      0.450800
@<TRIPOS>BOND
     1    1    2 2   
     2    1    3 1   
     3    1   27 1   
     4    2   11 1   
     5    2   17 1   
     6    3    4 1   
     7    3   18 2   
     8    4   23 1   
     9    4   24 1   
    10    4   25 1   
    11    5    6 ar  
    12    5   10 ar  
    13    5   17 1   
    14    6    7 ar  
    15    6   28 1   
    16    7    8 ar  
    17    7   29 1   
    18    8    9 ar  
    19    8   26 1   
    20    9   10 ar  
    21    9   30 1   
    22   10   31 1   
    23   11   12 ar  
    24   11   16 ar  
    25   12   13 ar  
    26   12   32 1   
    27   13   14 ar  
    28   13   33 1   
    29   14   15 ar  
    30   14   22 1   
    31   15   16 ar  
    32   15   34 1   
    33   16   35 1   
    34   17   18 1   
    35   19   26 1   
    36   19   36 1   
    37   19   37 1   
    38   20   26 2   
    39   21   26 2   
@<TRIPOS>SUBSTRUCTURE
     1 S58         1 TEMP              0 ****  ****    0 ROOT
