@<TRIPOS>MOLECULE
S58
   38    40     1     0     0
SMALL
bcc


@<TRIPOS>ATOM
      1 C1          0.0260    0.0590   -0.0480 cc        1 S58     -0.206300
      2 C2          1.4180    0.0120   -0.0840 cd        1 S58     -0.007300
      3 C3         -0.3130    0.2110    1.3590 cc        1 S58      0.267600
      4 C4         -1.7220    0.3070    1.9280 c3        1 S58      0.629600
      5 C5          3.1730    0.1080    1.7680 ca        1 S58      0.192800
      6 C6          3.4810    0.6770    3.0380 ca        1 S58     -0.175000
      7 C7          4.7700    0.6420    3.5220 ca        1 S58      0.032500
      8 C8          5.8300    0.0400    2.8010 ca        1 S58     -0.601500
      9 C9          5.5090   -0.5190    1.5400 ca        1 S58      0.032500
     10 C10         4.2280   -0.4950    1.0320 ca        1 S58     -0.175000
     11 C11         2.2700   -0.0720   -1.2580 ca        1 S58     -0.072000
     12 C12         2.4030   -1.2910   -1.9380 ca        1 S58     -0.104500
     13 C13         3.1620   -1.3590   -3.1050 ca        1 S58     -0.105500
     14 C14         3.7930   -0.2140   -3.6020 ca        1 S58     -0.007900
     15 C15         3.6520    1.0040   -2.9280 ca        1 S58     -0.105500
     16 C16         2.8940    1.0770   -1.7620 ca        1 S58     -0.104500
     17 N1          1.8590    0.1320    1.2780 na        1 S58      0.121300
     18 N2          0.7990    0.2590    2.1200 nd        1 S58     -0.443800
     19 N3          7.2710   -1.5720    4.3600 nz        1 S58     -0.784500
     20 O1          7.5670    0.9590    4.3670 o         1 S58     -0.570300
     21 O2          8.2940   -0.2650    2.4230 o         1 S58     -0.570300
     22 Br1         4.8130   -0.3090   -5.1640 br        1 S58     -0.039100
     23 F1         -2.0240   -0.6960    2.8120 f         1 S58     -0.213633
     24 F2         -1.9620    1.4720    2.6080 f         1 S58     -0.213633
     25 F3         -2.6950    0.2440    0.9650 f         1 S58     -0.213633
     26 S1          7.3210    0.0740    3.3400 sy        1 S58      1.504200
     27 H1         -0.6800    0.0060   -0.8760 ha        1 S58      0.210000
     28 H6          2.6920    1.1610    3.6450 ha        1 S58      0.194000
     29 H7          4.9900    1.1210    4.4970 ha        1 S58      0.171500
     30 H9          6.3160   -0.9820    0.9390 ha        1 S58      0.171500
     31 H10         4.0310   -0.9520    0.0450 ha        1 S58      0.194000
     32 H12         1.8950   -2.1930   -1.5620 ha        1 S58      0.152000
     33 H13         3.2510   -2.3210   -3.6370 ha        1 S58      0.165000
     34 H15         4.1300    1.9180   -3.3210 ha        1 S58      0.165000
     35 H16         2.7730    2.0430   -1.2490 ha        1 S58      0.152000
     36 HN31        7.9700   -2.2240    4.0110 hn        1 S58      0.453133
     37 HN32        6.3660   -2.0280    4.3140 hn        1 S58      0.453133
     38 H33         7.4800   -1.3850    5.3390 hn        1 S58      0.453133
@<TRIPOS>BOND
     1    1    2 2   
     2    1    3 1   
     3    1   27 1   
     4    2   11 1   
     5    2   17 1   
     6    3    4 1   
     7    3   18 2   
     8    4   23 1   
     9    4   24 1   
    10    4   25 1   
    11    5    6 ar  
    12    5   10 ar  
    13    5   17 1   
    14    6    7 ar  
    15    6   28 1   
    16    7    8 ar  
    17    7   29 1   
    18    8    9 ar  
    19    8   26 1   
    20    9   10 ar  
    21    9   30 1   
    22   10   31 1   
    23   11   12 ar  
    24   11   16 ar  
    25   12   13 ar  
    26   12   32 1   
    27   13   14 ar  
    28   13   33 1   
    29   14   15 ar  
    30   14   22 1   
    31   15   16 ar  
    32   15   34 1   
    33   16   35 1   
    34   17   18 1   
    35   19   26 1   
    36   19   36 1   
    37   19   37 1   
    38   19   38 1   
    39   20   26 2   
    40   21   26 2   
@<TRIPOS>SUBSTRUCTURE
     1 S58         1 TEMP              0 ****  ****    0 ROOT
