@<TRIPOS>MOLECULE
S58
   38    40     1     0     0
SMALL
bcc


@<TRIPOS>ATOM
      1 C1          0.0230    0.0580   -0.0410 cc        1 S58     -0.206300
      2 C2          1.4150    0.0120   -0.0800 cd        1 S58     -0.007300
      3 C3         -0.3120    0.2080    1.3670 cc        1 S58      0.267600
      4 C4         -1.7210    0.3020    1.9390 c3        1 S58      0.629600
      5 C5          3.1750    0.1070    1.7690 ca        1 S58      0.192800
      6 C6          3.4840    0.6740    3.0400 ca        1 S58     -0.175000
      7 C7          4.7750    0.6390    3.5200 ca        1 S58      0.032500
      8 C8          5.8340    0.0390    2.7960 ca        1 S58     -0.602500
      9 C9          5.5100   -0.5180    1.5350 ca        1 S58      0.032500
     10 C10         4.2280   -0.4940    1.0290 ca        1 S58     -0.175000
     11 C11         2.2650   -0.0700   -1.2560 ca        1 S58     -0.072000
     12 C12         2.3970   -1.2870   -1.9380 ca        1 S58     -0.104500
     13 C13         3.1540   -1.3530   -3.1060 ca        1 S58     -0.105500
     14 C14         3.7840   -0.2060   -3.6030 ca        1 S58     -0.007900
     15 C15         3.6440    1.0110   -2.9270 ca        1 S58     -0.105500
     16 C16         2.8880    1.0800   -1.7580 ca        1 S58     -0.104500
     17 N1          1.8600    0.1300    1.2810 na        1 S58      0.121300
     18 N2          0.8010    0.2550    2.1260 nd        1 S58     -0.443800
     19 N3          7.2790   -1.5750    4.3490 n4        1 S58     -0.784500
     20 O1          7.5740    0.9560    4.3610 o         1 S58     -0.570300
     21 O2          8.2970   -0.2630    2.4130 o         1 S58     -0.570300
     22 BR1         4.8010   -0.2990   -5.1670 br        1 S58     -0.039100
     23 F1         -2.0200   -0.7020    2.8230 f         1 S58     -0.213633
     24 F2         -1.9590    1.4660    2.6210 f         1 S58     -0.213633
     25 F3         -2.6950    0.2390    0.9780 f         1 S58     -0.213633
     26 S1          7.3260    0.0730    3.3320 sy        1 S58      1.504200
     27 H1         -0.6840    0.0060   -0.8670 ha        1 S58      0.210000
     28 H6          2.6970    1.1560    3.6490 ha        1 S58      0.194000
     29 H7          4.9970    1.1160    4.4950 ha        1 S58      0.171500
     30 H9          6.3160   -0.9800    0.9310 ha        1 S58      0.171500
     31 H10         4.0300   -0.9500    0.0420 ha        1 S58      0.194000
     32 H12         1.8910   -2.1900   -1.5620 ha        1 S58      0.152000
     33 H13         3.2430   -2.3140   -3.6400 ha        1 S58      0.165000
     34 H15         4.1200    1.9250   -3.3190 ha        1 S58      0.165000
     35 H16         2.7670    2.0460   -1.2440 ha        1 S58      0.152000
     36 HN31        7.9790   -2.2260    3.9970 hn        1 S58      0.453133
     37 HN32        6.3750   -2.0320    4.3040 hn        1 S58      0.453133
     38 H33         7.4910   -1.3900    5.3270 hn        1 S58      0.453133
@<TRIPOS>BOND
     1    1    2 2   
     2    1    3 1   
     3    1   27 1   
     4    2   11 1   
     5    2   17 1   
     6    3    4 1   
     7    3   18 2   
     8    4   23 1   
     9    4   24 1   
    10    4   25 1   
    11    5    6 ar  
    12    5   10 ar  
    13    5   17 1   
    14    6    7 ar  
    15    6   28 1   
    16    7    8 ar  
    17    7   29 1   
    18    8    9 ar  
    19    8   26 1   
    20    9   10 ar  
    21    9   30 1   
    22   10   31 1   
    23   11   12 ar  
    24   11   16 ar  
    25   12   13 ar  
    26   12   32 1   
    27   13   14 ar  
    28   13   33 1   
    29   14   15 ar  
    30   14   22 1   
    31   15   16 ar  
    32   15   34 1   
    33   16   35 1   
    34   17   18 1   
    35   19   26 1   
    36   19   36 1   
    37   19   37 1   
    38   19   38 1   
    39   20   26 2   
    40   21   26 2   
@<TRIPOS>SUBSTRUCTURE
     1 S58         1 TEMP              0 ****  ****    0 ROOT
