@<TRIPOS>MOLECULE
S5B
   55    58     1     0     0
SMALL
bcc


@<TRIPOS>ATOM
      1 C01         4.9550    1.6770    1.1650 c3        1 S5B     -0.134400
      2 C02         5.4680    0.3830    0.6780 cc        1 S5B      0.334600
      3 N01         6.7670    0.0280    0.6050 nd        1 S5B     -0.385300
      4 O01         6.8600   -1.2000    0.1360 os        1 S5B     -0.132100
      5 C03         5.5680   -1.7210   -0.1220 cd        1 S5B      0.261000
      6 C04         5.5000   -3.0850   -0.6400 c3        1 S5B     -0.138400
      7 C05         4.6430   -0.7410    0.2040 cc        1 S5B     -0.243600
      8 C06         3.2050   -0.8050    0.1100 ca        1 S5B     -0.028000
      9 C07         2.4650    0.3360   -0.3000 ca        1 S5B     -0.153000
     10 C08         1.0970    0.2820   -0.3950 ca        1 S5B     -0.089000
     11 C09         0.3800   -0.9040   -0.0940 ca        1 S5B     -0.152300
     12 C10        -1.0620   -1.0030   -0.1950 ca        1 S5B      0.165600
     13 N02        -1.8250    0.0970   -0.6480 nh        1 S5B     -0.624000
     14 C11        -1.9550    1.2680    0.1130 ca        1 S5B      0.180600
     15 C12        -1.2160    1.4340    1.3110 ca        1 S5B     -0.196000
     16 C13        -1.2510    2.6190    2.0300 ca        1 S5B     -0.106000
     17 C14        -2.0390    3.6740    1.5830 ca        1 S5B     -0.192000
     18 C15        -2.7970    3.5190    0.4260 ca        1 S5B     -0.109000
     19 C16        -2.7910    2.3420   -0.3310 ca        1 S5B     -0.108300
     20 C17        -3.6870    2.2420   -1.5450 c3        1 S5B      0.003300
     21 C18        -4.2700    3.6060   -1.9310 c3        1 S5B     -0.092767
     22 C19        -2.9330    1.7240   -2.7720 c3        1 S5B     -0.092767
     23 C20        -4.8750    1.3330   -1.2310 c3        1 S5B     -0.092767
     24 C21        -1.6520   -2.2420    0.0470 ca        1 S5B     -0.273900
     25 C22        -0.8100   -3.3330    0.4320 ca        1 S5B      0.457200
     26 N1          0.5020   -3.2770    0.5630 nb        1 S5B     -0.712000
     27 C23         1.1140   -2.0670    0.2930 ca        1 S5B      0.393600
     28 C24         2.5380   -1.9800    0.3960 ca        1 S5B     -0.164300
     29 C1         -3.1380   -2.5490   -0.0760 c         1 S5B      0.919200
     30 O02        -3.5760   -3.5360    0.5730 o         1 S5B     -0.821800
     31 O1         -3.8520   -1.8290   -0.8340 o         1 S5B     -0.821800
     32 H011        4.8840    2.4010    0.3140 hc        1 S5B      0.058367
     33 H012        3.9340    1.5350    1.5990 hc        1 S5B      0.058367
     34 H013        5.6240    2.1160    1.9460 hc        1 S5B      0.058367
     35 H041        5.5140   -3.8170    0.2070 hc        1 S5B      0.065033
     36 H042        4.5470   -3.2230   -1.2130 hc        1 S5B      0.065033
     37 H043        6.3700   -3.2990   -1.3090 hc        1 S5B      0.065033
     38 H07         3.0050    1.2590   -0.5540 ha        1 S5B      0.125000
     39 H24         3.1020   -2.8720    0.7130 ha        1 S5B      0.138000
     40 H08         0.5400    1.1780   -0.7150 ha        1 S5B      0.148000
     41 H02        -2.6910   -0.2070   -1.0810 hn        1 S5B      0.475800
     42 H12        -0.6010    0.6010    1.6890 ha        1 S5B      0.144000
     43 H13        -0.6630    2.7150    2.9540 ha        1 S5B      0.118000
     44 H14        -2.0750    4.6190    2.1420 ha        1 S5B      0.115000
     45 H15        -3.4200    4.3750    0.1250 ha        1 S5B      0.120000
     46 H181       -3.4560    4.3480   -2.1080 hc        1 S5B      0.038144
     47 H182       -4.8660    3.5050   -2.8710 hc        1 S5B      0.038144
     48 H183       -4.9570    3.9870   -1.1390 hc        1 S5B      0.038144
     49 H191       -3.1110    0.6320   -2.9240 hc        1 S5B      0.038144
     50 H192       -3.2840    2.2430   -3.6980 hc        1 S5B      0.038144
     51 H193       -1.8370    1.9070   -2.6720 hc        1 S5B      0.038144
     52 H201       -5.4430    1.7400   -0.3610 hc        1 S5B      0.038144
     53 H202       -5.5560    1.2960   -2.1160 hc        1 S5B      0.038144
     54 H203       -4.5680    0.2850   -0.9900 hc        1 S5B      0.038144
     55 H22        -1.3050   -4.3010    0.6560 h4        1 S5B      0.050100
@<TRIPOS>BOND
     1    1    2 1   
     2    1   32 1   
     3    1   33 1   
     4    1   34 1   
     5    2    3 2   
     6    2    7 1   
     7    3    4 1   
     8    4    5 1   
     9    5    6 1   
    10    5    7 2   
    11    6   35 1   
    12    6   36 1   
    13    6   37 1   
    14    7    8 1   
    15    8    9 ar  
    16    8   28 ar  
    17    9   10 ar  
    18    9   38 1   
    19   10   11 ar  
    20   10   40 1   
    21   11   12 ar  
    22   11   27 ar  
    23   12   13 1   
    24   12   24 ar  
    25   13   14 1   
    26   13   41 1   
    27   14   15 ar  
    28   14   19 ar  
    29   15   16 ar  
    30   15   42 1   
    31   16   17 ar  
    32   16   43 1   
    33   17   18 ar  
    34   17   44 1   
    35   18   19 ar  
    36   18   45 1   
    37   19   20 1   
    38   20   21 1   
    39   20   22 1   
    40   20   23 1   
    41   21   46 1   
    42   21   47 1   
    43   21   48 1   
    44   22   49 1   
    45   22   50 1   
    46   22   51 1   
    47   23   52 1   
    48   23   53 1   
    49   23   54 1   
    50   24   25 ar  
    51   24   29 1   
    52   25   26 ar  
    53   25   55 1   
    54   26   27 ar  
    55   27   28 ar  
    56   28   39 1   
    57   29   30 1   
    58   29   31 1   
@<TRIPOS>SUBSTRUCTURE
     1 S5B         1 TEMP              0 ****  ****    0 ROOT
