@<TRIPOS>MOLECULE
S5B
   55    58     1     0     0
SMALL
bcc


@<TRIPOS>ATOM
      1 C01         1.0730    1.4560    0.2930 c3        1 S5B     -0.134400
      2 C02         1.8050    0.1950    0.5130 cc        1 S5B      0.334600
      3 N01         2.1320   -0.3270    1.7130 nd        1 S5B     -0.385300
      4 O01         2.7700   -1.4660    1.5370 os        1 S5B     -0.132100
      5 C03         2.8860   -1.7500    0.1530 cd        1 S5B      0.260000
      6 C04         3.5640   -2.9910   -0.2100 c3        1 S5B     -0.138400
      7 C05         2.2870   -0.7110   -0.5430 cc        1 S5B     -0.242600
      8 C06         2.1580   -0.5520   -1.9710 ca        1 S5B     -0.029000
      9 C07         2.2870    0.7320   -2.5620 ca        1 S5B     -0.153000
     10 C08         2.1690    0.8900   -3.9200 ca        1 S5B     -0.089000
     11 C09         1.9190   -0.2140   -4.7750 ca        1 S5B     -0.151300
     12 C10         1.8010   -0.0880   -6.2140 ca        1 S5B      0.163600
     13 N02         1.9850    1.1670   -6.8390 nu        1 S5B     -0.623000
     14 C11         1.0620    2.2110   -6.6730 ca        1 S5B      0.179600
     15 C12        -0.0210    2.0790   -5.7690 ca        1 S5B     -0.196000
     16 C13        -0.8850    3.1330   -5.5100 ca        1 S5B     -0.106000
     17 C14        -0.7020    4.3500   -6.1550 ca        1 S5B     -0.192000
     18 C15         0.3380    4.4900   -7.0710 ca        1 S5B     -0.109000
     19 C16         1.2280    3.4530   -7.3670 ca        1 S5B     -0.108300
     20 C17         2.3080    3.6700   -8.4020 c3        1 S5B      0.002300
     21 C18         2.2100    5.0580   -9.0430 c3        1 S5B     -0.090100
     22 C19         3.6890    3.6000   -7.7500 c3        1 S5B     -0.090100
     23 C20         2.1950    2.6430   -9.5320 c3        1 S5B     -0.090100
     24 C21         1.6290   -1.2510   -6.9620 ca        1 S5B     -0.273900
     25 C22         1.5330   -2.4980   -6.2660 ca        1 S5B      0.457200
     26 N1          1.6100   -2.6520   -4.9570 nb        1 S5B     -0.712000
     27 C23         1.8130   -1.5150   -4.1970 ca        1 S5B      0.393600
     28 C24         1.9280   -1.6500   -2.7770 ca        1 S5B     -0.164300
     29 C1          1.5420   -1.3210   -8.4800 c         1 S5B      0.918200
     30 O02         0.9970   -2.3430   -8.9760 o         1 S5B     -0.821800
     31 O1          2.0340   -0.3790   -9.1680 o         1 S5B     -0.821800
     32 H011        0.5030    1.3950   -0.6680 hc        1 S5B      0.058367
     33 H012        0.3570    1.6660    1.1260 hc        1 S5B      0.058367
     34 H013        1.7980    2.3070    0.2260 hc        1 S5B      0.058367
     35 H041        3.9880   -2.8990   -1.2420 hc        1 S5B      0.065033
     36 H042        4.3870   -3.2200    0.5120 hc        1 S5B      0.065033
     37 H043        2.8350   -3.8420   -0.1990 hc        1 S5B      0.065033
     38 H07         2.4970    1.5970   -1.9170 ha        1 S5B      0.124000
     39 H24         1.8280   -2.6520   -2.3310 ha        1 S5B      0.138000
     40 H08         2.2710    1.8960   -4.3590 ha        1 S5B      0.148000
     41 H02         2.3040    1.0530   -7.7960 hn        1 S5B      0.476800
     42 H12        -0.1890    1.1160   -5.2600 ha        1 S5B      0.144000
     43 H13        -1.7140    2.9970   -4.8010 ha        1 S5B      0.118000
     44 H14        -1.3750    5.1940   -5.9560 ha        1 S5B      0.114000
     45 H15         0.4330    5.4690   -7.5660 ha        1 S5B      0.120000
     46 H181        3.0070    5.1670   -9.8190 hc        1 S5B      0.038033
     47 H182        2.3600    5.8610   -8.2820 hc        1 S5B      0.038033
     48 H183        1.2210    5.1950   -9.5400 hc        1 S5B      0.038033
     49 H191        3.9630    2.5630   -7.4490 hc        1 S5B      0.038033
     50 H192        3.7180    4.2540   -6.8450 hc        1 S5B      0.038033
     51 H193        4.4630    3.9580   -8.4720 hc        1 S5B      0.038033
     52 H201        2.2490    3.1410  -10.5300 hc        1 S5B      0.038033
     53 H202        3.0210    1.8890   -9.4900 hc        1 S5B      0.038033
     54 H203        1.2290    2.0830   -9.4820 hc        1 S5B      0.038033
     55 H22         1.3620   -3.4090   -6.8790 h4        1 S5B      0.051100
@<TRIPOS>BOND
     1    1    2 1   
     2    1   32 1   
     3    1   33 1   
     4    1   34 1   
     5    2    3 2   
     6    2    7 1   
     7    3    4 1   
     8    4    5 1   
     9    5    6 1   
    10    5    7 2   
    11    6   35 1   
    12    6   36 1   
    13    6   37 1   
    14    7    8 1   
    15    8    9 ar  
    16    8   28 ar  
    17    9   10 ar  
    18    9   38 1   
    19   10   11 ar  
    20   10   40 1   
    21   11   12 ar  
    22   11   27 ar  
    23   12   13 1   
    24   12   24 ar  
    25   13   14 1   
    26   13   41 1   
    27   14   15 ar  
    28   14   19 ar  
    29   15   16 ar  
    30   15   42 1   
    31   16   17 ar  
    32   16   43 1   
    33   17   18 ar  
    34   17   44 1   
    35   18   19 ar  
    36   18   45 1   
    37   19   20 1   
    38   20   21 1   
    39   20   22 1   
    40   20   23 1   
    41   21   46 1   
    42   21   47 1   
    43   21   48 1   
    44   22   49 1   
    45   22   50 1   
    46   22   51 1   
    47   23   52 1   
    48   23   53 1   
    49   23   54 1   
    50   24   25 ar  
    51   24   29 1   
    52   25   26 ar  
    53   25   55 1   
    54   26   27 ar  
    55   27   28 ar  
    56   28   39 1   
    57   29   30 1   
    58   29   31 1   
@<TRIPOS>SUBSTRUCTURE
     1 S5B         1 TEMP              0 ****  ****    0 ROOT
