@<TRIPOS>MOLECULE
S5B
   56    59     1     0     0
SMALL
bcc


@<TRIPOS>ATOM
      1 C01         0.0980    0.4430    0.2180 c3        1 S5B     -0.135400
      2 C02         1.5000   -0.0120    0.2500 cc        1 S5B      0.338600
      3 N01         2.2320   -0.2140    1.3660 nd        1 S5B     -0.360300
      4 O01         3.4350   -0.6330    1.0320 os        1 S5B     -0.113100
      5 C03         3.5450   -0.7370   -0.3720 cd        1 S5B      0.292000
      6 C04         4.8250   -1.2070   -0.8990 c3        1 S5B     -0.147400
      7 C05         2.3310   -0.3400   -0.9190 cc        1 S5B     -0.288600
      8 C06         1.9660   -0.2710   -2.3110 ca        1 S5B      0.009000
      9 C07         1.1290    0.7730   -2.7830 ca        1 S5B     -0.105000
     10 C08         0.7950    0.8640   -4.1120 ca        1 S5B     -0.135000
     11 C09         1.2730   -0.0690   -5.0650 ca        1 S5B     -0.135300
     12 C10         0.9760   -0.0380   -6.4740 ca        1 S5B      0.024600
     13 N02         0.1500    1.0000   -7.1020 n4        1 S5B     -0.559800
     14 C11         0.2790    2.4030   -6.7100 ca        1 S5B      0.000600
     15 C12        -0.8720    2.9510   -6.0860 ca        1 S5B     -0.139000
     16 C13        -0.9090    4.2750   -5.6830 ca        1 S5B     -0.120000
     17 C14         0.2130    5.0780   -5.8860 ca        1 S5B     -0.101000
     18 C15         1.3290    4.5550   -6.5230 ca        1 S5B     -0.128000
     19 C16         1.3950    3.2260   -6.9920 ca        1 S5B      0.000700
     20 C17         2.6380    2.8160   -7.7520 c3        1 S5B     -0.019700
     21 C18         3.4240    4.0390   -8.2430 c3        1 S5B     -0.099100
     22 C19         3.5680    2.0330   -6.8310 c3        1 S5B     -0.099100
     23 C20         2.3050    1.9920   -8.9930 c3        1 S5B     -0.099100
     24 C21         1.4090   -1.0770   -7.2890 ca        1 S5B     -0.221900
     25 C22         2.2200   -2.1050   -6.6950 ca        1 S5B      0.444200
     26 N1          2.5680   -2.1440   -5.4290 nb        1 S5B     -0.645000
     27 C23         2.0950   -1.1450   -4.5950 ca        1 S5B      0.397600
     28 C24         2.4360   -1.2100   -3.2090 ca        1 S5B     -0.154300
     29 C1          1.0790   -1.2510   -8.7700 c         1 S5B      0.910200
     30 O02         1.5360   -2.2500   -9.3590 o         1 S5B     -0.765300
     31 O1          0.3460   -0.3610   -9.3250 o         1 S5B     -0.765300
     32 H011       -0.4150    0.0190   -0.6810 hc        1 S5B      0.059700
     33 H012       -0.4580    0.1190    1.1340 hc        1 S5B      0.059700
     34 H013        0.0620    1.5610    0.1630 hc        1 S5B      0.059700
     35 H041        5.6660   -0.8910   -0.2330 hc        1 S5B      0.072033
     36 H042        4.8220   -2.3260   -0.9590 hc        1 S5B      0.072033
     37 H043        4.9890   -0.7930   -1.9260 hc        1 S5B      0.072033
     38 H07         0.7530    1.5200   -2.0660 ha        1 S5B      0.143000
     39 H24         3.0780   -2.0370   -2.8600 ha        1 S5B      0.160000
     40 H08         0.1370    1.6870   -4.4240 ha        1 S5B      0.134000
     41 H02         0.2950    0.9070   -8.1810 hn        1 S5B      0.486300
     42 H12        -1.7640    2.3260   -5.9070 ha        1 S5B      0.143000
     43 H13        -1.8130    4.6830   -5.2050 ha        1 S5B      0.151000
     44 H14         0.2110    6.1260   -5.5480 ha        1 S5B      0.149000
     45 H15         2.1890    5.2310   -6.6560 ha        1 S5B      0.156000
     46 H181        2.7620    4.7310   -8.8140 hc        1 S5B      0.048700
     47 H182        4.2500    3.7020   -8.9180 hc        1 S5B      0.048700
     48 H183        3.8990    4.5850   -7.3930 hc        1 S5B      0.048700
     49 H191        3.8620    2.6580   -5.9530 hc        1 S5B      0.048700
     50 H192        3.0790    1.1030   -6.4580 hc        1 S5B      0.048700
     51 H193        4.4900    1.7460   -7.3920 hc        1 S5B      0.048700
     52 H201        2.3080    0.8960   -8.7700 hc        1 S5B      0.048700
     53 H202        3.0760    2.1510   -9.7870 hc        1 S5B      0.048700
     54 H203        1.3170    2.2830   -9.4240 hc        1 S5B      0.048700
     55 H22         2.5770   -2.9210   -7.3630 h4        1 S5B      0.078100
     56 H022       -0.8230    0.7120   -6.9320 hn        1 S5B      0.486300
@<TRIPOS>BOND
     1    1    2 1   
     2    1   32 1   
     3    1   33 1   
     4    1   34 1   
     5    2    3 2   
     6    2    7 1   
     7    3    4 1   
     8    4    5 1   
     9    5    6 1   
    10    5    7 2   
    11    6   35 1   
    12    6   36 1   
    13    6   37 1   
    14    7    8 1   
    15    8    9 ar  
    16    8   28 ar  
    17    9   10 ar  
    18    9   38 1   
    19   10   11 ar  
    20   10   40 1   
    21   11   12 ar  
    22   11   27 ar  
    23   12   13 1   
    24   12   24 ar  
    25   13   14 1   
    26   13   41 1   
    27   13   56 1   
    28   14   15 ar  
    29   14   19 ar  
    30   15   16 ar  
    31   15   42 1   
    32   16   17 ar  
    33   16   43 1   
    34   17   18 ar  
    35   17   44 1   
    36   18   19 ar  
    37   18   45 1   
    38   19   20 1   
    39   20   21 1   
    40   20   22 1   
    41   20   23 1   
    42   21   46 1   
    43   21   47 1   
    44   21   48 1   
    45   22   49 1   
    46   22   50 1   
    47   22   51 1   
    48   23   52 1   
    49   23   53 1   
    50   23   54 1   
    51   24   25 ar  
    52   24   29 1   
    53   25   26 ar  
    54   25   55 1   
    55   26   27 ar  
    56   27   28 ar  
    57   28   39 1   
    58   29   30 1   
    59   29   31 1   
@<TRIPOS>SUBSTRUCTURE
     1 S5B         1 TEMP              0 ****  ****    0 ROOT
