@<TRIPOS>MOLECULE
S5D
   57    57     1     0     0
SMALL
bcc


@<TRIPOS>ATOM
      1 C1         -0.3090    0.2280   -0.5940 c2        1 S5D      0.138000
      2 C2          1.1550    0.2320   -0.5430 c3        1 S5D     -0.198000
      3 C3          1.7280    1.4020    0.1680 c1        1 S5D      0.117000
      4 C4          1.0500    2.2090    1.0910 c2        1 S5D     -0.552000
      5 C5         -0.0900    2.0730    1.7550 c1        1 S5D      0.338000
      6 C6         -1.1040    0.0390    0.5390 c2        1 S5D     -0.317000
      7 N11         4.8190   -0.6910   -3.6280 n2        1 S5D     -0.169000
      8 C12         5.4730   -0.3410   -4.8940 c3        1 S5D     -0.134000
      9 N12         6.8340   -0.9990   -5.0100 n4        1 S5D     -0.038000
     10 C13         5.6380    1.1230   -5.2180 c1        1 S5D      0.042000
     11 C14         4.5470    1.9930   -4.7800 c3        1 S5D     -0.287000
     12 C15         3.5190    1.3710   -3.9360 c1        1 S5D      0.042000
     13 C16         3.9540    0.1780   -3.1810 c2        1 S5D     -0.053000
     14 C19         1.7820    0.1360   -1.9420 c3        1 S5D     -0.130000
     15 N21        -5.6490   -0.4760    2.4820 n3        1 S5D     -0.304000
     16 C22        -6.6230   -1.4190    2.3700 c2        1 S5D      0.282000
     17 N22        -7.4590   -1.7040    3.3930 n3        1 S5D     -0.292000
     18 C23        -6.7920   -2.1650    1.0920 c2        1 S5D     -0.109000
     19 C24        -6.0100   -1.8970    0.0130 c2        1 S5D     -0.055000
     20 C25        -4.9330   -0.9490    0.1180 c1        1 S5D     -0.027000
     21 C26        -4.8100   -0.1400    1.3400 c3        1 S5D     -0.063000
     22 C28        -3.3060   -0.0730    1.7070 c3        1 S5D     -0.177000
     23 C29        -2.4800    0.1590    0.5090 c2        1 S5D      0.177000
     24 N29        -5.7830    1.0020    4.9250 n3        1 S5D     -0.438000
     25 H1         -0.7850    0.4650   -1.5700 ha        1 S5D      0.180000
     26 H3          1.5390   -0.6500    0.0770 hc        1 S5D      0.210000
     27 H4          1.6490    3.1310    1.3720 ha        1 S5D      0.279000
     28 H5         -0.6170   -0.2740    1.4870 ha        1 S5D      0.183000
     29 HN12        7.4100   -0.7900   -4.1870 hn        1 S5D      0.272667
     30 HN1A        6.7330   -2.0160   -5.0950 hn        1 S5D      0.272667
     31 H13         4.8460   -0.7760   -5.7540 hx        1 S5D      0.198000
     32 H15         5.0270    2.8440   -4.1730 hc        1 S5D      0.243000
     33 H17         3.3970    1.9320   -6.6430 hc        1 S5D      0.118000
     34 H17A        4.7170    3.1890   -6.6000 hc        1 S5D      0.118000
     35 H17B        3.1780    3.4370   -5.6510 hc        1 S5D      0.118000
     36 H19         1.5210    1.0500   -2.5400 hc        1 S5D      0.121000
     37 H19A        1.3530   -0.7580   -2.4670 hc        1 S5D      0.121000
     38 HN22       -8.1670   -2.4010    3.2740 hn        1 S5D      0.286000
     39 HN2A       -5.5630    0.0980    3.3400 hn        1 S5D      0.319000
     40 H23        -7.5860   -2.9370    1.0570 ha        1 S5D      0.204000
     41 H25        -5.1250    0.9110    0.9940 h1        1 S5D      0.191000
     42 H28        -3.1270    0.7670    2.4430 hc        1 S5D      0.169000
     43 H28A       -2.9850   -1.0230    2.2240 hc        1 S5D      0.169000
     44 H29        -3.0090    0.4360   -0.4310 ha        1 S5D      0.196000
     45 HN29       -5.3960    0.4990    5.7010 hn        1 S5D      0.165667
     46 HN2B       -5.3010    1.8760    4.8450 hn        1 S5D      0.165667
     47 C18         3.2910    0.0010   -1.8400 c3        1 S5D     -0.120000
     48 H18         3.5570   -0.9910   -1.3840 hc        1 S5D      0.138500
     49 H18A        3.6960    0.8060   -1.1610 hc        1 S5D      0.138500
     50 H123        7.2950   -0.6100   -5.8450 hn        1 S5D      0.272667
     51 H223       -7.4150   -1.2320    4.2720 hn        1 S5D      0.286000
     52 H293       -6.7460    1.1950    5.1220 hn        1 S5D      0.165667
     53 C27        -6.1970   -2.5800   -1.2850 c3        1 S5D     -0.198000
     54 C17         3.9210    2.6810   -6.0030 c3        1 S5D     -0.163000
     55 H27        -6.4300   -1.8230   -2.0790 hc        1 S5D      0.129333
     56 H27A       -5.2510   -3.1040   -1.5810 hc        1 S5D      0.129333
     57 H27B       -7.0270   -3.3280   -1.2490 hc        1 S5D      0.129333
@<TRIPOS>BOND
     1    1    2 1   
     2    1    6 1   
     3    1   25 1   
     4    2    3 1   
     5    2   14 1   
     6    2   26 1   
     7    3    4 1   
     8    4    5 1   
     9    4   27 1   
    10    6   23 1   
    11    6   28 1   
    12    7    8 1   
    13    7   13 1   
    14    8    9 1   
    15    8   10 1   
    16    8   31 1   
    17    9   29 1   
    18    9   30 1   
    19    9   50 1   
    20   10   11 1   
    21   11   12 1   
    22   11   32 1   
    23   11   54 1   
    24   12   13 1   
    25   13   47 1   
    26   14   36 1   
    27   14   37 1   
    28   14   47 1   
    29   15   16 1   
    30   15   21 1   
    31   15   39 1   
    32   16   17 1   
    33   16   18 1   
    34   17   38 1   
    35   17   51 1   
    36   18   19 1   
    37   18   40 1   
    38   19   20 1   
    39   19   53 1   
    40   20   21 1   
    41   21   22 1   
    42   21   41 1   
    43   22   23 1   
    44   22   42 1   
    45   22   43 1   
    46   23   44 1   
    47   24   45 1   
    48   24   46 1   
    49   24   52 1   
    50   33   54 1   
    51   34   54 1   
    52   35   54 1   
    53   47   48 1   
    54   47   49 1   
    55   53   55 1   
    56   53   56 1   
    57   53   57 1   
@<TRIPOS>SUBSTRUCTURE
     1 S5D         1 TEMP              0 ****  ****    0 ROOT
