@<TRIPOS>MOLECULE
S5D
   55    55     1     0     0
SMALL
bcc


@<TRIPOS>ATOM
      1 C1          0.5780    0.3610   -0.0630 c2        1 S5D      0.122000
      2 C2          2.0050    0.4580    0.3180 c3        1 S5D     -0.211000
      3 C3          2.3850    1.6190    1.1460 c1        1 S5D      0.082000
      4 C4          1.4180    2.4880    1.7150 c2        1 S5D     -0.526000
      5 C5          0.1420    2.3050    2.0030 c1        1 S5D      0.235000
      6 C6         -0.4190    0.1980    0.8650 c2        1 S5D     -0.379000
      7 N11         5.1230    1.3580   -2.7910 n7        1 S5D     -0.312000
      8 C12         5.9800    1.3700   -3.9300 c2        1 S5D      0.111000
      9 N12         7.2610    1.5550   -3.9100 n2        1 S5D     -0.280000
     10 C13         5.3130    1.0390   -5.2620 c3        1 S5D     -0.088000
     11 C14         3.9180    1.5510   -5.3850 c2        1 S5D     -0.075000
     12 C15         3.1510    1.6460   -4.1580 c2        1 S5D     -0.198000
     13 C16         3.7490    1.5730   -2.9400 c2        1 S5D      0.020000
     14 C19         2.9310    0.3940   -0.9020 c3        1 S5D     -0.128000
     15 N21        -4.8880   -1.7340    1.2560 n2        1 S5D     -0.275000
     16 C22        -5.8240   -1.1330    2.0550 c2        1 S5D      0.063000
     17 N22        -5.3560   -0.1270    2.9560 nv        1 S5D     -0.336000
     18 C23        -7.2030   -1.4380    1.9530 c2        1 S5D     -0.209000
     19 C24        -7.6250   -2.3890    1.0160 c2        1 S5D      0.026000
     20 C25        -6.6630   -3.0110    0.2130 c2        1 S5D     -0.190000
     21 C26        -5.3060   -2.6540    0.3590 c2        1 S5D      0.041000
     22 C28        -4.3010   -3.3370   -0.5150 c3        1 S5D     -0.185000
     23 C29        -1.7560    0.2840    0.4140 c1        1 S5D      0.051000
     24 N29        -2.8410    0.1910    1.3430 nz        1 S5D     -0.109000
     25 H1          0.3250    0.4900   -1.1360 ha        1 S5D      0.179000
     26 H3          2.2680   -0.4330    0.9840 hc        1 S5D      0.189000
     27 H4          1.8730    3.4610    2.0490 ha        1 S5D      0.249000
     28 H5         -0.1600   -0.0230    1.9210 ha        1 S5D      0.143000
     29 HN12        7.6920    1.7430   -3.0310 hn        1 S5D      0.148000
     30 HN1A        5.5120    1.6450   -1.9190 hn        1 S5D      0.214000
     31 H13         5.2980   -0.0840   -5.3510 hc        1 S5D      0.124500
     32 H15         2.0660    1.7930   -4.2460 ha        1 S5D      0.134000
     33 H17         5.9460    1.4360   -6.1030 hc        1 S5D      0.124500
     34 H17A        3.9810    1.8140   -7.5060 ha        1 S5D      0.120500
     35 H17B        2.3640    2.2210   -6.6910 ha        1 S5D      0.120500
     36 H19         2.6110   -0.4550   -1.5620 hc        1 S5D      0.116500
     37 H19A        3.9690    0.1720   -0.5360 hc        1 S5D      0.116500
     38 HN22       -6.1280    0.3640    3.3660 hn        1 S5D      0.185000
     39 HN2A       -4.7770   -0.5200    3.6750 hn        1 S5D      0.185000
     40 H23        -7.9410   -0.9350    2.5950 ha        1 S5D      0.159000
     41 H25        -6.9530   -3.7680   -0.5290 ha        1 S5D      0.165000
     42 H28        -3.3810   -0.7080    1.1370 hn        1 S5D      0.265333
     43 H28A       -4.6770   -3.3580   -1.5680 hc        1 S5D      0.103000
     44 H29        -3.3060   -2.8310   -0.5030 hc        1 S5D      0.103000
     45 HN29       -2.6120    0.2060    2.3410 hn        1 S5D      0.265333
     46 HN2B       -3.4880    0.9650    1.1390 hn        1 S5D      0.265333
     47 C18         2.9330    1.6930   -1.6830 c3        1 S5D     -0.136000
     48 H18         3.3400    2.5180   -1.0340 hc        1 S5D      0.097000
     49 H18A        1.8830    1.9760   -1.9630 hc        1 S5D      0.097000
     50 H293       -4.1680   -4.3910   -0.1620 hc        1 S5D      0.103000
     51 C27        -9.0570   -2.7400    0.8950 c3        1 S5D     -0.202000
     52 C17         3.3990    1.8750   -6.5780 c2        1 S5D     -0.203000
     53 H27        -9.3060   -3.5610    1.6170 hc        1 S5D      0.106667
     54 H27A       -9.7070   -1.8610    1.1270 hc        1 S5D      0.106667
     55 H27B       -9.2970   -3.0980   -0.1370 hc        1 S5D      0.106667
@<TRIPOS>BOND
     1    1    2 1   
     2    1    6 1   
     3    1   25 1   
     4    2    3 1   
     5    2   14 1   
     6    2   26 1   
     7    3    4 1   
     8    4    5 1   
     9    4   27 1   
    10    6   23 1   
    11    6   28 1   
    12    7    8 1   
    13    7   13 1   
    14    7   30 1   
    15    8    9 1   
    16    8   10 1   
    17    9   29 1   
    18   10   11 1   
    19   10   31 1   
    20   10   33 1   
    21   11   12 1   
    22   11   52 1   
    23   12   13 1   
    24   12   32 1   
    25   13   47 1   
    26   14   36 1   
    27   14   37 1   
    28   14   47 1   
    29   15   16 1   
    30   15   21 1   
    31   16   17 1   
    32   16   18 1   
    33   17   38 1   
    34   17   39 1   
    35   18   19 1   
    36   18   40 1   
    37   19   20 1   
    38   19   51 1   
    39   20   21 1   
    40   20   41 1   
    41   21   22 1   
    42   22   43 1   
    43   22   44 1   
    44   22   50 1   
    45   23   24 1   
    46   24   42 1   
    47   24   45 1   
    48   24   46 1   
    49   34   52 1   
    50   35   52 1   
    51   47   48 1   
    52   47   49 1   
    53   51   53 1   
    54   51   54 1   
    55   51   55 1   
@<TRIPOS>SUBSTRUCTURE
     1 S5D         1 TEMP              0 ****  ****    0 ROOT
