@<TRIPOS>MOLECULE
S5D
   55    56     1     0     0
SMALL
bcc


@<TRIPOS>ATOM
      1 C1          0.4880   -0.5610   -0.2450 c2        1 S5D     -0.112000
      2 C2          1.9480   -0.7330    0.0030 c3        1 S5D     -0.179000
      3 C3          2.4940    0.1160    1.0810 c1        1 S5D      0.054000
      4 C4          1.5700    0.8190    1.9140 c2        1 S5D     -0.521000
      5 C5          0.2470    0.7810    1.9000 c1        1 S5D      0.210000
      6 C6         -0.4610   -1.1000    0.5480 c2        1 S5D     -0.168000
      7 N11         4.6410    0.3960   -3.3110 n2        1 S5D     -0.249000
      8 C12         5.1980    0.5710   -4.4980 c2        1 S5D      0.125000
      9 N12         6.2670   -0.2310   -4.8920 n3        1 S5D     -0.345000
     10 C13         4.7210    1.5680   -5.5450 c3        1 S5D     -0.140000
     11 C14         3.4820    2.3040   -5.1560 c2        1 S5D     -0.061000
     12 C15         2.9280    2.0450   -3.8430 c2        1 S5D     -0.215000
     13 C16         3.5000    1.1430   -2.9970 c2        1 S5D      0.013000
     14 C19         2.7650   -0.5330   -1.2760 c3        1 S5D     -0.113000
     15 N21        -5.1610   -1.1970    1.9560 n3        1 S5D     -0.153000
     16 C22        -6.3890   -0.4660    1.7000 c2        1 S5D      0.219000
     17 N22        -6.6810    0.6970    2.2460 n3        1 S5D     -0.226000
     18 C23        -7.2560   -1.2510    0.7860 c2        1 S5D     -0.269000
     19 C24        -6.5800   -2.3730    0.3880 c2        1 S5D      0.067000
     20 C25        -5.2490   -2.4090    1.0830 cx        1 S5D     -0.138000
     21 C26        -4.2520   -1.3160    0.7790 cx        1 S5D      0.013000
     22 C28        -2.8230   -1.5140    1.0470 c2        1 S5D     -0.202000
     23 C29        -1.8760   -0.9070    0.3100 c2        1 S5D     -0.030000
     24 N29        -4.9400    2.0950    3.9690 n3        1 S5D     -0.422000
     25 H1          0.2170    0.0560   -1.1200 ha        1 S5D      0.144000
     26 H3          2.1450   -1.7950    0.3610 hc        1 S5D      0.155000
     27 H4          2.0720    1.4690    2.6710 ha        1 S5D      0.219000
     28 H5         -0.1900   -1.7550    1.3960 ha        1 S5D      0.145000
     29 HN12        6.8650    0.1570   -5.5820 hn        1 S5D      0.214500
     30 HN1A        6.7120   -0.7870   -4.1980 hn        1 S5D      0.214500
     31 H13         4.5360    1.0220   -6.5110 hc        1 S5D      0.115500
     32 H15         2.0320    2.6120   -3.5550 ha        1 S5D      0.131000
     33 H17         5.5450    2.3120   -5.7300 hc        1 S5D      0.115500
     34 H17A        3.3350    3.3760   -7.0020 ha        1 S5D      0.117000
     35 H17B        2.0140    3.7400   -5.7510 ha        1 S5D      0.117000
     36 H19         3.7790   -0.9870   -1.1190 hc        1 S5D      0.108000
     37 H19A        2.2670   -1.0830   -2.1160 hc        1 S5D      0.108000
     38 HN22       -7.5810    1.0980    2.0820 hn        1 S5D      0.295500
     39 HN2A       -6.0230    1.2040    2.8770 hn        1 S5D      0.295500
     40 H23        -8.2620   -0.9390    0.5000 ha        1 S5D      0.194000
     41 H25        -4.9280   -3.3850    1.5040 h1        1 S5D      0.206000
     42 H28        -2.5640   -2.1870    1.8810 ha        1 S5D      0.157000
     43 H28A       -4.4510   -0.6510   -0.0990 h1        1 S5D      0.142000
     44 H29        -2.1440   -0.2280   -0.5200 ha        1 S5D      0.130000
     45 HN29       -5.3580    2.1780    4.8730 hn        1 S5D      0.164667
     46 HN2B       -4.0870    1.5790    4.0510 hn        1 S5D      0.164667
     47 C18         2.9210    0.9330   -1.6260 c3        1 S5D     -0.113000
     48 H18         1.9250    1.4490   -1.5750 hc        1 S5D      0.093000
     49 H18A        3.5950    1.4200   -0.8670 hc        1 S5D      0.093000
     50 H293       -4.7360    3.0090    3.6180 hn        1 S5D      0.164667
     51 C27        -7.0190   -3.4330   -0.5160 c3        1 S5D     -0.210000
     52 C17         2.9190    3.1770   -6.0070 c2        1 S5D     -0.225000
     53 H27        -8.0070   -3.1920   -0.9830 hc        1 S5D      0.128333
     54 H27A       -7.1170   -4.3990    0.0480 hc        1 S5D      0.128333
     55 H27B       -6.2630   -3.5880   -1.3310 hc        1 S5D      0.128333
@<TRIPOS>BOND
     1    1    2 1   
     2    1    6 1   
     3    1   25 1   
     4    2    3 1   
     5    2   14 1   
     6    2   26 1   
     7    3    4 1   
     8    4    5 1   
     9    4   27 1   
    10    6   23 1   
    11    6   28 1   
    12    7    8 1   
    13    7   13 1   
    14    8    9 1   
    15    8   10 1   
    16    9   29 1   
    17    9   30 1   
    18   10   11 1   
    19   10   31 1   
    20   10   33 1   
    21   11   12 1   
    22   11   52 1   
    23   12   13 1   
    24   12   32 1   
    25   13   47 1   
    26   14   36 1   
    27   14   37 1   
    28   14   47 1   
    29   15   16 1   
    30   15   20 1   
    31   15   21 1   
    32   16   17 1   
    33   16   18 1   
    34   17   38 1   
    35   17   39 1   
    36   18   19 1   
    37   18   40 1   
    38   19   20 1   
    39   19   51 1   
    40   20   21 1   
    41   20   41 1   
    42   21   22 1   
    43   21   43 1   
    44   22   23 1   
    45   22   42 1   
    46   23   44 1   
    47   24   45 1   
    48   24   46 1   
    49   24   50 1   
    50   34   52 1   
    51   35   52 1   
    52   47   48 1   
    53   47   49 1   
    54   51   53 1   
    55   51   54 1   
    56   51   55 1   
@<TRIPOS>SUBSTRUCTURE
     1 S5D         1 TEMP              0 ****  ****    0 ROOT
