@<TRIPOS>MOLECULE
S5H
   67    70     1     0     0
SMALL
bcc


@<TRIPOS>ATOM
      1 C1          0.0710   -0.1630   -0.3740 c3        1 S5H     -0.067400
      2 C2          1.5560    0.1070   -0.2680 c3        1 S5H     -0.103400
      3 C3          1.9980    0.2540    1.1830 c3        1 S5H      0.152100
      4 O3          3.4300    0.2940    1.2490 os        1 S5H     -0.455900
      5 C4          1.5740   -0.9490    2.0200 c3        1 S5H     -0.076400
      6 C5          0.0750   -1.1560    1.9030 c3        1 S5H     -0.053700
      7 C6         -0.3910   -2.2780    2.8150 c3        1 S5H     -0.073400
      8 C7         -1.9010   -2.3800    2.8010 c3        1 S5H     -0.071400
      9 C8         -2.4270   -2.5660    1.3870 c3        1 S5H     -0.048700
     10 C9         -1.9230   -1.4450    0.4610 c3        1 S5H     -0.049700
     11 C10        -0.3810   -1.3780    0.4470 c3        1 S5H     -0.037000
     12 C11        -2.5210   -1.5560   -0.9360 c3        1 S5H     -0.074400
     13 C12        -4.0380   -1.6730   -0.9460 c3        1 S5H     -0.066400
     14 C13        -4.4970   -2.8120   -0.0510 c3        1 S5H     -0.039000
     15 C14        -3.9420   -2.5320    1.3660 c3        1 S5H     -0.060700
     16 C15        -4.7310   -3.4720    2.2660 c3        1 S5H     -0.073400
     17 C16        -6.1170   -3.5510    1.6180 c3        1 S5H     -0.075400
     18 C17        -6.0160   -2.8760    0.2380 c3        1 S5H     -0.163700
     19 C18        -4.0510   -4.1490   -0.6210 c3        1 S5H     -0.090100
     20 C19         0.2240   -2.6350   -0.1580 c3        1 S5H     -0.085100
     21 C20        -6.8080   -3.5780   -0.8320 c         1 S5H      0.579100
     22 O20        -7.3160   -4.6930   -0.6710 o         1 S5H     -0.542100
     23 C21        -6.9720   -2.8310   -2.1200 c3        1 S5H     -0.202100
     24 CH1         4.0550    1.5060    1.0520 c         1 S5H      0.639100
     25 OH1         3.3340    2.4710    0.7810 o         1 S5H     -0.576000
     26 CH2         5.5400    1.4120    1.1880 c3        1 S5H     -0.108400
     27 CH3         6.0670    2.3330    2.2620 c3        1 S5H     -0.201400
     28 CH4         7.6090    2.3970    2.2090 c         1 S5H      0.913600
     29 OH4         8.1820    2.1590    1.1070 o         1 S5H     -0.843300
     30 OH5         8.2100    2.6980    3.2770 o         1 S5H     -0.843300
     31 H11        -0.4960    0.7410   -0.0270 hc        1 S5H      0.037200
     32 H12        -0.1830   -0.3300   -1.4540 hc        1 S5H      0.037200
     33 H21         2.1370   -0.7220   -0.7490 hc        1 S5H      0.056700
     34 H22         1.8070    1.0560   -0.8120 hc        1 S5H      0.056700
     35 H3          1.5740    1.2020    1.6170 h1        1 S5H      0.064700
     36 H41         1.8490   -0.7650    3.0910 hc        1 S5H      0.054200
     37 H42         2.1350   -1.8600    1.6870 hc        1 S5H      0.054200
     38 H5         -0.4220   -0.2030    2.2550 hc        1 S5H      0.045700
     39 H61        -0.0400   -2.0760    3.8610 hc        1 S5H      0.043200
     40 H62         0.0660   -3.2490    2.4910 hc        1 S5H      0.043200
     41 H71        -2.2300   -3.2460    3.4330 hc        1 S5H      0.037200
     42 H72        -2.3440   -1.4510    3.2480 hc        1 S5H      0.037200
     43 H8         -2.0690   -3.5610    1.0060 hc        1 S5H      0.055700
     44 H9         -2.2860   -0.4680    0.8990 hc        1 S5H      0.044700
     45 H111       -2.0810   -2.4410   -1.4650 hc        1 S5H      0.044700
     46 H112       -2.2400   -0.6420   -1.5240 hc        1 S5H      0.044700
     47 H121       -4.3890   -1.8450   -1.9970 hc        1 S5H      0.036700
     48 H122       -4.4920   -0.7110   -0.5920 hc        1 S5H      0.036700
     49 H14        -4.2510   -1.4800    1.6440 hc        1 S5H      0.045700
     50 H151       -4.2530   -4.4810    2.3070 hc        1 S5H      0.045200
     51 H152       -4.7900   -3.0790    3.3090 hc        1 S5H      0.045200
     52 H161       -6.8790   -3.0260    2.2440 hc        1 S5H      0.053700
     53 H162       -6.4390   -4.6170    1.5060 hc        1 S5H      0.053700
     54 H17        -6.4100   -1.8250    0.3140 hc        1 S5H      0.064700
     55 H181       -4.5030   -4.2990   -1.6320 hc        1 S5H      0.040700
     56 H182       -4.3860   -4.9830    0.0430 hc        1 S5H      0.040700
     57 H183       -2.9420   -4.2010   -0.7250 hc        1 S5H      0.040700
     58 H191        1.3360   -2.6200   -0.0620 hc        1 S5H      0.035700
     59 H192       -0.1550   -3.5540    0.3490 hc        1 S5H      0.035700
     60 H193       -0.0260   -2.7020   -1.2440 hc        1 S5H      0.035700
     61 H211       -6.1670   -3.1490   -2.8290 hc        1 S5H      0.062033
     62 H212       -6.8910   -1.7290   -1.9620 hc        1 S5H      0.062033
     63 H213       -7.9620   -3.0660   -2.5820 hc        1 S5H      0.062033
     64 HH21        5.8370    0.3540    1.4110 hc        1 S5H      0.087200
     65 HH22        6.0060    1.7000    0.2040 hc        1 S5H      0.087200
     66 HH31        5.6740    3.3700    2.1110 hc        1 S5H      0.036700
     67 HH32        5.7500    1.9830    3.2750 hc        1 S5H      0.036700
@<TRIPOS>BOND
     1    1    2 1   
     2    1   11 1   
     3    1   31 1   
     4    1   32 1   
     5    2    3 1   
     6    2   33 1   
     7    2   34 1   
     8    3    4 1   
     9    3    5 1   
    10    3   35 1   
    11    4   24 1   
    12    5    6 1   
    13    5   36 1   
    14    5   37 1   
    15    6    7 1   
    16    6   11 1   
    17    6   38 1   
    18    7    8 1   
    19    7   39 1   
    20    7   40 1   
    21    8    9 1   
    22    8   41 1   
    23    8   42 1   
    24    9   10 1   
    25    9   15 1   
    26    9   43 1   
    27   10   11 1   
    28   10   12 1   
    29   10   44 1   
    30   11   20 1   
    31   12   13 1   
    32   12   45 1   
    33   12   46 1   
    34   13   14 1   
    35   13   47 1   
    36   13   48 1   
    37   14   15 1   
    38   14   18 1   
    39   14   19 1   
    40   15   16 1   
    41   15   49 1   
    42   16   17 1   
    43   16   50 1   
    44   16   51 1   
    45   17   18 1   
    46   17   52 1   
    47   17   53 1   
    48   18   21 1   
    49   18   54 1   
    50   19   55 1   
    51   19   56 1   
    52   19   57 1   
    53   20   58 1   
    54   20   59 1   
    55   20   60 1   
    56   21   22 2   
    57   21   23 1   
    58   23   61 1   
    59   23   62 1   
    60   23   63 1   
    61   24   25 2   
    62   24   26 1   
    63   26   27 1   
    64   26   64 1   
    65   26   65 1   
    66   27   28 1   
    67   27   66 1   
    68   27   67 1   
    69   28   29 1   
    70   28   30 1   
@<TRIPOS>SUBSTRUCTURE
     1 S5H         1 TEMP              0 ****  ****    0 ROOT
