@<TRIPOS>MOLECULE
S5H
   67    70     1     0     0
SMALL
bcc


@<TRIPOS>ATOM
      1 C1          1.5490    0.0790    0.3240 c3        1 S5H     -0.067400
      2 C2          2.0440   -1.2190    1.0630 c3        1 S5H     -0.103400
      3 C3          1.5620   -1.2180    2.5080 c3        1 S5H      0.152100
      4 O3          1.9120   -2.4250    3.1170 os        1 S5H     -0.455900
      5 C4          0.0400   -1.0530    2.5410 c3        1 S5H     -0.077400
      6 C5         -0.3530    0.2550    1.8160 c3        1 S5H     -0.050700
      7 C6         -1.8760    0.4680    1.9210 c3        1 S5H     -0.072400
      8 C7         -2.5380    0.3340    0.4860 c3        1 S5H     -0.068400
      9 C8         -2.0040    1.3790   -0.4390 c3        1 S5H     -0.043700
     10 C9         -0.4960    1.4350   -0.3230 c3        1 S5H     -0.049700
     11 C10         0.0180    0.1640    0.4350 c3        1 S5H     -0.034000
     12 C11         0.0900    1.4830   -1.6430 c3        1 S5H     -0.068400
     13 C12        -0.5570    2.5410   -2.3930 c3        1 S5H     -0.072400
     14 C13        -1.8030    2.0340   -2.9410 c3        1 S5H     -0.028000
     15 C14        -2.4300    1.0230   -1.9600 c3        1 S5H     -0.049700
     16 C15        -1.9780   -0.2680   -2.2930 c3        1 S5H     -0.075400
     17 C16        -1.5230   -0.1990   -3.8150 c3        1 S5H     -0.077400
     18 C17        -1.5280    1.3280   -4.2610 c3        1 S5H     -0.164700
     19 C18        -2.7510    3.1720   -3.1680 c3        1 S5H     -0.090100
     20 C19        -0.6240   -1.1230   -0.1960 c3        1 S5H     -0.085100
     21 C20        -0.2720    1.7740   -4.9520 c         1 S5H      0.577100
     22 O20         0.8050    1.5560   -4.4450 o         1 S5H     -0.541100
     23 C21        -0.3480    2.3850   -6.3720 c3        1 S5H     -0.203100
     24 CH1         2.7920   -2.2720    4.2480 c         1 S5H      0.639100
     25 OH1         3.4620   -1.2660    4.3630 o         1 S5H     -0.576000
     26 CH2         2.9070   -3.3900    5.2900 c3        1 S5H     -0.109400
     27 CH3         4.1140   -3.1450    6.1550 c3        1 S5H     -0.201400
     28 CH4         4.2280   -4.2350    7.1780 c         1 S5H      0.913600
     29 OH4         3.6960   -4.0970    8.2980 o         1 S5H     -0.843300
     30 OH5         4.9290   -5.2510    6.9360 o         1 S5H     -0.843300
     31 H11         1.8050    0.0370   -0.6120 hc        1 S5H      0.037200
     32 H12         1.9570    0.8760    0.7430 hc        1 S5H      0.037200
     33 H21         1.6900   -2.0100    0.6030 hc        1 S5H      0.060200
     34 H22         3.0410   -1.2480    1.0480 hc        1 S5H      0.060200
     35 H3          1.9820   -0.4740    2.9920 h1        1 S5H      0.061700
     36 H41        -0.2700   -1.0140    3.4870 hc        1 S5H      0.052200
     37 H42        -0.3800   -1.8140    2.0920 hc        1 S5H      0.052200
     38 H5          0.1110    1.0110    2.2300 hc        1 S5H      0.044700
     39 H61        -2.2550   -0.2020    2.5160 hc        1 S5H      0.039700
     40 H62        -2.0580    1.3720    2.2850 hc        1 S5H      0.039700
     41 H71        -3.5030    0.4390    0.5660 hc        1 S5H      0.036700
     42 H72        -2.3400   -0.5530    0.1200 hc        1 S5H      0.036700
     43 H8         -2.3800    2.2480   -0.1940 hc        1 S5H      0.041700
     44 H9         -0.2360    2.2430    0.1800 hc        1 S5H      0.041700
     45 H111       -0.0460    0.6350   -2.0920 hc        1 S5H      0.045700
     46 H112        1.0550    1.6700   -1.5700 hc        1 S5H      0.045700
     47 H121        0.0310    2.8320   -3.1240 hc        1 S5H      0.041700
     48 H122       -0.7430    3.2950   -1.8020 hc        1 S5H      0.041700
     49 H14        -3.4050    1.0550   -2.0390 hc        1 S5H      0.037700
     50 H151       -1.2230   -0.5140   -1.7290 hc        1 S5H      0.046200
     51 H152       -2.7070   -0.9190   -2.1880 hc        1 S5H      0.046200
     52 H161       -0.6250   -0.5670   -3.9070 hc        1 S5H      0.053700
     53 H162       -2.1560   -0.7130   -4.3770 hc        1 S5H      0.053700
     54 H17        -2.2160    1.5200   -4.9410 hc        1 S5H      0.061700
     55 H181       -3.6000    2.8240   -3.5320 hc        1 S5H      0.036367
     56 H182       -2.3550    3.8070   -3.8070 hc        1 S5H      0.036367
     57 H183       -2.9230    3.6300   -2.3150 hc        1 S5H      0.036367
     58 H191       -0.0940   -1.4060   -0.9730 hc        1 S5H      0.036033
     59 H192       -0.6360   -1.8500    0.4770 hc        1 S5H      0.036033
     60 H193       -1.5470   -0.9240   -0.4820 hc        1 S5H      0.036033
     61 H211        0.5650    2.5330   -6.7160 hc        1 S5H      0.062700
     62 H212       -0.8260    3.2400   -6.3360 hc        1 S5H      0.062700
     63 H213       -0.8260    1.7680   -6.9690 hc        1 S5H      0.062700
     64 HH21        2.1080   -3.4000    5.8440 hc        1 S5H      0.086700
     65 HH22        3.0000   -4.2540    4.8340 hc        1 S5H      0.086700
     66 HH31        4.0210   -2.2840    6.6060 hc        1 S5H      0.036700
     67 HH32        4.9140   -3.1360    5.6000 hc        1 S5H      0.036700
@<TRIPOS>BOND
     1    1    2 1   
     2    1   11 1   
     3    1   31 1   
     4    1   32 1   
     5    2    3 1   
     6    2   33 1   
     7    2   34 1   
     8    3    4 1   
     9    3    5 1   
    10    3   35 1   
    11    4   24 1   
    12    5    6 1   
    13    5   36 1   
    14    5   37 1   
    15    6    7 1   
    16    6   11 1   
    17    6   38 1   
    18    7    8 1   
    19    7   39 1   
    20    7   40 1   
    21    8    9 1   
    22    8   41 1   
    23    8   42 1   
    24    9   10 1   
    25    9   15 1   
    26    9   43 1   
    27   10   11 1   
    28   10   12 1   
    29   10   44 1   
    30   11   20 1   
    31   12   13 1   
    32   12   45 1   
    33   12   46 1   
    34   13   14 1   
    35   13   47 1   
    36   13   48 1   
    37   14   15 1   
    38   14   18 1   
    39   14   19 1   
    40   15   16 1   
    41   15   49 1   
    42   16   17 1   
    43   16   50 1   
    44   16   51 1   
    45   17   18 1   
    46   17   52 1   
    47   17   53 1   
    48   18   21 1   
    49   18   54 1   
    50   19   55 1   
    51   19   56 1   
    52   19   57 1   
    53   20   58 1   
    54   20   59 1   
    55   20   60 1   
    56   21   22 2   
    57   21   23 1   
    58   23   61 1   
    59   23   62 1   
    60   23   63 1   
    61   24   25 2   
    62   24   26 1   
    63   26   27 1   
    64   26   64 1   
    65   26   65 1   
    66   27   28 1   
    67   27   66 1   
    68   27   67 1   
    69   28   29 1   
    70   28   30 1   
@<TRIPOS>SUBSTRUCTURE
     1 S5H         1 TEMP              0 ****  ****    0 ROOT
