@<TRIPOS>MOLECULE
S5H
   67    70     1     0     0
SMALL
bcc


@<TRIPOS>ATOM
      1 C1          0.0780   -0.1750   -0.3810 c3        1 S5H     -0.067400
      2 C2          1.5620    0.0950   -0.2700 c3        1 S5H     -0.103400
      3 C3          1.9980    0.2570    1.1810 c3        1 S5H      0.152100
      4 O3          3.4290    0.2970    1.2530 os        1 S5H     -0.455900
      5 C4          1.5690   -0.9370    2.0290 c3        1 S5H     -0.076400
      6 C5          0.0710   -1.1430    1.9080 c3        1 S5H     -0.053700
      7 C6         -0.4000   -2.2550    2.8290 c3        1 S5H     -0.073400
      8 C7         -1.9100   -2.3560    2.8090 c3        1 S5H     -0.071400
      9 C8         -2.4310   -2.5570    1.3950 c3        1 S5H     -0.048700
     10 C9         -1.9210   -1.4460    0.4600 c3        1 S5H     -0.049700
     11 C10        -0.3790   -1.3810    0.4520 c3        1 S5H     -0.037000
     12 C11        -2.5130   -1.5730   -0.9390 c3        1 S5H     -0.074400
     13 C12        -4.0290   -1.6880   -0.9560 c3        1 S5H     -0.066400
     14 C13        -4.4940   -2.8170   -0.0510 c3        1 S5H     -0.039000
     15 C14        -3.9450   -2.5220    1.3660 c3        1 S5H     -0.060700
     16 C15        -4.7390   -3.4510    2.2730 c3        1 S5H     -0.073400
     17 C16        -6.1220   -3.5370    1.6190 c3        1 S5H     -0.075400
     18 C17        -6.0140   -2.8760    0.2330 c3        1 S5H     -0.163700
     19 C18        -4.0470   -4.1610   -0.6030 c3        1 S5H     -0.090100
     20 C19         0.2270   -2.6450   -0.1360 c3        1 S5H     -0.085100
     21 C20        -6.8020   -3.5890   -0.8330 c         1 S5H      0.579100
     22 O20        -7.3120   -4.7020   -0.6630 o         1 S5H     -0.542100
     23 C21        -6.9600   -2.8560   -2.1300 c3        1 S5H     -0.202100
     24 CH1         4.0570    1.5060    1.0450 c         1 S5H      0.639100
     25 OH1         3.3380    2.4680    0.7600 o         1 S5H     -0.576000
     26 CH2         5.5410    1.4120    1.1890 c3        1 S5H     -0.108400
     27 CH3         6.0650    2.3480    2.2510 c3        1 S5H     -0.201400
     28 CH4         7.6070    2.4100    2.2030 c         1 S5H      0.913600
     29 OH4         8.1840    2.1560    1.1070 o         1 S5H     -0.843300
     30 OH5         8.2050    2.7250    3.2690 o         1 S5H     -0.843300
     31 H11        -0.4900    0.7330   -0.0460 hc        1 S5H      0.037200
     32 H12        -0.1710   -0.3540   -1.4600 hc        1 S5H      0.037200
     33 H21         2.1450   -0.7400   -0.7390 hc        1 S5H      0.056700
     34 H22         1.8170    1.0370   -0.8240 hc        1 S5H      0.056700
     35 H3          1.5730    1.2100    1.6020 h1        1 S5H      0.064700
     36 H41         2.1310   -1.8510    1.7080 hc        1 S5H      0.054200
     37 H42         1.8390   -0.7410    3.0990 hc        1 S5H      0.054200
     38 H5         -0.4270   -0.1860    2.2470 hc        1 S5H      0.045700
     39 H61        -0.0540   -2.0430    3.8750 hc        1 S5H      0.043200
     40 H62         0.0570   -3.2300    2.5180 hc        1 S5H      0.043200
     41 H71        -2.3550   -1.4220    3.2440 hc        1 S5H      0.037200
     42 H72        -2.2440   -3.2150    3.4490 hc        1 S5H      0.037200
     43 H8         -2.0710   -3.5560    1.0270 hc        1 S5H      0.055700
     44 H9         -2.2850   -0.4650    0.8850 hc        1 S5H      0.044700
     45 H111       -2.2280   -0.6650   -1.5360 hc        1 S5H      0.044700
     46 H112       -2.0710   -2.4640   -1.4570 hc        1 S5H      0.044700
     47 H121       -4.3760   -1.8710   -2.0060 hc        1 S5H      0.036700
     48 H122       -4.4850   -0.7220   -0.6130 hc        1 S5H      0.036700
     49 H14        -4.2550   -1.4670    1.6320 hc        1 S5H      0.045700
     50 H151       -4.8020   -3.0470    3.3120 hc        1 S5H      0.045200
     51 H152       -4.2620   -4.4610    2.3270 hc        1 S5H      0.045200
     52 H161       -6.4450   -4.6030    1.5180 hc        1 S5H      0.053700
     53 H162       -6.8860   -3.0040    2.2360 hc        1 S5H      0.053700
     54 H17        -6.4080   -1.8240    0.2950 hc        1 S5H      0.064700
     55 H181       -4.3860   -4.9870    0.0680 hc        1 S5H      0.040700
     56 H182       -2.9370   -4.2140   -0.7020 hc        1 S5H      0.040700
     57 H183       -4.4940   -4.3210   -1.6150 hc        1 S5H      0.040700
     58 H191        1.3400   -2.6300   -0.0360 hc        1 S5H      0.035700
     59 H192       -0.0180   -2.7230   -1.2240 hc        1 S5H      0.035700
     60 H193       -0.1550   -3.5580    0.3780 hc        1 S5H      0.035700
     61 H211       -7.9470   -3.0960   -2.5950 hc        1 S5H      0.062033
     62 H212       -6.1510   -3.1810   -2.8320 hc        1 S5H      0.062033
     63 H213       -6.8800   -1.7530   -1.9830 hc        1 S5H      0.062033
     64 HH21        5.8350    0.3570    1.4290 hc        1 S5H      0.087200
     65 HH22        6.0110    1.6850    0.2030 hc        1 S5H      0.087200
     66 HH31        5.6730    3.3830    2.0840 hc        1 S5H      0.036700
     67 HH32        5.7440    2.0130    3.2680 hc        1 S5H      0.036700
@<TRIPOS>BOND
     1    1    2 1   
     2    1   11 1   
     3    1   31 1   
     4    1   32 1   
     5    2    3 1   
     6    2   33 1   
     7    2   34 1   
     8    3    4 1   
     9    3    5 1   
    10    3   35 1   
    11    4   24 1   
    12    5    6 1   
    13    5   36 1   
    14    5   37 1   
    15    6    7 1   
    16    6   11 1   
    17    6   38 1   
    18    7    8 1   
    19    7   39 1   
    20    7   40 1   
    21    8    9 1   
    22    8   41 1   
    23    8   42 1   
    24    9   10 1   
    25    9   15 1   
    26    9   43 1   
    27   10   11 1   
    28   10   12 1   
    29   10   44 1   
    30   11   20 1   
    31   12   13 1   
    32   12   45 1   
    33   12   46 1   
    34   13   14 1   
    35   13   47 1   
    36   13   48 1   
    37   14   15 1   
    38   14   18 1   
    39   14   19 1   
    40   15   16 1   
    41   15   49 1   
    42   16   17 1   
    43   16   50 1   
    44   16   51 1   
    45   17   18 1   
    46   17   52 1   
    47   17   53 1   
    48   18   21 1   
    49   18   54 1   
    50   19   55 1   
    51   19   56 1   
    52   19   57 1   
    53   20   58 1   
    54   20   59 1   
    55   20   60 1   
    56   21   22 2   
    57   21   23 1   
    58   23   61 1   
    59   23   62 1   
    60   23   63 1   
    61   24   25 2   
    62   24   26 1   
    63   26   27 1   
    64   26   64 1   
    65   26   65 1   
    66   27   28 1   
    67   27   66 1   
    68   27   67 1   
    69   28   29 1   
    70   28   30 1   
@<TRIPOS>SUBSTRUCTURE
     1 S5H         1 TEMP              0 ****  ****    0 ROOT
