@<TRIPOS>MOLECULE
S5H
   67    70     1     0     0
SMALL
bcc


@<TRIPOS>ATOM
      1 C1          1.4190   -0.0840   -0.5480 c3        1 S5H     -0.067400
      2 C2          1.3280    0.2770   -2.0140 c3        1 S5H     -0.103400
      3 C3          0.0490   -0.2570   -2.6460 c3        1 S5H      0.152100
      4 O3         -0.1000    0.2820   -3.9660 os        1 S5H     -0.455900
      5 C4         -1.1860    0.1920   -1.8700 c3        1 S5H     -0.076400
      6 C5         -1.0580   -0.2220   -0.4150 c3        1 S5H     -0.053700
      7 C6         -2.3220    0.1120    0.3570 c3        1 S5H     -0.073400
      8 C7         -2.2430   -0.4340    1.7660 c3        1 S5H     -0.071400
      9 C8         -1.0060    0.0780    2.4870 c3        1 S5H     -0.048700
     10 C9          0.2680   -0.2310    1.6820 c3        1 S5H     -0.049700
     11 C10         0.1960    0.3690    0.2610 c3        1 S5H     -0.037000
     12 C11         1.5230    0.1900    2.4360 c3        1 S5H     -0.074400
     13 C12         1.5980   -0.3530    3.8560 c3        1 S5H     -0.066400
     14 C13         0.3400   -0.0040    4.6330 c3        1 S5H     -0.038000
     15 C14        -0.8600   -0.5800    3.8440 c3        1 S5H     -0.060700
     16 C15        -2.0150   -0.5300    4.8340 c3        1 S5H     -0.072400
     17 C16        -1.3650   -0.7910    6.1950 c3        1 S5H     -0.075400
     18 C17         0.1600   -0.7220    5.9950 c3        1 S5H     -0.165700
     19 C18         0.2560    1.4970    4.8560 c3        1 S5H     -0.090100
     20 C19         0.1640    1.8880    0.3010 c3        1 S5H     -0.085100
     21 C20         0.8710   -0.0440    7.1350 c         1 S5H      0.578100
     22 O20         0.3380    0.8060    7.8570 o         1 S5H     -0.539100
     23 C21         2.2800   -0.4950    7.3680 c3        1 S5H     -0.205100
     24 CH1         0.5450   -0.3560   -5.0040 c         1 S5H      0.639100
     25 OH1         1.2520   -1.3250   -4.7130 o         1 S5H     -0.576000
     26 CH2         0.2710    0.2840   -6.3270 c3        1 S5H     -0.108400
     27 CH3        -0.3520   -0.6850   -7.3030 c3        1 S5H     -0.201400
     28 CH4        -0.3920   -0.0720   -8.7190 c         1 S5H      0.913600
     29 OH4         0.4600    0.8130   -9.0160 o         1 S5H     -0.843300
     30 OH5        -1.2770   -0.5060   -9.5090 o         1 S5H     -0.843300
     31 H11         1.5310   -1.1960   -0.4460 hc        1 S5H      0.037200
     32 H12         2.3420    0.3920   -0.1220 hc        1 S5H      0.037200
     33 H21         2.2040   -0.1580   -2.5660 hc        1 S5H      0.056700
     34 H22         1.3670    1.3900   -2.1440 hc        1 S5H      0.056700
     35 H3          0.0900   -1.3810   -2.7000 h1        1 S5H      0.064700
     36 H41        -2.0950   -0.2850   -2.3210 hc        1 S5H      0.054200
     37 H42        -1.3120    1.3000   -1.9660 hc        1 S5H      0.054200
     38 H5         -0.9350   -1.3460   -0.3970 hc        1 S5H      0.045700
     39 H61        -3.2070   -0.3350   -0.1670 hc        1 S5H      0.043200
     40 H62        -2.4740    1.2230    0.3810 hc        1 S5H      0.043200
     41 H71        -2.2200   -1.5560    1.7330 hc        1 S5H      0.036700
     42 H72        -3.1560   -0.1340    2.3440 hc        1 S5H      0.036700
     43 H8         -1.1110    1.1900    2.6180 hc        1 S5H      0.056700
     44 H9          0.3160   -1.3530    1.5580 hc        1 S5H      0.044700
     45 H111        2.4230   -0.1780    1.8770 hc        1 S5H      0.045200
     46 H112        1.5850    1.3090    2.4690 hc        1 S5H      0.045200
     47 H121        1.7260   -1.4660    3.8280 hc        1 S5H      0.036700
     48 H122        2.4990    0.0810    4.3630 hc        1 S5H      0.036700
     49 H14        -0.6410   -1.6740    3.6560 hc        1 S5H      0.045700
     50 H151       -2.7870   -1.3010    4.5940 hc        1 S5H      0.045700
     51 H152       -2.5130    0.4700    4.8160 hc        1 S5H      0.045700
     52 H161       -1.6520   -1.7980    6.5870 hc        1 S5H      0.052200
     53 H162       -1.6940   -0.0230    6.9400 hc        1 S5H      0.052200
     54 H17         0.5700   -1.7650    5.9010 hc        1 S5H      0.060700
     55 H181        0.2220    2.0540    3.8900 hc        1 S5H      0.042033
     56 H182       -0.6580    1.7490    5.4490 hc        1 S5H      0.042033
     57 H183        1.1510    1.8440    5.4280 hc        1 S5H      0.042033
     58 H191       -0.0000    2.3030   -0.7230 hc        1 S5H      0.036033
     59 H192       -0.6530    2.2620    0.9620 hc        1 S5H      0.036033
     60 H193        1.1360    2.2860    0.6810 hc        1 S5H      0.036033
     61 H211        2.7980    0.1790    8.0910 hc        1 S5H      0.062033
     62 H212        2.2700   -1.5320    7.7850 hc        1 S5H      0.062033
     63 H213        2.8430   -0.5040    6.4030 hc        1 S5H      0.062033
     64 HH21       -0.3970    1.1730   -6.1890 hc        1 S5H      0.087200
     65 HH22        1.2470    0.6490   -6.7530 hc        1 S5H      0.087200
     66 HH31        0.2500   -1.6270   -7.3520 hc        1 S5H      0.036700
     67 HH32       -1.3910   -0.9500   -6.9890 hc        1 S5H      0.036700
@<TRIPOS>BOND
     1    1    2 1   
     2    1   11 1   
     3    1   31 1   
     4    1   32 1   
     5    2    3 1   
     6    2   33 1   
     7    2   34 1   
     8    3    4 1   
     9    3    5 1   
    10    3   35 1   
    11    4   24 1   
    12    5    6 1   
    13    5   36 1   
    14    5   37 1   
    15    6    7 1   
    16    6   11 1   
    17    6   38 1   
    18    7    8 1   
    19    7   39 1   
    20    7   40 1   
    21    8    9 1   
    22    8   41 1   
    23    8   42 1   
    24    9   10 1   
    25    9   15 1   
    26    9   43 1   
    27   10   11 1   
    28   10   12 1   
    29   10   44 1   
    30   11   20 1   
    31   12   13 1   
    32   12   45 1   
    33   12   46 1   
    34   13   14 1   
    35   13   47 1   
    36   13   48 1   
    37   14   15 1   
    38   14   18 1   
    39   14   19 1   
    40   15   16 1   
    41   15   49 1   
    42   16   17 1   
    43   16   50 1   
    44   16   51 1   
    45   17   18 1   
    46   17   52 1   
    47   17   53 1   
    48   18   21 1   
    49   18   54 1   
    50   19   55 1   
    51   19   56 1   
    52   19   57 1   
    53   20   58 1   
    54   20   59 1   
    55   20   60 1   
    56   21   22 2   
    57   21   23 1   
    58   23   61 1   
    59   23   62 1   
    60   23   63 1   
    61   24   25 2   
    62   24   26 1   
    63   26   27 1   
    64   26   64 1   
    65   26   65 1   
    66   27   28 1   
    67   27   66 1   
    68   27   67 1   
    69   28   29 1   
    70   28   30 1   
@<TRIPOS>SUBSTRUCTURE
     1 S5H         1 TEMP              0 ****  ****    0 ROOT
