@<TRIPOS>MOLECULE
S5P
   33    34     1     0     0
SMALL
bcc


@<TRIPOS>ATOM
      1 O4         -0.2010   -0.0140    0.1510 o         1 S5P     -0.674500
      2 C4          1.0420   -0.1420    0.1560 c         1 S5P      0.731700
      3 C5          1.8820   -0.0060    1.3400 cc        1 S5P     -0.402200
      4 C6          3.2460   -0.1130    1.2550 cd        1 S5P      0.248200
      5 S22         4.1970    0.0990    2.6770 sh        1 S5P     -0.206400
      6 N3          1.7080   -0.4520   -1.0310 n         1 S5P     -0.592500
      7 C2          3.1110   -0.6080   -1.1090 c         1 S5P      0.810500
      8 O2          3.5930   -0.9550   -2.2030 o         1 S5P     -0.595500
      9 N1          3.8950   -0.4480    0.0730 n         1 S5P     -0.328000
     10 C1'         5.3520   -0.2150   -0.0260 c3        1 S5P      0.273500
     11 O4'         5.5860    1.0880   -0.5370 os        1 S5P     -0.441600
     12 C2'         6.1620   -1.2430   -0.8810 c3        1 S5P      0.107100
     13 O2'         6.7740   -2.1620   -0.0030 oh        1 S5P     -0.626800
     14 C3'         7.1260   -0.3630   -1.7130 c3        1 S5P      0.139100
     15 O3'         8.4490   -0.6810   -1.3490 oh        1 S5P     -0.698800
     16 C4'         6.7940    1.0940   -1.3440 c3        1 S5P      0.070100
     17 C5'         6.5940    2.0270   -2.5630 c3        1 S5P      0.240400
     18 O5'         7.7340    2.7460   -2.7940 os        1 S5P     -0.560200
     19 P           8.6960    2.1430   -4.1180 p5        1 S5P      1.337900
     20 O3P         9.9050    3.0260   -4.0950 o         1 S5P     -0.930500
     21 O1P         8.8880    0.7260   -3.6080 o         1 S5P     -0.930500
     22 O2P         7.7470    2.2620   -5.2730 o         1 S5P     -0.930500
     23 HN3         1.2030   -0.5170   -1.8870 hn        1 S5P      0.341500
     24 H1'         5.7490   -0.2560    1.0400 h2        1 S5P      0.057700
     25 H2'         5.5020   -1.8540   -1.5510 h1        1 S5P      0.090700
     26 HO2'        7.7000   -1.9040    0.1080 ho        1 S5P      0.432000
     27 H3'         6.9800   -0.5400   -2.8150 h1        1 S5P      0.115700
     28 HO3'        9.0210   -0.2670   -2.0460 ho        1 S5P      0.522000
     29 H4'         7.6030    1.5160   -0.6860 h1        1 S5P      0.068700
     30 H5'         5.7460    2.7280   -2.3050 h1        1 S5P      0.005700
     31 H5'A        6.3060    1.4180   -3.4650 h1        1 S5P      0.005700
     32 H12         3.2130    0.3340    3.5250 hs        1 S5P      0.164800
     33 H5          1.3580    0.1980    2.2790 ha        1 S5P      0.155000
@<TRIPOS>BOND
     1    1    2 2   
     2    2    3 1   
     3    2    6 1   
     4    3    4 2   
     5    3   33 1   
     6    4    5 1   
     7    4    9 1   
     8    5   32 1   
     9    6    7 1   
    10    6   23 1   
    11    7    8 2   
    12    7    9 1   
    13    9   10 1   
    14   10   11 1   
    15   10   12 1   
    16   10   24 1   
    17   11   16 1   
    18   12   13 1   
    19   12   14 1   
    20   12   25 1   
    21   13   26 1   
    22   14   15 1   
    23   14   16 1   
    24   14   27 1   
    25   15   28 1   
    26   16   17 1   
    27   16   29 1   
    28   17   18 1   
    29   17   30 1   
    30   17   31 1   
    31   18   19 1   
    32   19   20 1   
    33   19   21 1   
    34   19   22 1   
@<TRIPOS>SUBSTRUCTURE
     1 S5P         1 TEMP              0 ****  ****    0 ROOT
