@<TRIPOS>MOLECULE
S5P
   33    34     1     0     0
SMALL
bcc


@<TRIPOS>ATOM
      1 O4         -4.8750    3.2320   -0.4780 o         1 S5P     -0.674500
      2 C4         -4.1380    2.2250   -0.4120 c         1 S5P      0.731700
      3 C5         -4.3370    1.1130    0.5090 cc        1 S5P     -0.402200
      4 C6         -3.4550    0.0650    0.5540 cd        1 S5P      0.248200
      5 S22        -3.7130   -1.2050    1.6910 sh        1 S5P     -0.206400
      6 N3         -3.0450    2.1130   -1.2740 n         1 S5P     -0.592500
      7 C2         -2.1620    1.0090   -1.2590 c         1 S5P      0.810500
      8 O2         -1.2630    0.9770   -2.1190 o         1 S5P     -0.595500
      9 N1         -2.3860   -0.0480   -0.3270 n         1 S5P     -0.328000
     10 C1'        -1.3030   -1.0020   -0.0080 c3        1 S5P      0.273500
     11 O4'        -0.3050   -0.3420    0.7540 os        1 S5P     -0.441600
     12 C2'        -0.6210   -1.7080   -1.2250 c3        1 S5P      0.107100
     13 O2'        -1.1750   -2.9990   -1.3530 oh        1 S5P     -0.626800
     14 C3'         0.8900   -1.6550   -0.8920 c3        1 S5P      0.139100
     15 O3'         1.3650   -2.9740   -0.7530 oh        1 S5P     -0.698800
     16 C4'         1.0030   -0.8920    0.4400 c3        1 S5P      0.070100
     17 C5'         2.0510    0.2470    0.4320 c3        1 S5P      0.240400
     18 O5'         3.2110   -0.1800    1.0170 os        1 S5P     -0.560200
     19 P           4.4680   -0.5920   -0.1200 p5        1 S5P      1.337900
     20 O3P         5.5670   -1.1100    0.7540 o         1 S5P     -0.930500
     21 O1P         3.6970   -1.6280   -0.9180 o         1 S5P     -0.930500
     22 O2P         4.6790    0.7090   -0.8370 o         1 S5P     -0.930500
     23 HN3        -2.8230    2.8550   -1.9000 hn        1 S5P      0.341500
     24 H1'        -1.7750   -1.8070    0.6440 h2        1 S5P      0.057700
     25 H2'        -0.8340   -1.1870   -2.1950 h1        1 S5P      0.090700
     26 HO2'       -0.5590   -3.6340   -0.9600 ho        1 S5P      0.432000
     27 H3'         1.4610   -1.1270   -1.7050 h1        1 S5P      0.115700
     28 HO3'        2.3540   -2.8990   -0.7630 ho        1 S5P      0.522000
     29 H4'         1.2450   -1.6090    1.2720 h1        1 S5P      0.068700
     30 H5'         2.2300    0.5920   -0.6260 h1        1 S5P      0.005700
     31 H5'A        1.6140    1.1010    1.0290 h1        1 S5P      0.005700
     32 H12        -4.8110   -0.7320    2.2510 hs        1 S5P      0.164800
     33 H5         -5.2160    1.1800    1.1590 ha        1 S5P      0.155000
@<TRIPOS>BOND
     1    1    2 2   
     2    2    3 1   
     3    2    6 1   
     4    3    4 2   
     5    3   33 1   
     6    4    5 1   
     7    4    9 1   
     8    5   32 1   
     9    6    7 1   
    10    6   23 1   
    11    7    8 2   
    12    7    9 1   
    13    9   10 1   
    14   10   11 1   
    15   10   12 1   
    16   10   24 1   
    17   11   16 1   
    18   12   13 1   
    19   12   14 1   
    20   12   25 1   
    21   13   26 1   
    22   14   15 1   
    23   14   16 1   
    24   14   27 1   
    25   15   28 1   
    26   16   17 1   
    27   16   29 1   
    28   17   18 1   
    29   17   30 1   
    30   17   31 1   
    31   18   19 1   
    32   19   20 1   
    33   19   21 1   
    34   19   22 1   
@<TRIPOS>SUBSTRUCTURE
     1 S5P         1 TEMP              0 ****  ****    0 ROOT
