@<TRIPOS>MOLECULE
S5P
   33    34     1     0     0
SMALL
bcc


@<TRIPOS>ATOM
      1 O4         -0.2210    0.0060    0.0600 o         1 S5P     -0.674500
      2 C4          1.0220   -0.1250    0.0870 c         1 S5P      0.731700
      3 C5          1.8430    0.0170    1.2830 cc        1 S5P     -0.402200
      4 C6          3.2080   -0.0940    1.2220 cd        1 S5P      0.248200
      5 S22         4.1360    0.1240    2.6580 sh        1 S5P     -0.207400
      6 N3          1.7070   -0.4440   -1.0870 ns        1 S5P     -0.592500
      7 C2          3.1110   -0.6040   -1.1410 c         1 S5P      0.810500
      8 O2          3.6100   -0.9590   -2.2240 o         1 S5P     -0.595500
      9 N1          3.8760   -0.4380    0.0520 n         1 S5P     -0.328000
     10 C1'         5.3340   -0.2080   -0.0240 c3        1 S5P      0.273500
     11 O4'         5.5790    1.0910   -0.5400 os        1 S5P     -0.441600
     12 C2'         6.1560   -1.2430   -0.8590 c3        1 S5P      0.107100
     13 O2'         6.7520   -2.1570    0.0350 oh        1 S5P     -0.626800
     14 C3'         7.1360   -0.3710   -1.6810 c3        1 S5P      0.139100
     15 O3'         8.4510   -0.6890   -1.2930 oh        1 S5P     -0.698800
     16 C4'         6.8000    1.0890   -1.3270 c3        1 S5P      0.070100
     17 C5'         6.6220    2.0150   -2.5550 c3        1 S5P      0.240400
     18 O5'         7.7670    2.7310   -2.7720 os        1 S5P     -0.560200
     19 P           8.7490    2.1170   -4.0760 p5        1 S5P      1.337900
     20 O3P         9.9590    2.9980   -4.0400 o         1 S5P     -0.930500
     21 O1P         8.9300    0.7030   -3.5540 o         1 S5P     -0.930500
     22 O2P         7.8190    2.2300   -5.2470 o         1 S5P     -0.930500
     23 HN3         1.2160   -0.5130   -1.9500 hn        1 S5P      0.341500
     24 H1'         5.7140   -0.2430    1.0480 h2        1 S5P      0.057700
     25 H2'         5.5050   -1.8570   -1.5360 h1        1 S5P      0.090700
     26 HO2'        7.6760   -1.9010    0.1590 ho        1 S5P      0.432000
     27 H3'         7.0070   -0.5540   -2.7840 h1        1 S5P      0.115700
     28 HO3'        9.0350   -0.2810   -1.9840 ho        1 S5P      0.522000
     29 H4'         7.5990    1.5140   -0.6580 h1        1 S5P      0.068700
     30 H5'         5.7710    2.7190   -2.3150 h1        1 S5P      0.005700
     31 H5'A        6.3470    1.4000   -3.4580 h1        1 S5P      0.005700
     32 H12         3.1390    0.3680    3.4880 hs        1 S5P      0.164800
     33 H5          1.3040    0.2280    2.2130 ha        1 S5P      0.155000
@<TRIPOS>BOND
     1    1    2 2   
     2    2    3 1   
     3    2    6 1   
     4    3    4 2   
     5    3   33 1   
     6    4    5 1   
     7    4    9 1   
     8    5   32 1   
     9    6    7 1   
    10    6   23 1   
    11    7    8 2   
    12    7    9 1   
    13    9   10 1   
    14   10   11 1   
    15   10   12 1   
    16   10   24 1   
    17   11   16 1   
    18   12   13 1   
    19   12   14 1   
    20   12   25 1   
    21   13   26 1   
    22   14   15 1   
    23   14   16 1   
    24   14   27 1   
    25   15   28 1   
    26   16   17 1   
    27   16   29 1   
    28   17   18 1   
    29   17   30 1   
    30   17   31 1   
    31   18   19 1   
    32   19   20 1   
    33   19   21 1   
    34   19   22 1   
@<TRIPOS>SUBSTRUCTURE
     1 S5P         1 TEMP              0 ****  ****    0 ROOT
