@<TRIPOS>MOLECULE
S5S
    9     8     1     0     0
SMALL
bcc


@<TRIPOS>ATOM
      1 S1          0.3740   -0.0170    0.6150 sh        1 S5S     -0.225700
      2 S2          2.3720   -0.7310    0.2710 s6        1 S5S     -0.849100
      3 S3          2.2600   -0.3580    2.4280 ss        1 S5S     -0.035900
      4 S4          0.3510    0.3850    2.8310 sh        1 S5S      0.210200
      5 S5          3.8300   -0.3650   -1.2230 sh        1 S5S     -0.225700
      6 HS1        -0.4930    0.0580   -0.3870 hs        1 S5S      0.265300
      7 HS5         4.0950    0.8960   -0.9020 hs        1 S5S      0.265300
      8 HS2         2.2940   -2.0350    0.0810 hs        1 S5S      0.436800
      9 HS4        -0.2530   -0.7230    3.2170 hs        1 S5S      0.159800
@<TRIPOS>BOND
     1    1    2 1   
     2    1    6 1   
     3    2    3 1   
     4    2    5 1   
     5    2    8 1   
     6    3    4 1   
     7    4    9 1   
     8    5    7 1   
@<TRIPOS>SUBSTRUCTURE
     1 S5S         1 TEMP              0 ****  ****    0 ROOT
