@<TRIPOS>MOLECULE
S5S
    9     9     1     0     0
SMALL
bcc


@<TRIPOS>ATOM
      1 S1          1.1920    1.3300    0.3980 s4        1 S5S     -0.613000
      2 S2         -0.6340    0.1320   -0.0500 s6        1 S5S     -0.261000
      3 S3         -0.0110   -1.9260   -0.1560 ss        1 S5S      0.185700
      4 S4          1.7600   -0.7550   -0.0860 s4        1 S5S     -0.723600
      5 S5         -2.5640    0.4960    0.6740 sh        1 S5S     -0.182700
      6 HS1         1.2320    1.3970    1.7240 hs        1 S5S      0.491000
      7 HS5        -3.1290    1.1330   -0.3440 hs        1 S5S      0.259800
      8 HS2        -0.7190    0.4720   -1.3190 hs        1 S5S      0.408800
      9 HS4         2.7140   -1.1300   -0.9200 hs        1 S5S      0.435000
@<TRIPOS>BOND
     1    1    2 3   
     2    1    4 2   
     3    1    6 1   
     4    2    3 1   
     5    2    5 1   
     6    2    8 1   
     7    3    4 1   
     8    4    9 1   
     9    5    7 1   
@<TRIPOS>SUBSTRUCTURE
     1 S5S         1 TEMP              0 ****  ****    0 ROOT
