@<TRIPOS>MOLECULE
S5S
    9     8     1     0     0
SMALL
bcc


@<TRIPOS>ATOM
      1 S1         -2.0060   -0.1850   -0.5350 sh        1 S5S     -0.187700
      2 S2          0.0440   -0.1850   -0.5350 s6        1 S5S     -0.619100
      3 S3          0.7280   -0.1850    1.3980 ss        1 S5S      0.022100
      4 S4          0.1860    1.5660    2.3140 sh        1 S5S     -0.139800
      5 S5          0.7280   -1.8590   -1.5010 sh        1 S5S     -0.187700
      6 HS1        -2.3980    0.2050   -1.5740 hs        1 S5S      0.260800
      7 HS5         1.8040   -1.6520   -1.9310 hs        1 S5S      0.260800
      8 HS2         0.4370    0.7760   -1.0900 hs        1 S5S      0.371800
      9 HS4         0.4780    1.5200    3.4540 hs        1 S5S      0.218800
@<TRIPOS>BOND
     1    1    2 1   
     2    1    6 1   
     3    2    3 1   
     4    2    5 1   
     5    2    8 1   
     6    3    4 1   
     7    4    9 1   
     8    5    7 1   
@<TRIPOS>SUBSTRUCTURE
     1 S5S         1 TEMP              0 ****  ****    0 ROOT
