@<TRIPOS>MOLECULE
S5S
    9     9     1     0     0
SMALL
bcc


@<TRIPOS>ATOM
      1 S1         -0.0430   -0.1460    0.3660 sx        1 S5S     -0.376500
      2 S2          1.9020   -0.5420   -0.3370 sx        1 S5S     -0.376500
      3 S3          2.5050    0.0390    1.7930 ss        1 S5S      0.264200
      4 S4          0.7800    0.4330    2.3680 s4        1 S5S     -0.528100
      5 S5          3.7260    0.6740    0.1380 s4        1 S5S     -0.528100
      6 HS1        -0.8580   -1.1780    0.2500 hs        1 S5S      0.393000
      7 HS5         4.6650   -0.2540    0.0960 hs        1 S5S      0.378500
      8 HS2         1.9040   -1.6320   -1.0770 hs        1 S5S      0.393000
      9 HS4         0.2490   -0.2850    3.3350 hs        1 S5S      0.378500
@<TRIPOS>BOND
     1    1    2 1   
     2    1    4 2   
     3    1    6 1   
     4    2    5 2   
     5    2    8 1   
     6    3    4 1   
     7    3    5 1   
     8    4    9 1   
     9    5    7 1   
@<TRIPOS>SUBSTRUCTURE
     1 S5S         1 TEMP              0 ****  ****    0 ROOT
