@<TRIPOS>MOLECULE
S60
   26    28     1     0     0
SMALL
bcc


@<TRIPOS>ATOM
      1 C2          0.0110    0.0040    0.0230 cc        1 S60      0.493800
      2 N11        -0.7060    0.0110   -1.2970 n4        1 S60     -0.797600
      3 N3          1.3270    0.0080   -0.0350 nd        1 S60     -0.531100
      4 C4          2.0370    0.0020    1.1740 ca        1 S60      0.099400
      5 C10         3.4430    0.0060    1.1240 ca        1 S60     -0.006000
      6 C9          4.1400   -0.0000    2.3330 ca        1 S60      0.098400
      7 N14         5.5220    0.0020    2.5870 nc        1 S60     -0.553100
      8 C13         5.6480   -0.0070    3.9330 cd        1 S60      0.472800
      9 C15         6.9250   -0.0090    4.6960 c3        1 S60     -0.134400
     10 N12         4.3920   -0.0150    4.5940 na        1 S60     -0.270300
     11 C8          3.4170   -0.0110    3.6030 ca        1 S60     -0.059200
     12 C7          2.0200   -0.0150    3.6460 ca        1 S60     -0.049000
     13 C5          1.3440   -0.0090    2.4300 ca        1 S60     -0.150600
     14 C6         -0.1300   -0.0120    2.4430 c         1 S60      0.727100
     15 O16        -0.8560   -0.0210    3.4430 o         1 S60     -0.550500
     16 N1         -0.7810   -0.0060    1.1790 n         1 S60     -0.513400
     17 HN11       -1.2880   -0.8310   -1.3750 hn        1 S60      0.479133
     18 HN1A       -0.0160    0.0180   -2.0630 hn        1 S60      0.479133
     19 H10         3.9890    0.0130    0.1650 ha        1 S60      0.183000
     20 H15         6.9910   -0.9290    5.3290 hc        1 S60      0.082700
     21 H15A        6.9790    0.8930    5.3560 hc        1 S60      0.082700
     22 H15B        7.7970    0.0070    3.9940 hc        1 S60      0.082700
     23 HN12        4.2410   -0.0210    5.5700 hn        1 S60      0.325700
     24 H7          1.4600   -0.0220    4.5960 ha        1 S60      0.181000
     25 HN1        -1.7760   -0.0080    1.1520 hn        1 S60      0.348500
     26 H113       -1.2920    0.8500   -1.3640 hn        1 S60      0.479133
@<TRIPOS>BOND
     1    1    2 1   
     2    1    3 2   
     3    1   16 1   
     4    2   17 1   
     5    2   18 1   
     6    2   26 1   
     7    3    4 1   
     8    4    5 ar  
     9    4   13 ar  
    10    5    6 ar  
    11    5   19 1   
    12    6    7 1   
    13    6   11 ar  
    14    7    8 2   
    15    8    9 1   
    16    8   10 1   
    17    9   20 1   
    18    9   21 1   
    19    9   22 1   
    20   10   11 1   
    21   10   23 1   
    22   11   12 ar  
    23   12   13 ar  
    24   12   24 1   
    25   13   14 1   
    26   14   15 2   
    27   14   16 1   
    28   16   25 1   
@<TRIPOS>SUBSTRUCTURE
     1 S60         1 TEMP              0 ****  ****    0 ROOT
