@<TRIPOS>MOLECULE
S60
   26    28     1     0     0
SMALL
bcc


@<TRIPOS>ATOM
      1 C2          0.0120    0.0040    0.0210 cc        1 S60      0.493800
      2 N11        -0.7030    0.0130   -1.2990 nz        1 S60     -0.797600
      3 N3          1.3290    0.0110   -0.0360 nd        1 S60     -0.531100
      4 C4          2.0380    0.0030    1.1730 ca        1 S60      0.099400
      5 C10         3.4440    0.0100    1.1240 ca        1 S60     -0.006000
      6 C9          4.1400    0.0020    2.3350 ca        1 S60      0.098400
      7 N14         5.5220    0.0060    2.5890 nc        1 S60     -0.553100
      8 C13         5.6470   -0.0050    3.9360 cd        1 S60      0.472800
      9 C15         6.9230   -0.0070    4.6990 c3        1 S60     -0.134400
     10 N12         4.3910   -0.0170    4.5950 na        1 S60     -0.270300
     11 C8          3.4160   -0.0120    3.6040 ca        1 S60     -0.059200
     12 C7          2.0190   -0.0190    3.6460 ca        1 S60     -0.049000
     13 C5          1.3440   -0.0110    2.4300 ca        1 S60     -0.150600
     14 C6         -0.1300   -0.0180    2.4410 c         1 S60      0.727100
     15 O16        -0.8570   -0.0300    3.4400 o         1 S60     -0.550500
     16 N1         -0.7800   -0.0090    1.1760 ns        1 S60     -0.513400
     17 HN11       -1.2840   -0.8300   -1.3790 hn        1 S60      0.479133
     18 HN1A       -0.0130    0.0220   -2.0650 hn        1 S60      0.479133
     19 H10         3.9900    0.0200    0.1660 ha        1 S60      0.183000
     20 H15         7.7960    0.0050    3.9980 hc        1 S60      0.082700
     21 H15A        6.9870   -0.9250    5.3360 hc        1 S60      0.082700
     22 H15B        6.9780    0.8980    5.3560 hc        1 S60      0.082700
     23 HN12        4.2390   -0.0260    5.5710 hn        1 S60      0.325700
     24 H7          1.4590   -0.0300    4.5950 ha        1 S60      0.181000
     25 HN1        -1.7760   -0.0140    1.1490 hn        1 S60      0.348500
     26 H113       -1.2910    0.8510   -1.3650 hn        1 S60      0.479133
@<TRIPOS>BOND
     1    1    2 1   
     2    1    3 2   
     3    1   16 1   
     4    2   17 1   
     5    2   18 1   
     6    2   26 1   
     7    3    4 1   
     8    4    5 ar  
     9    4   13 ar  
    10    5    6 ar  
    11    5   19 1   
    12    6    7 1   
    13    6   11 ar  
    14    7    8 2   
    15    8    9 1   
    16    8   10 1   
    17    9   20 1   
    18    9   21 1   
    19    9   22 1   
    20   10   11 1   
    21   10   23 1   
    22   11   12 ar  
    23   12   13 ar  
    24   12   24 1   
    25   13   14 1   
    26   14   15 2   
    27   14   16 1   
    28   16   25 1   
@<TRIPOS>SUBSTRUCTURE
     1 S60         1 TEMP              0 ****  ****    0 ROOT
