@<TRIPOS>MOLECULE
S60
   25    27     1     0     0
SMALL
bcc


@<TRIPOS>ATOM
      1 C2         -3.1390    0.7990    0.0180 cc        1 S60      0.651800
      2 N11        -4.3770    1.4900    0.1270 nh        1 S60     -0.880800
      3 N3         -1.9980    1.4900   -0.0440 nd        1 S60     -0.670100
      4 C4         -0.7870    0.7920   -0.0170 ca        1 S60      0.182400
      5 C10         0.4160    1.5290   -0.0500 ca        1 S60     -0.079000
      6 C9          1.6220    0.8330   -0.0320 ca        1 S60      0.111400
      7 N14         2.9520    1.3020   -0.0570 nc        1 S60     -0.576100
      8 C13         3.7300    0.1990   -0.0200 cd        1 S60      0.444800
      9 C15         5.2180    0.1780   -0.0270 c3        1 S60     -0.123400
     10 N12         2.9780   -0.9990    0.0280 na        1 S60     -0.293300
     11 C8          1.6300   -0.6250    0.0220 ca        1 S60     -0.097200
     12 C7          0.4480   -1.3550    0.0560 ca        1 S60     -0.060000
     13 C5         -0.7480   -0.6370    0.0350 ca        1 S60     -0.184600
     14 C6         -2.0220   -1.3770    0.0750 c         1 S60      0.718100
     15 O16        -2.1250   -2.6170    0.1290 o         1 S60     -0.629500
     16 N1         -3.1990   -0.6160    0.0380 n         1 S60     -0.505400
     17 HN11       -4.2840    2.4830    0.0540 hn        1 S60      0.408800
     18 HN1A       -5.0960    1.1260   -0.4620 hn        1 S60      0.408800
     19 H10         0.4040    2.6290   -0.0880 ha        1 S60      0.168000
     20 H15         5.5980   -0.3180    0.9000 hc        1 S60      0.066033
     21 H15A        5.5880   -0.3850   -0.9200 hc        1 S60      0.066033
     22 H15B        5.6210    1.2210   -0.0670 hc        1 S60      0.066033
     23 HN12        3.3310   -1.9160    0.0660 hn        1 S60      0.307700
     24 H7          0.4300   -2.4550    0.0980 ha        1 S60      0.162000
     25 HN1        -4.0700   -1.0870    0.1400 hn        1 S60      0.336500
@<TRIPOS>BOND
     1    1    2 1   
     2    1    3 2   
     3    1   16 1   
     4    2   17 1   
     5    2   18 1   
     6    3    4 1   
     7    4    5 ar  
     8    4   13 ar  
     9    5    6 ar  
    10    5   19 1   
    11    6    7 1   
    12    6   11 ar  
    13    7    8 2   
    14    8    9 1   
    15    8   10 1   
    16    9   20 1   
    17    9   21 1   
    18    9   22 1   
    19   10   11 1   
    20   10   23 1   
    21   11   12 ar  
    22   12   13 ar  
    23   12   24 1   
    24   13   14 1   
    25   14   15 2   
    26   14   16 1   
    27   16   25 1   
@<TRIPOS>SUBSTRUCTURE
     1 S60         1 TEMP              0 ****  ****    0 ROOT
