@<TRIPOS>MOLECULE
S60
   25    20     1     0     0
SMALL
bcc


@<TRIPOS>ATOM
      1 C2         -2.7420    0.0820   -2.3850 c1        1 S60      0.205000
      2 N11        -3.4500    0.0570   -3.6130 n2        1 S60     -0.319000
      3 N3         -1.2970    0.0820   -2.3850 n1        1 S60     -0.243000
      4 C4         -0.5660    0.0820   -1.1230 c1        1 S60      0.043000
      5 C10         0.8400    0.0820   -1.1250 c1        1 S60     -0.079000
      6 C9          1.5460    0.0820    0.0950 c1        1 S60     -0.028000
      7 N14         2.8720    0.0820    0.3760 n1        1 S60     -0.149000
      8 C13         3.0150    0.0820    1.7290 c1        1 S60      0.043000
      9 C15         4.3730   -0.3390    2.2460 c2        1 S60     -0.166000
     10 N12         1.7730    0.0820    2.2850 n2        1 S60     -0.250000
     11 C8          0.8640    0.0820    1.2790 c1        1 S60     -0.052000
     12 C7         -0.5460    0.0820    1.2810 c1        1 S60     -0.060000
     13 C5         -1.2500    0.0820    0.0660 c2        1 S60     -0.164000
     14 C6         -2.7580    0.0820    0.0660 c2        1 S60      0.355000
     15 O16        -3.3660    0.0550    1.1170 o         1 S60     -0.354000
     16 N1         -3.4580    0.0820   -1.1490 n         1 S60     -0.345000
     17 HN11       -4.3620    0.0610   -3.6140 hn        1 S60      0.204000
     18 HN1A       -2.9940    0.0550   -4.4030 hn        1 S60      0.204000
     19 H10         1.3270    0.0720   -1.9700 ha        1 S60      0.168000
     20 H15         5.0710    0.0530    1.6870 ha        1 S60      0.105333
     21 H15A        4.4810   -0.0300    3.1660 ha        1 S60      0.105333
     22 H15B        4.4440   -1.3120    2.2200 ha        1 S60      0.105333
     23 HN12        1.5850    0.0820    3.1770 DU        1 S60      0.258000
     24 H7         -1.0330    0.0800    2.1270 ha        1 S60      0.162000
     25 HN1        -4.3700    0.0980   -1.1500 hn        1 S60      0.250000
@<TRIPOS>BOND
     1    1    3 1   
     2    1   16 1   
     3    2   17 1   
     4    2   18 1   
     5    4    5 1   
     6    4   13 1   
     7    5   19 1   
     8    6   11 1   
     9    7    8 1   
    10    8   10 1   
    11    9   20 1   
    12    9   21 1   
    13    9   22 1   
    14   10   11 1   
    15   12   13 1   
    16   12   24 1   
    17   13   14 1   
    18   14   15 1   
    19   14   16 1   
    20   16   25 1   
@<TRIPOS>SUBSTRUCTURE
     1 S60         1 TEMP              0 ****  ****    0 ROOT
