@<TRIPOS>MOLECULE
S61
   45    42     1     0     0
SMALL
bcc


@<TRIPOS>ATOM
      1 C26        -1.2800   -1.5690    4.3620 c3        1 S61     -0.191000
      2 C25         0.0670   -2.1670    4.0190 c2        1 S61     -0.044000
      3 C24         0.9030   -2.6170    5.0310 c2        1 S61     -0.146000
      4 C23         2.1010   -3.2370    4.7150 c1        1 S61     -0.140000
      5 C22         2.4640   -3.4090    3.3880 c1        1 S61     -0.135750
      6 C21         1.6290   -2.9590    2.3760 c1        1 S61     -0.135750
      7 C20         0.4310   -2.3380    2.6910 c1        1 S61     -0.064000
      8 C16        -0.5270   -1.9420    1.5880 c3        1 S61      0.066000
      9 C17        -1.2270   -3.1740    1.0620 c3        1 S61     -0.243000
     10 C18        -2.4130   -2.7610    0.2210 c2        1 S61      0.327000
     11 O27        -3.3910   -2.1750    0.7560 o         1 S61     -0.572500
     12 O19        -2.4380   -3.0310   -1.0080 o         1 S61     -0.572500
     13 N15         0.1970   -1.3210    0.5320 n         1 S61     -0.322000
     14 C14         0.1760    0.0960    0.3920 c2        1 S61      0.344000
     15 O28        -0.0630    0.7990    1.3560 o         1 S61     -0.396000
     16 C10         0.4520    0.7320   -0.9630 c2        1 S61     -0.014000
     17 N9         -0.4480    1.6370   -1.4990 n3        1 S61     -0.123000
     18 C11         1.7020    0.9250   -1.3620 c1        1 S61     -0.233000
     19 C12         1.8460    2.0050   -2.2420 c1        1 S61      0.316000
     20 O13         2.8670    2.4100   -2.7630 o         1 S61     -0.325000
     21 N7          0.4190    2.5640   -2.4000 n3        1 S61     -0.213000
     22 C5         -0.0540    3.3580   -3.4850 c2        1 S61      0.039000
     23 C4         -0.3240    2.7680   -4.7100 c2        1 S61     -0.113000
     24 C3         -0.7350    3.5490   -5.7800 c1        1 S61     -0.133000
     25 C2         -0.8770    4.9190   -5.6250 c1        1 S61     -0.135750
     26 C1         -0.6080    5.5090   -4.4000 c1        1 S61     -0.135750
     27 C6         -0.1960    4.7280   -3.3290 c1        1 S61      0.083000
     28 F8          0.1190    5.3060   -2.1630 f         1 S61     -0.105000
     29 H261       -1.4410   -0.7830    3.8020 hc        1 S61      0.090333
     30 H262       -1.2900   -1.3060    5.3070 hc        1 S61      0.090333
     31 H263       -1.9830   -2.2340    4.2020 hc        1 S61      0.090333
     32 H24         0.6480   -2.4960    5.9650 ha        1 S61      0.117000
     33 H23         2.7020   -3.5280    5.4270 ha        1 S61      0.114000
     34 H22         3.3090   -3.8460    3.1650 ha        1 S61      0.133000
     35 H21         1.8900   -3.0710    1.4430 ha        1 S61      0.133000
     36 H16        -1.1890   -1.3170    1.9400 h1        1 S61      0.107000
     37 H171       -1.5340   -3.7190    1.8130 hc        1 S61      0.083000
     38 H172       -0.6060   -3.6930    0.5160 hc        1 S61      0.083000
     39 H15         0.6480   -1.8330   -0.0740 hn        1 S61      0.284000
     40 H9         -1.3460    1.6800   -1.3560 hn        1 S61      0.224000
     41 H11         2.4430    0.6640   -0.7860 ha        1 S61      0.198000
     42 H4         -0.2240    1.8040   -4.8200 ha        1 S61      0.168000
     43 H3         -0.9250    3.1330   -6.6420 ha        1 S61      0.135000
     44 H2         -1.1840    5.4650   -6.3730 ha        1 S61      0.133000
     45 H1         -0.7080    6.4740   -4.2910 ha        1 S61      0.133000
@<TRIPOS>BOND
     1    1    2 1   
     2    1   29 1   
     3    1   30 1   
     4    1   31 1   
     5    2    3 1   
     6    2    7 1   
     7    3    4 1   
     8    3   32 1   
     9    4   33 1   
    10    5    6 1   
    11    5   34 1   
    12    6   35 1   
    13    7    8 1   
    14    8    9 1   
    15    8   13 1   
    16    8   36 1   
    17    9   10 1   
    18    9   37 1   
    19    9   38 1   
    20   10   11 1   
    21   10   12 1   
    22   13   14 1   
    23   13   39 1   
    24   14   15 1   
    25   14   16 1   
    26   16   17 1   
    27   16   18 1   
    28   17   21 1   
    29   17   40 1   
    30   18   41 1   
    31   19   20 1   
    32   19   21 1   
    33   21   22 1   
    34   22   23 1   
    35   22   27 1   
    36   23   24 1   
    37   23   42 1   
    38   24   43 1   
    39   25   26 1   
    40   25   44 1   
    41   26   45 1   
    42   27   28 1   
@<TRIPOS>SUBSTRUCTURE
     1 S61         1 TEMP              0 ****  ****    0 ROOT
