@<TRIPOS>MOLECULE
S61
   46    48     1     0     0
SMALL
bcc


@<TRIPOS>ATOM
      1 C26         0.4390    1.2580   -0.1600 c3        1 S61     -0.064800
      2 C25         1.7600    0.5890   -0.0820 ca        1 S61     -0.050300
      3 C24         2.4520    0.5960    1.1390 ca        1 S61     -0.129000
      4 C23         3.6960   -0.0150    1.2600 ca        1 S61     -0.112000
      5 C22         4.2690   -0.6500    0.1580 ca        1 S61     -0.130000
      6 C21         3.5920   -0.6680   -1.0580 ca        1 S61     -0.122000
      7 C20         2.3390   -0.0540   -1.1870 ca        1 S61     -0.120300
      8 C16         1.6380   -0.0960   -2.5270 c3        1 S61      0.146000
      9 C17         1.2830   -1.5600   -2.8420 c3        1 S61     -0.191400
     10 C18         0.7490   -1.8010   -4.2210 c         1 S61      0.628100
     11 O27         1.0260   -2.7760   -4.9240 o         1 S61     -0.497000
     12 O19        -0.1500   -0.9560   -4.7970 oh        1 S61     -0.578100
     13 N15         2.4280    0.5260   -3.5720 ns        1 S61     -0.553900
     14 C14         1.9140    1.5420   -4.3500 c         1 S61      0.691300
     15 O28         0.7020    1.8420   -4.3290 o         1 S61     -0.602100
     16 C10         2.8640    2.2320   -5.2630 cc        1 S61      0.018800
     17 N9          2.6920    3.6350   -5.5280 na        1 S61     -0.433000
     18 C11         3.9570    1.7340   -5.9160 cd        1 S61     -0.239200
     19 C12         4.4940    2.8410   -6.7630 c         1 S61      0.677700
     20 O13         5.4760    2.8420   -7.5070 o         1 S61     -0.571500
     21 N7          3.5580    3.9420   -6.5970 n         1 S61     -0.232400
     22 C5          3.9560    5.3060   -6.7310 ca        1 S61      0.012600
     23 C4          5.3100    5.6810   -6.8240 ca        1 S61     -0.112000
     24 C3          5.6690    7.0070   -7.0430 ca        1 S61     -0.128000
     25 C2          4.6940    7.9960   -7.1590 ca        1 S61     -0.110000
     26 C1          3.3490    7.6620   -7.0600 ca        1 S61     -0.154000
     27 C6          2.9660    6.3250   -6.8490 ca        1 S61      0.122900
     28 F8          1.6450    6.0340   -6.7610 f         1 S61     -0.138900
     29 H261        0.1570    1.7090    0.8230 hc        1 S61      0.052033
     30 H262        0.4560    2.0760   -0.9240 hc        1 S61      0.052033
     31 H263       -0.3570    0.5240   -0.4430 hc        1 S61      0.052033
     32 H24         2.0020    1.0960    2.0110 ha        1 S61      0.139000
     33 H23         4.2260    0.0020    2.2240 ha        1 S61      0.139000
     34 H22         5.2520   -1.1360    0.2480 ha        1 S61      0.139000
     35 H21         4.0460   -1.1800   -1.9200 ha        1 S61      0.131000
     36 H16         0.6630    0.4830   -2.4550 h1        1 S61      0.090700
     37 H171        2.1840   -2.2160   -2.7030 hc        1 S61      0.091200
     38 H172        0.5040   -1.8910   -2.1030 hc        1 S61      0.091200
     39 H15        -0.2690   -0.1560   -4.2610 ho        1 S61      0.443000
     40 H9          1.7380    3.8770   -5.7770 hn        1 S61      0.436800
     41 H11         4.4100    0.7460   -5.8840 ha        1 S61      0.188000
     42 H4          6.1010    4.9150   -6.7450 ha        1 S61      0.164000
     43 H3          6.7340    7.2710   -7.1240 ha        1 S61      0.143000
     44 H2          4.9860    9.0440   -7.3290 ha        1 S61      0.142000
     45 H1          2.5670    8.4310   -7.1480 ha        1 S61      0.153000
     46 H152        3.4110    0.3820   -3.5490 hn        1 S61      0.325500
@<TRIPOS>BOND
     1    1    2 1   
     2    1   29 1   
     3    1   30 1   
     4    1   31 1   
     5    2    3 ar  
     6    2    7 ar  
     7    3    4 ar  
     8    3   32 1   
     9    4    5 ar  
    10    4   33 1   
    11    5    6 ar  
    12    5   34 1   
    13    6    7 ar  
    14    6   35 1   
    15    7    8 1   
    16    8    9 1   
    17    8   13 1   
    18    8   36 1   
    19    9   10 1   
    20    9   37 1   
    21    9   38 1   
    22   10   11 2   
    23   10   12 1   
    24   12   39 1   
    25   13   14 1   
    26   13   46 1   
    27   14   15 2   
    28   14   16 1   
    29   16   17 1   
    30   16   18 2   
    31   17   21 1   
    32   17   40 1   
    33   18   19 1   
    34   18   41 1   
    35   19   20 2   
    36   19   21 1   
    37   21   22 1   
    38   22   23 ar  
    39   22   27 ar  
    40   23   24 ar  
    41   23   42 1   
    42   24   25 ar  
    43   24   43 1   
    44   25   26 ar  
    45   25   44 1   
    46   26   27 ar  
    47   26   45 1   
    48   27   28 1   
@<TRIPOS>SUBSTRUCTURE
     1 S61         1 TEMP              0 ****  ****    0 ROOT
