@<TRIPOS>MOLECULE
S61
   46    48     1     0     0
SMALL
bcc


@<TRIPOS>ATOM
      1 C26         0.4370    1.2660   -0.1620 c3        1 S61     -0.064800
      2 C25         1.7560    0.5930   -0.0830 ca        1 S61     -0.050300
      3 C24         2.4480    0.5990    1.1370 ca        1 S61     -0.129000
      4 C23         3.6900   -0.0160    1.2590 ca        1 S61     -0.112000
      5 C22         4.2610   -0.6540    0.1570 ca        1 S61     -0.130000
      6 C21         3.5830   -0.6700   -1.0580 ca        1 S61     -0.122000
      7 C20         2.3330   -0.0520   -1.1880 ca        1 S61     -0.120300
      8 C16         1.6310   -0.0930   -2.5280 c3        1 S61      0.146000
      9 C17         1.2720   -1.5570   -2.8420 c3        1 S61     -0.191400
     10 C18         0.7370   -1.7970   -4.2210 c         1 S61      0.628100
     11 O27         1.0100   -2.7730   -4.9230 o         1 S61     -0.497000
     12 O19        -0.1600   -0.9490   -4.7970 oh        1 S61     -0.578100
     13 N15         2.4230    0.5260   -3.5740 n         1 S61     -0.553900
     14 C14         1.9120    1.5430   -4.3510 c         1 S61      0.690300
     15 O28         0.7010    1.8470   -4.3300 o         1 S61     -0.602100
     16 C10         2.8640    2.2310   -5.2640 cc        1 S61      0.018800
     17 N9          2.6970    3.6340   -5.5290 na        1 S61     -0.433000
     18 C11         3.9550    1.7300   -5.9170 cd        1 S61     -0.239200
     19 C12         4.4960    2.8360   -6.7640 c         1 S61      0.677700
     20 O13         5.4770    2.8340   -7.5080 o         1 S61     -0.571500
     21 N7          3.5630    3.9390   -6.5970 n         1 S61     -0.232400
     22 C5          3.9660    5.3030   -6.7290 ca        1 S61      0.012600
     23 C4          5.3210    5.6730   -6.8220 ca        1 S61     -0.112000
     24 C3          5.6840    6.9980   -7.0400 ca        1 S61     -0.128000
     25 C2          4.7120    7.9910   -7.1550 ca        1 S61     -0.110000
     26 C1          3.3660    7.6610   -7.0560 ca        1 S61     -0.154000
     27 C6          2.9790    6.3250   -6.8470 ca        1 S61      0.122900
     28 F8          1.6570    6.0380   -6.7590 f         1 S61     -0.138900
     29 H261        0.1580    1.7200    0.8210 hc        1 S61      0.052033
     30 H262        0.4570    2.0840   -0.9260 hc        1 S61      0.052033
     31 H263       -0.3610    0.5350   -0.4440 hc        1 S61      0.052033
     32 H24         2.0010    1.1010    2.0090 ha        1 S61      0.139000
     33 H23         4.2210    0.0000    2.2230 ha        1 S61      0.139000
     34 H22         5.2420   -1.1430    0.2480 ha        1 S61      0.139000
     35 H21         4.0360   -1.1840   -1.9210 ha        1 S61      0.131000
     36 H16         0.6580    0.4880   -2.4560 h1        1 S61      0.090700
     37 H171        2.1720   -2.2150   -2.7030 hc        1 S61      0.091200
     38 H172        0.4930   -1.8850   -2.1020 hc        1 S61      0.091200
     39 H15        -0.2760   -0.1480   -4.2620 ho        1 S61      0.443000
     40 H9          1.7430    3.8790   -5.7770 hn        1 S61      0.436800
     41 H11         4.4050    0.7410   -5.8860 ha        1 S61      0.188000
     42 H4          6.1090    4.9050   -6.7440 ha        1 S61      0.164000
     43 H3          6.7500    7.2590   -7.1200 ha        1 S61      0.143000
     44 H2          5.0070    9.0370   -7.3240 ha        1 S61      0.142000
     45 H1          2.5870    8.4320   -7.1450 ha        1 S61      0.153000
     46 H152        3.4060    0.3790   -3.5500 hn        1 S61      0.325500
@<TRIPOS>BOND
     1    1    2 1   
     2    1   29 1   
     3    1   30 1   
     4    1   31 1   
     5    2    3 ar  
     6    2    7 ar  
     7    3    4 ar  
     8    3   32 1   
     9    4    5 ar  
    10    4   33 1   
    11    5    6 ar  
    12    5   34 1   
    13    6    7 ar  
    14    6   35 1   
    15    7    8 1   
    16    8    9 1   
    17    8   13 1   
    18    8   36 1   
    19    9   10 1   
    20    9   37 1   
    21    9   38 1   
    22   10   11 2   
    23   10   12 1   
    24   12   39 1   
    25   13   14 1   
    26   13   46 1   
    27   14   15 2   
    28   14   16 1   
    29   16   17 1   
    30   16   18 2   
    31   17   21 1   
    32   17   40 1   
    33   18   19 1   
    34   18   41 1   
    35   19   20 2   
    36   19   21 1   
    37   21   22 1   
    38   22   23 ar  
    39   22   27 ar  
    40   23   24 ar  
    41   23   42 1   
    42   24   25 ar  
    43   24   43 1   
    44   25   26 ar  
    45   25   44 1   
    46   26   27 ar  
    47   26   45 1   
    48   27   28 1   
@<TRIPOS>SUBSTRUCTURE
     1 S61         1 TEMP              0 ****  ****    0 ROOT
