@<TRIPOS>MOLECULE
S61
   45    47     1     0     0
SMALL
bcc


@<TRIPOS>ATOM
      1 C26         4.2620    0.6780    2.2890 c3        1 S61     -0.066800
      2 C25         4.3970    1.4490    1.0300 ca        1 S61     -0.055300
      3 C24         5.1210    2.6490    1.0380 ca        1 S61     -0.146000
      4 C23         5.2400    3.4210   -0.1130 ca        1 S61     -0.140000
      5 C22         4.6270    3.0030   -1.2930 ca        1 S61     -0.150000
      6 C21         3.9100    1.8090   -1.3150 ca        1 S61     -0.107000
      7 C20         3.8010    1.0160   -0.1670 ca        1 S61     -0.066300
      8 C16         3.0410   -0.2930   -0.2440 c3        1 S61      0.140000
      9 C17         3.6860   -1.2080   -1.2990 c3        1 S61     -0.216400
     10 C18         2.8490   -2.4690   -1.5850 c         1 S61      0.909600
     11 O27         1.7160   -2.3190   -2.1460 o         1 S61     -0.843800
     12 O19         3.3310   -3.5880   -1.2720 o         1 S61     -0.843800
     13 N15         1.6250   -0.0660   -0.5130 n         1 S61     -0.501900
     14 C14         0.7040   -0.1860    0.5040 c         1 S61      0.677300
     15 O28         0.9500    0.0110    1.7140 o         1 S61     -0.626100
     16 C10        -0.6860   -0.5300    0.0750 cc        1 S61      0.002800
     17 N9         -1.8230    0.1160    0.6840 na        1 S61     -0.437000
     18 C11        -1.0660   -1.4440   -0.8700 cd        1 S61     -0.219200
     19 C12        -2.5550   -1.4980   -0.8340 c         1 S61      0.675700
     20 O13        -3.3470   -2.1590   -1.5100 o         1 S61     -0.593500
     21 N7         -2.9530   -0.6180    0.2650 n         1 S61     -0.257400
     22 C5         -4.1990    0.0690    0.2690 ca        1 S61      0.042600
     23 C4         -5.0450    0.0930   -0.8590 ca        1 S61     -0.122000
     24 C3         -6.2960    0.6980   -0.8040 ca        1 S61     -0.132000
     25 C2         -6.7380    1.3130    0.3650 ca        1 S61     -0.130000
     26 C1         -5.9270    1.3180    1.4930 ca        1 S61     -0.160000
     27 C6         -4.6650    0.7000    1.4620 ca        1 S61      0.111900
     28 F8         -3.9100    0.7190    2.5880 f         1 S61     -0.140900
     29 H261        3.1780    0.4930    2.5130 hc        1 S61      0.051367
     30 H262        4.7780   -0.3100    2.2000 hc        1 S61      0.051367
     31 H263        4.7120    1.2300    3.1510 hc        1 S61      0.051367
     32 H24         5.5960    2.9860    1.9710 ha        1 S61      0.118000
     33 H23         5.8110    4.3600   -0.0900 ha        1 S61      0.114000
     34 H22         4.7060    3.6130   -2.2040 ha        1 S61      0.118000
     35 H21         3.4200    1.4820   -2.2450 ha        1 S61      0.139000
     36 H16         3.1250   -0.8240    0.7550 h1        1 S61      0.071700
     37 H171        3.8170   -0.6580   -2.2630 hc        1 S61      0.044200
     38 H172        4.6940   -1.5100   -0.9210 hc        1 S61      0.044200
     39 H15         1.3330   -0.4270   -1.4130 hn        1 S61      0.350500
     40 H9         -1.7660    0.0940    1.6970 hn        1 S61      0.417800
     41 H11        -0.4360   -2.0480   -1.5390 ha        1 S61      0.251000
     42 H4         -4.7200   -0.3890   -1.7970 ha        1 S61      0.168000
     43 H3         -6.9360    0.6920   -1.6990 ha        1 S61      0.133000
     44 H2         -7.7260    1.7940    0.4000 ha        1 S61      0.129000
     45 H1         -6.2590    1.7990    2.4250 ha        1 S61      0.141000
@<TRIPOS>BOND
     1    1    2 1   
     2    1   29 1   
     3    1   30 1   
     4    1   31 1   
     5    2    3 ar  
     6    2    7 ar  
     7    3    4 ar  
     8    3   32 1   
     9    4    5 ar  
    10    4   33 1   
    11    5    6 ar  
    12    5   34 1   
    13    6    7 ar  
    14    6   35 1   
    15    7    8 1   
    16    8    9 1   
    17    8   13 1   
    18    8   36 1   
    19    9   10 1   
    20    9   37 1   
    21    9   38 1   
    22   10   11 1   
    23   10   12 1   
    24   13   14 1   
    25   13   39 1   
    26   14   15 2   
    27   14   16 1   
    28   16   17 1   
    29   16   18 2   
    30   17   21 1   
    31   17   40 1   
    32   18   19 1   
    33   18   41 1   
    34   19   20 2   
    35   19   21 1   
    36   21   22 1   
    37   22   23 ar  
    38   22   27 ar  
    39   23   24 ar  
    40   23   42 1   
    41   24   25 ar  
    42   24   43 1   
    43   25   26 ar  
    44   25   44 1   
    45   26   27 ar  
    46   26   45 1   
    47   27   28 1   
@<TRIPOS>SUBSTRUCTURE
     1 S61         1 TEMP              0 ****  ****    0 ROOT
