@<TRIPOS>MOLECULE
S61
   46    48     1     0     0
SMALL
bcc


@<TRIPOS>ATOM
      1 C26         0.4340    1.2930   -0.1570 c3        1 S61     -0.064800
      2 C25         1.7460    0.6070   -0.0790 ca        1 S61     -0.050300
      3 C24         2.4390    0.6080    1.1410 ca        1 S61     -0.129000
      4 C23         3.6760   -0.0190    1.2620 ca        1 S61     -0.112000
      5 C22         4.2390   -0.6630    0.1610 ca        1 S61     -0.130000
      6 C21         3.5600   -0.6740   -1.0550 ca        1 S61     -0.122000
      7 C20         2.3160   -0.0440   -1.1840 ca        1 S61     -0.120300
      8 C16         1.6120   -0.0800   -2.5230 c3        1 S61      0.146000
      9 C17         1.2390   -1.5400   -2.8350 c3        1 S61     -0.191400
     10 C18         0.7010   -1.7760   -4.2130 c         1 S61      0.628100
     11 O27         0.9640   -2.7560   -4.9140 o         1 S61     -0.497000
     12 O19        -0.1890   -0.9210   -4.7890 oh        1 S61     -0.578100
     13 N15         2.4090    0.5300   -3.5700 n         1 S61     -0.553900
     14 C14         1.9070    1.5510   -4.3480 c         1 S61      0.691300
     15 O28         0.6990    1.8670   -4.3260 o         1 S61     -0.602100
     16 C10         2.8640    2.2280   -5.2640 cc        1 S61      0.018800
     17 N9          2.7100    3.6330   -5.5310 na        1 S61     -0.433000
     18 C11         3.9510    1.7160   -5.9170 cd        1 S61     -0.239200
     19 C12         4.5000    2.8150   -6.7660 c         1 S61      0.677700
     20 O13         5.4810    2.8030   -7.5110 o         1 S61     -0.571500
     21 N7          3.5780    3.9270   -6.6010 n         1 S61     -0.232400
     22 C5          3.9930    5.2870   -6.7370 ca        1 S61      0.012600
     23 C4          5.3520    5.6440   -6.8320 ca        1 S61     -0.112000
     24 C3          5.7260    6.9660   -7.0530 ca        1 S61     -0.128000
     25 C2          4.7640    7.9670   -7.1690 ca        1 S61     -0.110000
     26 C1          3.4150    7.6490   -7.0680 ca        1 S61     -0.154000
     27 C6          3.0160    6.3180   -6.8560 ca        1 S61      0.122900
     28 F8          1.6910    6.0430   -6.7660 f         1 S61     -0.138900
     29 H261        0.4600    2.1100   -0.9220 hc        1 S61      0.052033
     30 H262        0.1590    1.7500    0.8260 hc        1 S61      0.052033
     31 H263       -0.3720    0.5690   -0.4370 hc        1 S61      0.052033
     32 H24         1.9970    1.1150    2.0130 ha        1 S61      0.139000
     33 H23         4.2070   -0.0070    2.2250 ha        1 S61      0.139000
     34 H22         5.2160   -1.1620    0.2510 ha        1 S61      0.139000
     35 H21         4.0070   -1.1930   -1.9170 ha        1 S61      0.131000
     36 H16         0.6450    0.5110   -2.4510 h1        1 S61      0.090700
     37 H171        0.4570   -1.8600   -2.0940 hc        1 S61      0.091200
     38 H172        2.1320   -2.2070   -2.6960 hc        1 S61      0.091200
     39 H15        -0.2970   -0.1190   -4.2550 ho        1 S61      0.443000
     40 H9          1.7580    3.8860   -5.7790 hn        1 S61      0.436800
     41 H11         4.3910    0.7230   -5.8830 ha        1 S61      0.188000
     42 H4          6.1330    4.8690   -6.7530 ha        1 S61      0.164000
     43 H3          6.7950    7.2160   -7.1350 ha        1 S61      0.143000
     44 H2          5.0680    9.0100   -7.3410 ha        1 S61      0.142000
     45 H1          2.6420    8.4280   -7.1570 ha        1 S61      0.153000
     46 H152        3.3900    0.3740   -3.5470 hn        1 S61      0.325500
@<TRIPOS>BOND
     1    1    2 1   
     2    1   29 1   
     3    1   30 1   
     4    1   31 1   
     5    2    3 ar  
     6    2    7 ar  
     7    3    4 ar  
     8    3   32 1   
     9    4    5 ar  
    10    4   33 1   
    11    5    6 ar  
    12    5   34 1   
    13    6    7 ar  
    14    6   35 1   
    15    7    8 1   
    16    8    9 1   
    17    8   13 1   
    18    8   36 1   
    19    9   10 1   
    20    9   37 1   
    21    9   38 1   
    22   10   11 2   
    23   10   12 1   
    24   12   39 1   
    25   13   14 1   
    26   13   46 1   
    27   14   15 2   
    28   14   16 1   
    29   16   17 1   
    30   16   18 2   
    31   17   21 1   
    32   17   40 1   
    33   18   19 1   
    34   18   41 1   
    35   19   20 2   
    36   19   21 1   
    37   21   22 1   
    38   22   23 ar  
    39   22   27 ar  
    40   23   24 ar  
    41   23   42 1   
    42   24   25 ar  
    43   24   43 1   
    44   25   26 ar  
    45   25   44 1   
    46   26   27 ar  
    47   26   45 1   
    48   27   28 1   
@<TRIPOS>SUBSTRUCTURE
     1 S61         1 TEMP              0 ****  ****    0 ROOT
