@<TRIPOS>MOLECULE
S62
   20    21     1     0     0
SMALL
bcc


@<TRIPOS>ATOM
      1 C1          0.0190    0.0180   -0.0470 ca        1 S62      0.021000
      2 C2          1.4300    0.0130   -0.0350 ca        1 S62      0.040400
      3 C3          2.1240    0.0180    1.2200 ca        1 S62     -0.070100
      4 C4          1.4000    0.0240    2.4140 ca        1 S62     -0.150000
      5 C5          0.0160    0.0300    2.3650 ca        1 S62     -0.043000
      6 C6         -0.6850    0.0330    1.1460 ca        1 S62     -0.291500
      7 S13         3.7870    0.0120    0.9390 ss        1 S62     -0.051100
      8 C14         3.5410    0.0000   -0.7800 cc        1 S62      0.223600
      9 N15         2.2810    0.0020   -1.1570 nd        1 S62     -0.467100
     10 S20         4.8990   -0.0130   -1.9810 s6        1 S62      1.406900
     11 O22         4.7520   -1.2050   -2.7110 o         1 S62     -0.738200
     12 O24         4.7530    1.1630   -2.7370 o         1 S62     -0.738200
     13 O26         6.0540   -0.0050   -1.1640 o         1 S62     -0.738200
     14 S28        -2.4460    0.0640    1.1920 s6        1 S62      1.457100
     15 O30        -2.8030   -0.6910    2.3420 o         1 S62     -0.752867
     16 O32        -2.8080    1.4290    1.3130 o         1 S62     -0.752867
     17 O34        -2.8810   -0.5210   -0.0230 o         1 S62     -0.752867
     18 H1         -0.5250   -0.0000   -1.0070 ha        1 S62      0.156000
     19 H4          1.9270    0.0220    3.3780 ha        1 S62      0.107000
     20 H5         -0.5700    0.0190    3.3000 ha        1 S62      0.135000
@<TRIPOS>BOND
     1    1    2 ar  
     2    1    6 ar  
     3    1   18 1   
     4    2    3 ar  
     5    2    9 1   
     6    3    4 ar  
     7    3    7 1   
     8    4    5 ar  
     9    4   19 1   
    10    5    6 ar  
    11    5   20 1   
    12    6   14 1   
    13    7    8 1   
    14    8    9 2   
    15    8   10 1   
    16   10   11 1   
    17   10   12 1   
    18   10   13 1   
    19   14   15 1   
    20   14   16 1   
    21   14   17 1   
@<TRIPOS>SUBSTRUCTURE
     1 S62         1 TEMP              0 ****  ****    0 ROOT
