@<TRIPOS>MOLECULE
S62
   20    21     1     0     0
SMALL
bcc


@<TRIPOS>ATOM
      1 C1         -1.3270   -0.6650    0.0400 ca        1 S62      0.021000
      2 C2         -0.0270   -0.1140    0.0180 ca        1 S62      0.040400
      3 C3          0.1340    1.3110   -0.0220 ca        1 S62     -0.070100
      4 C4         -0.9920    2.1370   -0.0330 ca        1 S62     -0.150000
      5 C5         -2.2520    1.5630   -0.0110 ca        1 S62     -0.043000
      6 C6         -2.4330    0.1690    0.0190 ca        1 S62     -0.291500
      7 S13         1.7780    1.6860   -0.0420 ss        1 S62     -0.051100
      8 C14         2.2090    0.0040    0.0020 cc        1 S62      0.223600
      9 N15         1.1880   -0.8250    0.0310 nd        1 S62     -0.467100
     10 S20         3.9220   -0.5870    0.0090 s6        1 S62      1.406900
     11 O22         4.0790   -1.2910    1.2160 o         1 S62     -0.738200
     12 O24         4.0630   -1.3670   -1.1510 o         1 S62     -0.738200
     13 O26         4.6770    0.6090   -0.0350 o         1 S62     -0.738200
     14 S28        -4.0780   -0.4630    0.0220 s6        1 S62      1.457100
     15 O30        -4.8390    0.4810    0.7640 o         1 S62     -0.752867
     16 O32        -4.4750   -0.5200   -1.3390 o         1 S62     -0.752867
     17 O34        -4.0090   -1.7380    0.6340 o         1 S62     -0.752867
     18 H1         -1.4620   -1.7590    0.0850 ha        1 S62      0.156000
     19 H4         -0.8720    3.2290   -0.0570 ha        1 S62      0.107000
     20 H5         -3.1500    2.2030   -0.0040 ha        1 S62      0.135000
@<TRIPOS>BOND
     1    1    2 ar  
     2    1    6 ar  
     3    1   18 1   
     4    2    3 ar  
     5    2    9 1   
     6    3    4 ar  
     7    3    7 1   
     8    4    5 ar  
     9    4   19 1   
    10    5    6 ar  
    11    5   20 1   
    12    6   14 1   
    13    7    8 1   
    14    8    9 2   
    15    8   10 1   
    16   10   11 1   
    17   10   12 1   
    18   10   13 1   
    19   14   15 1   
    20   14   16 1   
    21   14   17 1   
@<TRIPOS>SUBSTRUCTURE
     1 S62         1 TEMP              0 ****  ****    0 ROOT
