@<TRIPOS>MOLECULE
S69
   41    42     1     0     0
SMALL
bcc


@<TRIPOS>ATOM
      1 C1         -3.3380    0.9090   -1.2880 ca        1 S69     -0.067300
      2 C2         -2.5880    1.8960   -2.1090 c3        1 S69     -0.116100
      3 C3         -1.1190    1.5400   -2.2930 c         1 S69      0.682100
      4 O4         -0.5830    1.5910   -3.4080 o         1 S69     -0.548100
      5 N5         -0.4290    1.2100   -1.1090 n         1 S69     -0.334900
      6 N6          0.8680    0.9040   -1.1020 n2        1 S69     -0.465300
      7 C7          1.4340    0.3660   -0.0540 ce        1 S69      0.387800
      8 C8          2.8640    0.0580   -0.0060 ca        1 S69     -0.247900
      9 C9         -3.8960   -0.2270   -1.8900 ca        1 S69     -0.151000
     10 C10        -4.6120   -1.1430   -1.1250 ca        1 S69     -0.089000
     11 C11        -4.7840   -0.9480    0.2450 ca        1 S69     -0.197000
     12 C12        -4.2280    0.1890    0.8440 ca        1 S69      0.127100
     13 O13        -4.3220    0.4920    2.1880 os        1 S69     -0.328900
     14 C14        -5.0970   -0.4010    2.9810 c3        1 S69      0.112700
     15 C15        -3.5050    1.1230    0.0820 ca        1 S69     -0.169000
     16 C16         3.5120    0.1280    1.2490 ca        1 S69      0.007700
     17 C17         2.7730    0.5660    2.4600 c3        1 S69     -0.061800
     18 C18         4.8560   -0.2080    1.3770 ca        1 S69     -0.201000
     19 C19         5.5790   -0.6180    0.2430 ca        1 S69      0.173100
     20 O20         6.8990   -0.9410    0.4450 oh        1 S69     -0.494100
     21 C21         4.9760   -0.6810   -1.0120 ca        1 S69     -0.266000
     22 C22         3.6170   -0.3310   -1.1330 ca        1 S69      0.218100
     23 O23         3.1390   -0.4420   -2.4100 oh        1 S69     -0.500100
     24 H2         -3.0390    1.9650   -3.1370 hc        1 S69      0.089200
     25 H2A        -2.6410    2.9180   -1.6440 hc        1 S69      0.089200
     26 HN5        -0.9940    1.0360   -0.2940 hn        1 S69      0.304500
     27 H7          0.8870    0.1210    0.8850 h4        1 S69     -0.007200
     28 H9         -3.7670   -0.3920   -2.9700 ha        1 S69      0.144000
     29 H10        -5.0470   -2.0340   -1.6040 ha        1 S69      0.139000
     30 H11        -5.3520   -1.6810    0.8350 ha        1 S69      0.142000
     31 H14        -5.0540    0.0560    4.0020 h1        1 S69      0.047033
     32 H14A       -6.1500   -0.4450    2.6120 h1        1 S69      0.047033
     33 H14B       -4.6390   -1.4200    2.9860 h1        1 S69      0.047033
     34 H15        -3.0930    2.0160    0.5740 ha        1 S69      0.150000
     35 H17         2.0300   -0.2150    2.7640 hc        1 S69      0.049033
     36 H17A        3.4700    0.7340    3.3180 hc        1 S69      0.049033
     37 H17B        2.2250    1.5210    2.2630 hc        1 S69      0.049033
     38 H18         5.3660   -0.1570    2.3490 ha        1 S69      0.153000
     39 HO20        7.2810   -1.1930   -0.4100 ho        1 S69      0.424000
     40 H21         5.5330   -0.9900   -1.9070 ha        1 S69      0.155000
     41 HO23        2.2450   -0.0710   -2.4690 ho        1 S69      0.456000
@<TRIPOS>BOND
     1    1    2 1   
     2    1    9 ar  
     3    1   15 ar  
     4    2    3 1   
     5    2   24 1   
     6    2   25 1   
     7    3    4 2   
     8    3    5 1   
     9    5    6 1   
    10    5   26 1   
    11    6    7 2   
    12    7    8 1   
    13    7   27 1   
    14    8   16 ar  
    15    8   22 ar  
    16    9   10 ar  
    17    9   28 1   
    18   10   11 ar  
    19   10   29 1   
    20   11   12 ar  
    21   11   30 1   
    22   12   13 1   
    23   12   15 ar  
    24   13   14 1   
    25   14   31 1   
    26   14   32 1   
    27   14   33 1   
    28   15   34 1   
    29   16   17 1   
    30   16   18 ar  
    31   17   35 1   
    32   17   36 1   
    33   17   37 1   
    34   18   19 ar  
    35   18   38 1   
    36   19   20 1   
    37   19   21 ar  
    38   20   39 1   
    39   21   22 ar  
    40   21   40 1   
    41   22   23 1   
    42   23   41 1   
@<TRIPOS>SUBSTRUCTURE
     1 S69         1 TEMP              0 ****  ****    0 ROOT
