@<TRIPOS>MOLECULE
S69
   42    43     1     0     0
SMALL
bcc


@<TRIPOS>ATOM
      1 C1         -0.7090   -0.2530   -0.4010 ca        1 S69     -0.128300
      2 C2         -1.7020   -0.2290   -1.5080 c3        1 S69     -0.101100
      3 C3         -1.3100    0.6840   -2.6340 c         1 S69      0.544100
      4 O4         -1.4280    0.4860   -3.8330 o         1 S69     -0.438100
      5 N5         -0.7090    2.0320   -2.2290 ny        1 S69     -0.371900
      6 N6         -1.3980    3.1940   -2.5930 n2        1 S69     -0.549400
      7 C7         -1.6440    3.4810   -3.8510 ce        1 S69      0.573800
      8 C8         -2.3130    4.6960   -4.2690 ca        1 S69     -0.289900
      9 C9          0.3490   -1.1670   -0.4300 ca        1 S69     -0.149000
     10 C10         1.2530   -1.2180    0.6320 ca        1 S69     -0.076000
     11 C11         1.1200   -0.3630    1.7220 ca        1 S69     -0.174000
     12 C12         0.0560    0.5520    1.7490 ca        1 S69      0.148100
     13 O13        -0.1750    1.4560    2.7590 os        1 S69     -0.320900
     14 C14         0.6530    1.3440    3.9170 c3        1 S69      0.107700
     15 C15        -0.8670    0.6080    0.6880 ca        1 S69     -0.187000
     16 C16        -3.0840    4.6590   -5.4650 ca        1 S69      0.043700
     17 C17        -3.1980    3.4080   -6.2560 c3        1 S69     -0.080800
     18 C18        -3.7530    5.7880   -5.9070 ca        1 S69     -0.199000
     19 C19        -3.6640    6.9940   -5.1750 ca        1 S69      0.240100
     20 O20        -4.3550    8.0530   -5.6800 oh        1 S69     -0.464100
     21 C21        -2.9010    7.0670   -4.0070 ca        1 S69     -0.335000
     22 C22        -2.2300    5.9180   -3.5600 ca        1 S69      0.255100
     23 O23        -1.4380    5.9650   -2.4470 oh        1 S69     -0.482100
     24 H2         -2.7110    0.1090   -1.1330 hc        1 S69      0.125200
     25 H2A        -1.8310   -1.2610   -1.9450 hc        1 S69      0.125200
     26 HN5         0.2650    2.0530   -2.5710 hn        1 S69      0.470300
     27 H7         -1.3800    2.7910   -4.6940 h4        1 S69      0.030800
     28 H9          0.4600   -1.8620   -1.2760 ha        1 S69      0.148000
     29 H10         2.0790   -1.9480    0.6100 ha        1 S69      0.158000
     30 H11         1.8370   -0.4180    2.5550 ha        1 S69      0.161000
     31 H14         1.7150    1.5730    3.6580 h1        1 S69      0.059033
     32 H14A        0.5630    0.3270    4.3690 h1        1 S69      0.059033
     33 H14B        0.2340    2.1240    4.6030 h1        1 S69      0.059033
     34 H15        -1.7200    1.2990    0.7620 ha        1 S69      0.157000
     35 H17        -3.9420    3.5220   -7.0840 hc        1 S69      0.063700
     36 H17A       -2.2100    3.1490   -6.7170 hc        1 S69      0.063700
     37 H17B       -3.5300    2.5570   -5.6110 hc        1 S69      0.063700
     38 H18        -4.3600    5.7710   -6.8260 ha        1 S69      0.177000
     39 HO20       -4.2250    8.8230   -5.1020 ho        1 S69      0.442000
     40 H21        -2.8240    8.0090   -3.4440 ha        1 S69      0.158000
     41 HO23       -1.4760    6.8610   -2.0750 ho        1 S69      0.445000
     42 H52        -0.6880    2.0830   -1.1900 hn        1 S69      0.470300
@<TRIPOS>BOND
     1    1    2 1   
     2    1    9 ar  
     3    1   15 ar  
     4    2    3 1   
     5    2   24 1   
     6    2   25 1   
     7    3    4 2   
     8    3    5 1   
     9    5    6 1   
    10    5   26 1   
    11    5   42 1   
    12    6    7 2   
    13    7    8 1   
    14    7   27 1   
    15    8   16 ar  
    16    8   22 ar  
    17    9   10 ar  
    18    9   28 1   
    19   10   11 ar  
    20   10   29 1   
    21   11   12 ar  
    22   11   30 1   
    23   12   13 1   
    24   12   15 ar  
    25   13   14 1   
    26   14   31 1   
    27   14   32 1   
    28   14   33 1   
    29   15   34 1   
    30   16   17 1   
    31   16   18 ar  
    32   17   35 1   
    33   17   36 1   
    34   17   37 1   
    35   18   19 ar  
    36   18   38 1   
    37   19   20 1   
    38   19   21 ar  
    39   20   39 1   
    40   21   22 ar  
    41   21   40 1   
    42   22   23 1   
    43   23   41 1   
@<TRIPOS>SUBSTRUCTURE
     1 S69         1 TEMP              0 ****  ****    0 ROOT
