@<TRIPOS>MOLECULE
S69
   42    43     1     0     0
SMALL
bcc


@<TRIPOS>ATOM
      1 C1         -0.1770   -0.3150   -0.6830 ca        1 S69     -0.133300
      2 C2         -0.9600   -0.6000   -1.9150 c3        1 S69     -0.108100
      3 C3         -1.5940    0.6090   -2.5420 c         1 S69      0.533100
      4 O4         -2.4550    0.6160   -3.4080 o         1 S69     -0.432100
      5 N5         -1.0890    1.9560   -2.0240 n4        1 S69     -0.363900
      6 N6         -1.2310    3.1230   -2.7770 n2        1 S69     -0.547400
      7 C7         -2.3790    3.4840   -3.2990 ce        1 S69      0.584800
      8 C8         -2.5440    4.7150   -4.0490 ca        1 S69     -0.288900
      9 C9          1.2030   -0.5290   -0.6610 ca        1 S69     -0.149000
     10 C10         1.9220   -0.3090    0.5160 ca        1 S69     -0.074000
     11 C11         1.2820    0.1340    1.6690 ca        1 S69     -0.173000
     12 C12        -0.1050    0.3520    1.6420 ca        1 S69      0.151100
     13 O13        -0.8470    0.8090    2.7050 os        1 S69     -0.322900
     14 C14        -0.1700    0.9170    3.9580 c3        1 S69      0.107700
     15 C15        -0.8410    0.1240    0.4670 ca        1 S69     -0.199000
     16 C16        -3.4700    4.7210   -5.1280 ca        1 S69      0.043700
     17 C17        -4.2370    3.4970   -5.4720 c3        1 S69     -0.080800
     18 C18        -3.6610    5.8660   -5.8850 ca        1 S69     -0.198000
     19 C19        -2.9400    7.0420   -5.5770 ca        1 S69      0.237100
     20 O20        -3.1870    8.1210   -6.3720 oh        1 S69     -0.465100
     21 C21        -2.0370    7.0720   -4.5110 ca        1 S69     -0.333000
     22 C22        -1.8430    5.9070   -3.7540 ca        1 S69      0.250100
     23 O23        -1.0030    5.9070   -2.6740 oh        1 S69     -0.486100
     24 H2         -0.3110   -1.0780   -2.7060 hc        1 S69      0.129200
     25 H2A        -1.7920   -1.3290   -1.6850 hc        1 S69      0.129200
     26 HN5        -0.0590    1.8690   -1.9130 hn        1 S69      0.474300
     27 H7         -3.3070    2.8620   -3.2370 h4        1 S69      0.028800
     28 H9          1.7260   -0.8920   -1.5590 ha        1 S69      0.149000
     29 H10         3.0090   -0.4940    0.5320 ha        1 S69      0.160000
     30 H11         1.8600    0.2990    2.5910 ha        1 S69      0.163000
     31 H14         0.6270    1.6980    3.9010 h1        1 S69      0.060033
     32 H14A        0.2590   -0.0690    4.2600 h1        1 S69      0.060033
     33 H14B       -0.9850    1.2300    4.6600 h1        1 S69      0.060033
     34 H15        -1.9340    0.2450    0.4890 ha        1 S69      0.150000
     35 H17        -4.9980    3.2840   -4.6780 hc        1 S69      0.064033
     36 H17A       -3.5590    2.6130   -5.5670 hc        1 S69      0.064033
     37 H17B       -4.7790    3.6230   -6.4420 hc        1 S69      0.064033
     38 H18        -4.3660    5.8820   -6.7300 ha        1 S69      0.176000
     39 HO20       -2.6410    8.8670   -6.0750 ho        1 S69      0.441000
     40 H21        -1.4850    7.9910   -4.2670 ha        1 S69      0.157000
     41 HO23       -0.5980    6.7860   -2.5960 ho        1 S69      0.444000
     42 H52        -1.4880    2.0750   -1.0750 hn        1 S69      0.474300
@<TRIPOS>BOND
     1    1    2 1   
     2    1    9 ar  
     3    1   15 ar  
     4    2    3 1   
     5    2   24 1   
     6    2   25 1   
     7    3    4 2   
     8    3    5 1   
     9    5    6 1   
    10    5   26 1   
    11    5   42 1   
    12    6    7 2   
    13    7    8 1   
    14    7   27 1   
    15    8   16 ar  
    16    8   22 ar  
    17    9   10 ar  
    18    9   28 1   
    19   10   11 ar  
    20   10   29 1   
    21   11   12 ar  
    22   11   30 1   
    23   12   13 1   
    24   12   15 ar  
    25   13   14 1   
    26   14   31 1   
    27   14   32 1   
    28   14   33 1   
    29   15   34 1   
    30   16   17 1   
    31   16   18 ar  
    32   17   35 1   
    33   17   36 1   
    34   17   37 1   
    35   18   19 ar  
    36   18   38 1   
    37   19   20 1   
    38   19   21 ar  
    39   20   39 1   
    40   21   22 ar  
    41   21   40 1   
    42   22   23 1   
    43   23   41 1   
@<TRIPOS>SUBSTRUCTURE
     1 S69         1 TEMP              0 ****  ****    0 ROOT
