@<TRIPOS>MOLECULE
S69
   42    43     1     0     0
SMALL
bcc


@<TRIPOS>ATOM
      1 C1         -0.7330   -0.2480   -0.3830 ca        1 S69     -0.128300
      2 C2         -1.7380   -0.2200   -1.4780 c3        1 S69     -0.101100
      3 C3         -1.3450    0.6770   -2.6170 c         1 S69      0.544100
      4 O4         -1.4800    0.4710   -3.8130 o         1 S69     -0.438100
      5 N5         -0.7200    2.0190   -2.2310 n4        1 S69     -0.371900
      6 N6         -1.3970    3.1880   -2.5980 n2        1 S69     -0.549400
      7 C7         -1.6530    3.4680   -3.8560 ce        1 S69      0.573800
      8 C8         -2.3090    4.6890   -4.2770 ca        1 S69     -0.289900
      9 C9          0.3120   -1.1780   -0.4150 ca        1 S69     -0.149000
     10 C10         1.2270   -1.2320    0.6370 ca        1 S69     -0.076000
     11 C11         1.1180   -0.3660    1.7210 ca        1 S69     -0.174000
     12 C12         0.0680    0.5650    1.7520 ca        1 S69      0.148100
     13 O13        -0.1390    1.4810    2.7550 os        1 S69     -0.320900
     14 C14         0.7000    1.3670    3.9050 c3        1 S69      0.107700
     15 C15        -0.8660    0.6250    0.7010 ca        1 S69     -0.187000
     16 C16        -3.0940    4.6520   -5.4640 ca        1 S69      0.043700
     17 C17        -3.2350    3.3960   -6.2420 c3        1 S69     -0.080800
     18 C18        -3.7510    5.7870   -5.9090 ca        1 S69     -0.199000
     19 C19        -3.6350    6.9980   -5.1890 ca        1 S69      0.240100
     20 O20        -4.3170    8.0630   -5.6960 oh        1 S69     -0.464100
     21 C21        -2.8580    7.0710   -4.0300 ca        1 S69     -0.335000
     22 C22        -2.1990    5.9160   -3.5810 ca        1 S69      0.255100
     23 O23        -1.3930    5.9610   -2.4780 oh        1 S69     -0.482100
     24 H2         -2.7380    0.1350   -1.0950 hc        1 S69      0.125200
     25 H2A        -1.8860   -1.2540   -1.9050 hc        1 S69      0.125200
     26 HN5         0.2500    2.0230   -2.5840 hn        1 S69      0.470300
     27 H7         -1.4090    2.7670   -4.6950 h4        1 S69      0.030800
     28 H9          0.4040   -1.8820   -1.2560 ha        1 S69      0.148000
     29 H10         2.0420   -1.9740    0.6120 ha        1 S69      0.158000
     30 H11         1.8440   -0.4240    2.5460 ha        1 S69      0.161000
     31 H14         1.7620    1.5780    3.6330 h1        1 S69      0.059033
     32 H14A        0.6000    0.3560    4.3670 h1        1 S69      0.059033
     33 H14B        0.3000    2.1590    4.5890 h1        1 S69      0.059033
     34 H15        -1.7090    1.3280    0.7770 ha        1 S69      0.157000
     35 H17        -3.9870    3.5140   -7.0620 hc        1 S69      0.063700
     36 H17A       -2.2570    3.1180   -6.7120 hc        1 S69      0.063700
     37 H17B       -3.5730    2.5560   -5.5850 hc        1 S69      0.063700
     38 H18        -4.3690    5.7710   -6.8200 ha        1 S69      0.177000
     39 HO20       -4.1680    8.8360   -5.1260 ho        1 S69      0.442000
     40 H21        -2.7600    8.0160   -3.4770 ha        1 S69      0.158000
     41 HO23       -1.4140    6.8610   -2.1130 ho        1 S69      0.445000
     42 H52        -0.6870    2.0800   -1.1930 hn        1 S69      0.470300
@<TRIPOS>BOND
     1    1    2 1   
     2    1    9 ar  
     3    1   15 ar  
     4    2    3 1   
     5    2   24 1   
     6    2   25 1   
     7    3    4 2   
     8    3    5 1   
     9    5    6 1   
    10    5   26 1   
    11    5   42 1   
    12    6    7 2   
    13    7    8 1   
    14    7   27 1   
    15    8   16 ar  
    16    8   22 ar  
    17    9   10 ar  
    18    9   28 1   
    19   10   11 ar  
    20   10   29 1   
    21   11   12 ar  
    22   11   30 1   
    23   12   13 1   
    24   12   15 ar  
    25   13   14 1   
    26   14   31 1   
    27   14   32 1   
    28   14   33 1   
    29   15   34 1   
    30   16   17 1   
    31   16   18 ar  
    32   17   35 1   
    33   17   36 1   
    34   17   37 1   
    35   18   19 ar  
    36   18   38 1   
    37   19   20 1   
    38   19   21 ar  
    39   20   39 1   
    40   21   22 ar  
    41   21   40 1   
    42   22   23 1   
    43   23   41 1   
@<TRIPOS>SUBSTRUCTURE
     1 S69         1 TEMP              0 ****  ****    0 ROOT
