@<TRIPOS>MOLECULE
S6G
   35    33     1     0     0
SMALL
bcc


@<TRIPOS>ATOM
      1 P           4.1760   -2.5040    2.1120 p3        1 S6G      2.524000
      2 OP1         3.9440   -3.4310    0.9530 o         1 S6G     -1.261000
      3 OP2         5.5400   -1.8680    1.9810 os        1 S6G     -1.227000
      4 OP3         4.1050   -3.2820    3.3970 o         1 S6G     -1.261000
      5 O5'         3.0660   -1.3720    2.1160 os        1 S6G     -0.714000
      6 C5'         1.7000   -1.7440    2.3610 c3        1 S6G      0.079000
      7 C4'         0.7830   -0.5390    2.0780 c3        1 S6G     -0.058000
      8 O4'         0.6610   -0.3620    0.8240 os        1 S6G     -0.289000
      9 C3'        -0.6820   -0.8270    2.5960 c3        1 S6G      0.047000
     10 O3'        -0.9630   -0.0520    3.6800 oh        1 S6G     -0.401000
     11 C2'        -1.5870   -0.4730    1.4560 c3        1 S6G     -0.208000
     12 C1'        -0.8160    0.1730    0.5930 c3        1 S6G      0.159000
     13 N9         -1.2410   -0.1060   -0.7540 n3        1 S6G     -0.141000
     14 C8         -1.8040   -1.2270   -1.3060 c1        1 S6G     -0.022000
     15 N7         -2.0000   -0.9890   -2.6420 n2        1 S6G     -0.098000
     16 C5         -1.5580    0.2810   -2.9160 c1        1 S6G     -0.183000
     17 C6         -1.5130    1.0930   -4.1980 c1        1 S6G      0.110000
     18 S6         -1.8890    0.3650   -5.6760 s         1 S6G     -0.259000
     19 N1         -1.0650    2.4250   -4.1670 n3        1 S6G     -0.267000
     20 C2         -0.6550    3.0110   -2.9270 c2        1 S6G      0.135000
     21 N2         -0.1980    4.3920   -2.8890 n3        1 S6G     -0.303000
     22 N3         -0.7020    2.2330   -1.7060 n1        1 S6G     -0.186000
     23 C4         -1.0890    0.8270   -1.7500 c1        1 S6G      0.012000
     24 H5'         1.5980   -2.0220    3.3090 h1        1 S6G      0.035000
     25 H5''        1.4500   -2.5000    1.7630 h1        1 S6G      0.035000
     26 H4'         1.1410    0.2670    2.5010 h1        1 S6G      0.124000
     27 H3'        -0.7800   -1.7710    2.8220 h1        1 S6G      0.147000
     28 HO3'       -1.2280   -0.5560    4.3350 ho        1 S6G      0.301000
     29 H2'        -1.9510   -1.2840    1.0450 hc        1 S6G      0.094500
     30 H2''       -2.3050    0.1020    1.7610 hc        1 S6G      0.094500
     31 H1'        -0.8540    1.1540    0.7660 h2        1 S6G      0.106000
     32 H8         -2.0920   -2.0120   -0.8230 DU        1 S6G      0.259000
     33 HN1        -1.0570    2.9370   -4.9540 hn        1 S6G      0.253000
     34 HN21       -0.3290    4.9350   -3.6090 hn        1 S6G      0.181000
     35 HN22        0.1920    4.7240   -2.1300 hn        1 S6G      0.181000
@<TRIPOS>BOND
     1    1    2 1   
     2    1    4 1   
     3    1    5 1   
     4    5    6 1   
     5    6    7 1   
     6    6   24 1   
     7    6   25 1   
     8    7    8 1   
     9    7    9 1   
    10    7   26 1   
    11    8   12 1   
    12    9   10 1   
    13    9   11 1   
    14    9   27 1   
    15   10   28 1   
    16   11   12 1   
    17   11   29 1   
    18   11   30 1   
    19   12   13 1   
    20   12   31 1   
    21   13   14 1   
    22   13   23 1   
    23   14   15 1   
    24   15   16 1   
    25   16   23 1   
    26   17   18 1   
    27   17   19 1   
    28   19   20 1   
    29   19   33 1   
    30   20   21 1   
    31   20   22 1   
    32   21   34 1   
    33   21   35 1   
@<TRIPOS>SUBSTRUCTURE
     1 S6G         1 TEMP              0 ****  ****    0 ROOT
