@<TRIPOS>MOLECULE
S6G
   35    37     1     0     0
SMALL
bcc


@<TRIPOS>ATOM
      1 P           4.8210   -0.1070    1.2350 p5        1 S6G      1.331900
      2 OP1         4.2600   -1.2110    2.0820 o         1 S6G     -0.930167
      3 OP2         4.2400    1.2600    1.5400 o         1 S6G     -0.930167
      4 OP3         6.2670   -0.1600    0.8540 o         1 S6G     -0.930167
      5 O5'         3.9860   -0.3820   -0.2780 os        1 S6G     -0.552200
      6 C5'         2.6260   -0.4040   -0.1550 c3        1 S6G      0.229400
      7 C4'         2.0190    0.9460   -0.6110 c3        1 S6G      0.053100
      8 O4'         0.7820    0.7110   -1.3400 os        1 S6G     -0.432600
      9 C3'         1.7060    1.9130    0.5480 c3        1 S6G      0.158100
     10 O3'         2.4910    3.0810    0.4620 oh        1 S6G     -0.673800
     11 C2'         0.2310    2.3040    0.3690 c3        1 S6G     -0.129400
     12 C1'        -0.3120    1.3450   -0.7100 c3        1 S6G      0.250800
     13 N9         -1.2300    0.3230   -0.1890 na        1 S6G     -0.185900
     14 C8         -0.9020   -0.9350    0.3620 cc        1 S6G      0.466400
     15 N7         -1.9830   -1.6780    0.6830 nd        1 S6G     -0.624000
     16 C5         -3.0850   -0.8940    0.3290 cd        1 S6G      0.234800
     17 C6         -4.4900   -1.1450    0.4330 c         1 S6G      0.370900
     18 S6         -5.2230   -2.4470    0.9960 s         1 S6G     -0.542400
     19 N1         -5.2910   -0.0930   -0.0410 n         1 S6G     -0.427400
     20 C2         -4.7680    1.1080   -0.5600 cd        1 S6G      0.581800
     21 N2         -5.7340    2.1100   -0.9270 nh        1 S6G     -0.864800
     22 N3         -3.4550    1.3710   -0.6900 nc        1 S6G     -0.613100
     23 C4         -2.6200    0.3710   -0.2280 cc        1 S6G      0.061800
     24 H5'         2.1930   -1.2010   -0.8310 h1        1 S6G     -0.004300
     25 H5''        2.3180   -0.6220    0.9080 h1        1 S6G     -0.004300
     26 H4'         2.7050    1.4310   -1.3560 h1        1 S6G      0.084700
     27 H3'         1.8850    1.4140    1.5410 h1        1 S6G      0.107700
     28 HO3'        3.3810    2.8150    0.7930 ho        1 S6G      0.502000
     29 H2'        -0.3210    2.2330    1.3340 hc        1 S6G      0.055200
     30 H2''        0.1500    3.3530   -0.0070 hc        1 S6G      0.055200
     31 H1'        -0.8820    1.8920   -1.5180 h2        1 S6G      0.066700
     32 H8          0.1590   -1.2290    0.4890 h5        1 S6G      0.122100
     33 HN1        -6.2790   -0.2030    0.0670 hn        1 S6G      0.339500
     34 HN21       -6.2680    1.8110   -1.7200 hn        1 S6G      0.385800
     35 HN22       -5.2930    2.9900   -1.1130 hn        1 S6G      0.385800
@<TRIPOS>BOND
     1    1    2 1   
     2    1    3 1   
     3    1    4 1   
     4    1    5 1   
     5    5    6 1   
     6    6    7 1   
     7    6   24 1   
     8    6   25 1   
     9    7    8 1   
    10    7    9 1   
    11    7   26 1   
    12    8   12 1   
    13    9   10 1   
    14    9   11 1   
    15    9   27 1   
    16   10   28 1   
    17   11   12 1   
    18   11   29 1   
    19   11   30 1   
    20   12   13 1   
    21   12   31 1   
    22   13   14 1   
    23   13   23 1   
    24   14   15 2   
    25   14   32 1   
    26   15   16 1   
    27   16   17 1   
    28   16   23 2   
    29   17   18 2   
    30   17   19 1   
    31   19   20 1   
    32   19   33 1   
    33   20   21 1   
    34   20   22 2   
    35   21   34 1   
    36   21   35 1   
    37   22   23 1   
@<TRIPOS>SUBSTRUCTURE
     1 S6G         1 TEMP              0 ****  ****    0 ROOT
