@<TRIPOS>MOLECULE
S6I
   36    37     1     0     0
SMALL
bcc


@<TRIPOS>ATOM
      1 C1         -3.1550    0.2730   -0.0340 ca        1 S6I     -0.429500
      2 N1         -5.2230   -0.7010    1.1580 n3        1 S6I     -1.026700
      3 O1         -5.4350    1.3170   -0.2280 o         1 S6I     -0.661800
      4 S1         -4.8120    0.0480   -0.1990 sy        1 S6I      1.534200
      5 C2         -2.2450   -0.7090   -0.4430 ca        1 S6I      0.013000
      6 O2         -5.0460   -0.8200   -1.2880 o         1 S6I     -0.661800
      7 C3         -0.8730   -0.5360   -0.3290 ca        1 S6I     -0.207000
      8 C4         -0.3550    0.6640    0.2090 ca        1 S6I      0.149600
      9 C5         -1.2740    1.6720    0.6110 ca        1 S6I     -0.207000
     10 C6         -2.6380    1.4660    0.4870 ca        1 S6I      0.013000
     11 N7          1.0060    0.9130    0.3980 n         1 S6I     -0.475100
     12 C8          2.0740    0.1240   -0.0920 c         1 S6I      0.771100
     13 O8          1.8840   -0.9870   -0.6360 o         1 S6I     -0.613100
     14 N9          3.3690    0.6590    0.0220 n         1 S6I     -0.544900
     15 C10         4.5100   -0.2000   -0.2070 c3        1 S6I      0.090700
     16 C11         5.7060    0.5590   -0.8230 c3        1 S6I     -0.094900
     17 C12         6.9550   -0.1750   -0.3630 c3        1 S6I     -0.079900
     18 C13         6.5660   -1.0690    0.8080 c3        1 S6I     -0.079900
     19 C14         5.0780   -0.8860    1.0560 c3        1 S6I     -0.094900
     20 H10         4.1870   -1.0070   -0.9330 h1        1 S6I      0.097700
     21 H11         5.6220    0.5690   -1.9370 hc        1 S6I      0.049200
     22 H11A        5.7350    1.6240   -0.4790 hc        1 S6I      0.049200
     23 HN1        -5.2470   -1.6850    1.2540 hn        1 S6I      0.445300
     24 H2         -2.6310   -1.6450   -0.8880 ha        1 S6I      0.153500
     25 H12         7.3740   -0.7910   -1.1980 hc        1 S6I      0.045700
     26 H12A        7.7480    0.5540   -0.0600 hc        1 S6I      0.045700
     27 H3         -0.2010   -1.3410   -0.6680 ha        1 S6I      0.160000
     28 H13         6.7920   -2.1390    0.5690 hc        1 S6I      0.045700
     29 H13A        7.1520   -0.8030    1.7230 hc        1 S6I      0.045700
     30 H14         4.9140   -0.2570    1.9670 hc        1 S6I      0.049200
     31 H14A        4.5680   -1.8660    1.2250 hc        1 S6I      0.049200
     32 H5         -0.9130    2.6270    1.0210 ha        1 S6I      0.160000
     33 H6         -3.3370    2.2670    0.7880 ha        1 S6I      0.153500
     34 HN7         1.2220    1.8260    0.7370 hn        1 S6I      0.315500
     35 HN9         3.5240    1.4030    0.6630 hn        1 S6I      0.295500
     36 HN1A       -5.5020   -0.2300    1.9800 hn        1 S6I      0.445300
@<TRIPOS>BOND
     1    1    4 1   
     2    1    5 ar  
     3    1   10 ar  
     4    2    4 1   
     5    2   23 1   
     6    2   36 1   
     7    3    4 2   
     8    4    6 2   
     9    5    7 ar  
    10    5   24 1   
    11    7    8 ar  
    12    7   27 1   
    13    8    9 ar  
    14    8   11 1   
    15    9   10 ar  
    16    9   32 1   
    17   10   33 1   
    18   11   12 1   
    19   11   34 1   
    20   12   13 2   
    21   12   14 1   
    22   14   15 1   
    23   14   35 1   
    24   15   16 1   
    25   15   19 1   
    26   15   20 1   
    27   16   17 1   
    28   16   21 1   
    29   16   22 1   
    30   17   18 1   
    31   17   25 1   
    32   17   26 1   
    33   18   19 1   
    34   18   28 1   
    35   18   29 1   
    36   19   30 1   
    37   19   31 1   
@<TRIPOS>SUBSTRUCTURE
     1 S6I         1 TEMP              0 ****  ****    0 ROOT
