@<TRIPOS>MOLECULE
S6I
   38    39     1     0     0
SMALL
bcc


@<TRIPOS>ATOM
      1 C1         -0.1210   -0.3010    0.1460 ca        1 S6I     -0.540500
      2 N1         -0.4410   -1.0660   -2.4120 n4        1 S6I     -0.795500
      3 O1         -2.0470   -1.7450   -0.5720 o         1 S6I     -0.547300
      4 S1         -1.3810   -0.5700   -0.8350 sy        1 S6I      1.481200
      5 C2          0.4420    0.9840    0.2790 ca        1 S6I      0.045500
      6 O2         -1.9970    0.5790   -1.2750 o         1 S6I     -0.547300
      7 C3          1.4270    1.2630    1.2150 ca        1 S6I     -0.177500
      8 C4          1.8890    0.2440    2.0790 ca        1 S6I      0.164600
      9 C5          1.3460   -1.0620    1.9450 ca        1 S6I     -0.177500
     10 C6          0.3670   -1.3130    1.0010 ca        1 S6I      0.045500
     11 N7          2.8480    0.4530    3.0890 n         1 S6I     -0.441100
     12 C8          3.5100    1.6480    3.3020 c         1 S6I      0.650100
     13 O8          3.4710    2.6680    2.6090 o         1 S6I     -0.456100
     14 N9          4.3980    1.7620    4.5300 n4        1 S6I     -0.662800
     15 C10         5.4790    0.7080    4.6150 c3        1 S6I      0.117500
     16 C11         6.7610    1.2700    5.2610 c3        1 S6I     -0.106900
     17 C12         6.7040    0.9080    6.7380 c3        1 S6I     -0.096900
     18 C13         5.6470   -0.1750    6.9030 c3        1 S6I     -0.096900
     19 C14         5.0730   -0.4680    5.5220 c3        1 S6I     -0.106900
     20 H10         5.6860    0.3730    3.5590 hx        1 S6I      0.107700
     21 H11         6.8970    2.3700    5.1060 hc        1 S6I      0.084450
     22 H11A        7.6330    0.7620    4.7670 hc        1 S6I      0.084450
     23 HN1        -0.6770   -0.4330   -3.1790 hn        1 S6I      0.464467
     24 H2          0.0720    1.8110   -0.3620 ha        1 S6I      0.187500
     25 H12         7.7060    0.5450    7.0860 hc        1 S6I      0.082950
     26 H12A        6.4520    1.8050    7.3590 hc        1 S6I      0.082950
     27 H3          1.8220    2.2950    1.2690 ha        1 S6I      0.189500
     28 H13         6.0920   -1.1050    7.3410 hc        1 S6I      0.082950
     29 H13A        4.8410    0.1620    7.6030 hc        1 S6I      0.082950
     30 H14         3.9690   -0.6380    5.5720 hc        1 S6I      0.084450
     31 H14A        5.5390   -1.3980    5.0990 hc        1 S6I      0.084450
     32 H5          1.6820   -1.8890    2.5950 ha        1 S6I      0.189500
     33 H6         -0.0640   -2.3340    0.9370 ha        1 S6I      0.187500
     34 HN7         3.0520   -0.3340    3.6770 hn        1 S6I      0.363500
     35 HN9         3.8220    1.7320    5.3810 hn        1 S6I      0.480300
     36 HN1A        0.5690   -1.0540   -2.3060 hn        1 S6I      0.464467
     37 H131       -0.7100   -2.0070   -2.7040 hn        1 S6I      0.464467
     38 H92         4.8410    2.6970    4.4750 hn        1 S6I      0.480300
@<TRIPOS>BOND
     1    1    4 1   
     2    1    5 ar  
     3    1   10 ar  
     4    2    4 1   
     5    2   23 1   
     6    2   36 1   
     7    2   37 1   
     8    3    4 2   
     9    4    6 2   
    10    5    7 ar  
    11    5   24 1   
    12    7    8 ar  
    13    7   27 1   
    14    8    9 ar  
    15    8   11 1   
    16    9   10 ar  
    17    9   32 1   
    18   10   33 1   
    19   11   12 1   
    20   11   34 1   
    21   12   13 2   
    22   12   14 1   
    23   14   15 1   
    24   14   35 1   
    25   14   38 1   
    26   15   16 1   
    27   15   19 1   
    28   15   20 1   
    29   16   17 1   
    30   16   21 1   
    31   16   22 1   
    32   17   18 1   
    33   17   25 1   
    34   17   26 1   
    35   18   19 1   
    36   18   28 1   
    37   18   29 1   
    38   19   30 1   
    39   19   31 1   
@<TRIPOS>SUBSTRUCTURE
     1 S6I         1 TEMP              0 ****  ****    0 ROOT
