@<TRIPOS>MOLECULE
S6I
   39    40     1     0     0
SMALL
bcc


@<TRIPOS>ATOM
      1 C1          0.0590   -0.1430   -0.0440 ca        1 S6I     -0.399500
      2 N1         -1.3160   -1.5720   -1.9380 n4        1 S6I     -0.812500
      3 O1         -2.2580    0.4750   -0.7980 o         1 S6I     -0.509800
      4 S1         -1.0220    0.1510   -1.2980 sy        1 S6I      1.441200
      5 C2          1.4430   -0.0500   -0.2590 ca        1 S6I      0.031500
      6 O2         -0.3770    0.7340   -2.3600 o         1 S6I     -0.509800
      7 C3          2.3510   -0.0970    0.8030 ca        1 S6I     -0.104000
      8 C4          1.8590   -0.2440    2.1110 ca        1 S6I      0.022600
      9 C5          0.4790   -0.3610    2.3530 ca        1 S6I     -0.104000
     10 C6         -0.4030   -0.3110    1.2710 ca        1 S6I      0.031500
     11 N7          2.8070   -0.3090    3.2480 n4        1 S6I     -0.531200
     12 C8          3.1360    1.0610    3.8110 c         1 S6I      0.485100
     13 O8          2.8390    2.0610    3.1830 o         1 S6I     -0.271100
     14 N9          3.8420    1.1430    5.1120 n4        1 S6I     -0.661800
     15 C10         5.3110    1.6210    4.9520 c3        1 S6I      0.141500
     16 C11         5.8730    1.9760    6.3370 c3        1 S6I     -0.115900
     17 C12         6.5700    0.7270    6.8580 c3        1 S6I     -0.104400
     18 C13         6.7540   -0.2210    5.6780 c3        1 S6I     -0.104400
     19 C14         6.2090    0.4880    4.4430 c3        1 S6I     -0.115900
     20 H10         5.2650    2.5100    4.2600 hx        1 S6I      0.135700
     21 H11         6.6200    2.8080    6.1750 hc        1 S6I      0.099950
     22 H11A        5.1150    2.3720    7.0590 hc        1 S6I      0.099950
     23 HN1        -2.3150   -1.8120   -1.8860 hn        1 S6I      0.483467
     24 H2          1.8430    0.1010   -1.2860 ha        1 S6I      0.217000
     25 H12         7.5630    1.0000    7.3080 hc        1 S6I      0.095450
     26 H12A        5.9760    0.2410    7.6730 hc        1 S6I      0.095450
     27 H3          3.4310   -0.0070    0.5800 ha        1 S6I      0.194000
     28 H13         7.8380   -0.4730    5.5340 hc        1 S6I      0.095450
     29 H13A        6.2180   -1.1880    5.8550 hc        1 S6I      0.095450
     30 H14         7.0550    0.9650    3.8710 hc        1 S6I      0.099950
     31 H14A        5.6910   -0.2120    3.7430 hc        1 S6I      0.099950
     32 H5          0.0610   -0.4880    3.3700 ha        1 S6I      0.194000
     33 H6         -1.4940   -0.3710    1.4790 ha        1 S6I      0.217000
     34 HN7         3.6890   -0.7470    2.9160 hn        1 S6I      0.500300
     35 HN9         3.3510    1.8580    5.6890 hn        1 S6I      0.500300
     36 HN1A       -1.0560   -1.6390   -2.9310 hn        1 S6I      0.483467
     37 H131       -0.8110   -2.3110   -1.4510 hn        1 S6I      0.483467
     38 H72         2.3920   -0.9110    3.9790 hn        1 S6I      0.500300
     39 H92         3.8540    0.2560    5.6330 hn        1 S6I      0.500300
@<TRIPOS>BOND
     1    1    4 1   
     2    1    5 ar  
     3    1   10 ar  
     4    2    4 1   
     5    2   23 1   
     6    2   36 1   
     7    2   37 1   
     8    3    4 2   
     9    4    6 2   
    10    5    7 ar  
    11    5   24 1   
    12    7    8 ar  
    13    7   27 1   
    14    8    9 ar  
    15    8   11 1   
    16    9   10 ar  
    17    9   32 1   
    18   10   33 1   
    19   11   12 1   
    20   11   34 1   
    21   11   38 1   
    22   12   13 2   
    23   12   14 1   
    24   14   15 1   
    25   14   35 1   
    26   14   39 1   
    27   15   16 1   
    28   15   19 1   
    29   15   20 1   
    30   16   17 1   
    31   16   21 1   
    32   16   22 1   
    33   17   18 1   
    34   17   25 1   
    35   17   26 1   
    36   18   19 1   
    37   18   28 1   
    38   18   29 1   
    39   19   30 1   
    40   19   31 1   
@<TRIPOS>SUBSTRUCTURE
     1 S6I         1 TEMP              0 ****  ****    0 ROOT
