@<TRIPOS>MOLECULE
S6I
   38    39     1     0     0
SMALL
bcc


@<TRIPOS>ATOM
      1 C1         -0.1410   -0.3170    0.1710 ca        1 S6I     -0.540500
      2 N1         -0.4690   -0.9420   -2.4230 nz        1 S6I     -0.795500
      3 O1         -1.9950   -1.8240   -0.6010 o         1 S6I     -0.547300
      4 S1         -1.4030   -0.5980   -0.8020 sy        1 S6I      1.481200
      5 C2          0.3510    0.9880    0.3740 ca        1 S6I      0.045500
      6 O2         -2.0920    0.5380   -1.1600 o         1 S6I     -0.547300
      7 C3          1.3380    1.2680    1.3080 ca        1 S6I     -0.177500
      8 C4          1.8750    0.2270    2.0990 ca        1 S6I      0.163600
      9 C5          1.4040   -1.0980    1.8950 ca        1 S6I     -0.177500
     10 C6          0.4220   -1.3480    0.9540 ca        1 S6I      0.045500
     11 N7          2.8410    0.4300    3.1040 ns        1 S6I     -0.441100
     12 C8          3.4380    1.6470    3.3790 c         1 S6I      0.650100
     13 O8          3.3260    2.7020    2.7510 o         1 S6I     -0.456100
     14 N9          4.3440    1.7370    4.5960 ny        1 S6I     -0.662800
     15 C10         5.4850    0.7450    4.5960 c3        1 S6I      0.117500
     16 C11         6.7470    1.3410    5.2540 c3        1 S6I     -0.106900
     17 C12         6.7410    0.8870    6.7060 c3        1 S6I     -0.096900
     18 C13         5.7520   -0.2650    6.8210 c3        1 S6I     -0.096900
     19 C14         5.1670   -0.5060    5.4350 c3        1 S6I     -0.106900
     20 H10         5.6890    0.4880    3.5180 hx        1 S6I      0.107700
     21 H11         6.8150    2.4540    5.1650 hc        1 S6I      0.084450
     22 H11A        7.6360    0.9160    4.7140 hc        1 S6I      0.084450
     23 HN1         0.5410   -0.8780   -2.3330 hn        1 S6I      0.464467
     24 H2         -0.0790    1.8300   -0.2080 ha        1 S6I      0.187500
     25 H12         6.4510    1.7280    7.3860 hc        1 S6I      0.082950
     26 H12A        7.7700    0.5630    7.0130 hc        1 S6I      0.082950
     27 H3          1.6740    2.3160    1.4190 ha        1 S6I      0.189500
     28 H13         6.2590   -1.1920    7.1940 hc        1 S6I      0.082950
     29 H13A        4.9430   -0.0190    7.5550 hc        1 S6I      0.082950
     30 H14         5.6770   -1.3790    4.9470 hc        1 S6I      0.084450
     31 H14A        4.0760   -0.7430    5.4940 hc        1 S6I      0.084450
     32 H5          1.8010   -1.9420    2.4870 ha        1 S6I      0.189500
     33 H6          0.0490   -2.3870    0.8350 ha        1 S6I      0.187500
     34 HN7         3.1020   -0.3780    3.6380 hn        1 S6I      0.363500
     35 HN9         4.7310    2.6980    4.5920 hn        1 S6I      0.480300
     36 HN1A       -0.7570   -0.2790   -3.1450 hn        1 S6I      0.464467
     37 H131       -0.6900   -1.8790   -2.7670 hn        1 S6I      0.464467
     38 H92         3.7890    1.6210    5.4530 hn        1 S6I      0.480300
@<TRIPOS>BOND
     1    1    4 1   
     2    1    5 ar  
     3    1   10 ar  
     4    2    4 1   
     5    2   23 1   
     6    2   36 1   
     7    2   37 1   
     8    3    4 2   
     9    4    6 2   
    10    5    7 ar  
    11    5   24 1   
    12    7    8 ar  
    13    7   27 1   
    14    8    9 ar  
    15    8   11 1   
    16    9   10 ar  
    17    9   32 1   
    18   10   33 1   
    19   11   12 1   
    20   11   34 1   
    21   12   13 2   
    22   12   14 1   
    23   14   15 1   
    24   14   35 1   
    25   14   38 1   
    26   15   16 1   
    27   15   19 1   
    28   15   20 1   
    29   16   17 1   
    30   16   21 1   
    31   16   22 1   
    32   17   18 1   
    33   17   25 1   
    34   17   26 1   
    35   18   19 1   
    36   18   28 1   
    37   18   29 1   
    38   19   30 1   
    39   19   31 1   
@<TRIPOS>SUBSTRUCTURE
     1 S6I         1 TEMP              0 ****  ****    0 ROOT
