@<TRIPOS>MOLECULE
S6L
   53    56     1     0     0
SMALL
bcc


@<TRIPOS>ATOM
      1 O1         -0.7230    0.1280    0.6080 o         1 S6L     -0.601100
      2 C22         0.5250    0.1530    0.5560 c         1 S6L      0.645100
      3 C23         1.2900    0.1610    1.9110 c3        1 S6L     -0.001200
      4 N4          0.3650   -0.1740    3.0270 n4        1 S6L     -0.829600
      5 N3          1.2960    0.2170   -0.5600 n         1 S6L     -0.404100
      6 C19         0.8110    0.1450   -1.8940 ca        1 S6L     -0.031400
      7 C18        -0.5050    0.5120   -2.2370 ca        1 S6L     -0.104500
      8 C17        -0.9330    0.4220   -3.5550 ca        1 S6L     -0.147500
      9 C20         1.6980   -0.2950   -2.9020 ca        1 S6L     -0.104500
     10 C21         1.2720   -0.3770   -4.2200 ca        1 S6L     -0.147500
     11 C16        -0.0460   -0.0290   -4.5480 ca        1 S6L      0.142100
     12 O          -0.5540   -0.0350   -5.8330 os        1 S6L     -0.236200
     13 C10         0.0630   -0.8870   -6.7560 ca        1 S6L      0.071100
     14 C9          0.2140   -0.3550   -8.0510 ca        1 S6L     -0.130000
     15 C8          0.6940   -1.1550   -9.0820 ca        1 S6L     -0.111000
     16 C11         0.3900   -2.2060   -6.4370 ca        1 S6L     -0.143000
     17 C12         0.8900   -3.0110   -7.4540 ca        1 S6L     -0.002800
     18 C7          1.0340   -2.4810   -8.7920 ca        1 S6L     -0.053200
     19 C13         1.3370   -4.3820   -7.4960 cc        1 S6L     -0.159900
     20 C15         1.3970   -5.2730   -6.4240 cg        1 S6L      0.243500
     21 N2          1.4510   -6.0040   -5.5180 n1        1 S6L     -0.409800
     22 C14         1.7150   -4.6620   -8.8400 cd        1 S6L      0.260900
     23 N1          2.1090   -5.8810   -9.3470 nh        1 S6L     -0.822600
     24 N           1.5560   -3.4940   -9.6210 na        1 S6L     -0.093400
     25 C6          1.6840   -3.4330  -11.0520 c3        1 S6L      0.086600
     26 C3          3.0550   -3.7660  -11.5680 ca        1 S6L     -0.137300
     27 C2          3.2270   -4.8570  -12.4280 ca        1 S6L     -0.118000
     28 C1          4.4870   -5.1400  -12.9530 ca        1 S6L     -0.127000
     29 C4          4.1530   -2.9660  -11.2340 ca        1 S6L     -0.118000
     30 C5          5.4120   -3.2560  -11.7580 ca        1 S6L     -0.127000
     31 C           5.5800   -4.3410  -12.6180 ca        1 S6L     -0.112000
     32 H231        2.1340   -0.5850    1.9060 hx        1 S6L      0.127200
     33 H232        1.7040    1.1960    2.0820 hx        1 S6L      0.127200
     34 H3          2.2890    0.2100   -0.4640 hn        1 S6L      0.332500
     35 H41N        0.6880    0.2450    3.9010 hn        1 S6L      0.474467
     36 H42N       -0.5820    0.1840    2.7920 hn        1 S6L      0.474467
     37 H18        -1.2150    0.8590   -1.4680 ha        1 S6L      0.151000
     38 H20         2.7360   -0.5750   -2.6620 ha        1 S6L      0.151000
     39 H17        -1.9610    0.7020   -3.8320 ha        1 S6L      0.169000
     40 H21         1.9650   -0.7210   -5.0060 ha        1 S6L      0.169000
     41 H9         -0.0700    0.6900   -8.2410 ha        1 S6L      0.155000
     42 H11         0.2510   -2.5980   -5.4200 ha        1 S6L      0.153000
     43 H8          0.7990   -0.7420  -10.0950 ha        1 S6L      0.145000
     44 H11N        2.6180   -5.8860  -10.2030 hn        1 S6L      0.433300
     45 H12N        2.3930   -6.5450   -8.6620 hn        1 S6L      0.433300
     46 H61C        1.4230   -2.3840  -11.3790 h1        1 S6L      0.073700
     47 H62C        0.9290   -4.1380  -11.5120 h1        1 S6L      0.073700
     48 H2          2.3650   -5.4850  -12.7030 ha        1 S6L      0.139500
     49 H4          4.0210   -2.1070  -10.5590 ha        1 S6L      0.139500
     50 H1          4.6170   -5.9930  -13.6360 ha        1 S6L      0.142000
     51 H           6.5740   -4.5650  -13.0350 ha        1 S6L      0.143000
     52 H5          6.2740   -2.6230  -11.4940 ha        1 S6L      0.142000
     53 H43         0.2950   -1.1910    3.1370 hn        1 S6L      0.474467
@<TRIPOS>BOND
     1    1    2 2   
     2    2    3 1   
     3    2    5 1   
     4    3    4 1   
     5    3   32 1   
     6    3   33 1   
     7    4   35 1   
     8    4   36 1   
     9    4   53 1   
    10    5    6 1   
    11    5   34 1   
    12    6    7 ar  
    13    6    9 ar  
    14    7    8 ar  
    15    7   37 1   
    16    8   11 ar  
    17    8   39 1   
    18    9   10 ar  
    19    9   38 1   
    20   10   11 ar  
    21   10   40 1   
    22   11   12 1   
    23   12   13 1   
    24   13   14 ar  
    25   13   16 ar  
    26   14   15 ar  
    27   14   41 1   
    28   15   18 ar  
    29   15   43 1   
    30   16   17 ar  
    31   16   42 1   
    32   17   18 ar  
    33   17   19 1   
    34   18   24 1   
    35   19   20 1   
    36   19   22 2   
    37   20   21 3   
    38   22   23 1   
    39   22   24 1   
    40   23   44 1   
    41   23   45 1   
    42   24   25 1   
    43   25   26 1   
    44   25   46 1   
    45   25   47 1   
    46   26   27 ar  
    47   26   29 ar  
    48   27   28 ar  
    49   27   48 1   
    50   28   31 ar  
    51   28   50 1   
    52   29   30 ar  
    53   29   49 1   
    54   30   31 ar  
    55   30   52 1   
    56   31   51 1   
@<TRIPOS>SUBSTRUCTURE
     1 S6L         1 TEMP              0 ****  ****    0 ROOT
