@<TRIPOS>MOLECULE
S6L
   53    56     1     0     0
SMALL
bcc


@<TRIPOS>ATOM
      1 O1         -0.7360    0.1350    0.6110 o         1 S6L     -0.601100
      2 C22         0.5120    0.1710    0.5650 c         1 S6L      0.645100
      3 C23         1.2700    0.1990    1.9230 c3        1 S6L     -0.001200
      4 N4          0.3440   -0.1350    3.0370 nz        1 S6L     -0.829600
      5 N3          1.2880    0.2330   -0.5490 ns        1 S6L     -0.404100
      6 C19         0.8090    0.1440   -1.8840 ca        1 S6L     -0.031400
      7 C18        -0.5090    0.4950   -2.2360 ca        1 S6L     -0.104500
      8 C17        -0.9310    0.3880   -3.5550 ca        1 S6L     -0.147500
      9 C20         1.7050   -0.2960   -2.8840 ca        1 S6L     -0.104500
     10 C21         1.2860   -0.3940   -4.2040 ca        1 S6L     -0.147500
     11 C16        -0.0340   -0.0620   -4.5400 ca        1 S6L      0.142100
     12 O          -0.5370   -0.0860   -5.8270 os        1 S6L     -0.236200
     13 C10         0.0920   -0.9390   -6.7400 ca        1 S6L      0.071100
     14 C9          0.2430   -0.4180   -8.0390 ca        1 S6L     -0.130000
     15 C8          0.7360   -1.2220   -9.0610 ca        1 S6L     -0.111000
     16 C11         0.4310   -2.2520   -6.4080 ca        1 S6L     -0.143000
     17 C12         0.9440   -3.0610   -7.4150 ca        1 S6L     -0.002800
     18 C7          1.0890   -2.5410   -8.7570 ca        1 S6L     -0.053200
     19 C13         1.4050   -4.4270   -7.4420 cc        1 S6L     -0.159900
     20 C15         1.4700   -5.3080   -6.3620 cg        1 S6L      0.243500
     21 N2          1.5270   -6.0300   -5.4490 n1        1 S6L     -0.409800
     22 C14         1.7920   -4.7160   -8.7830 cd        1 S6L      0.260900
     23 N1          2.2000   -5.9350   -9.2760 nv        1 S6L     -0.822600
     24 N           1.6240   -3.5560   -9.5750 na        1 S6L     -0.093400
     25 C6          1.7580   -3.5070  -11.0060 c3        1 S6L      0.086600
     26 C3          3.1350   -3.8310  -11.5120 ca        1 S6L     -0.137300
     27 C2          3.3210   -4.9280  -12.3620 ca        1 S6L     -0.118000
     28 C1          4.5860   -5.2020  -12.8790 ca        1 S6L     -0.127000
     29 C4          4.2230   -3.0170  -11.1810 ca        1 S6L     -0.118000
     30 C5          5.4870   -3.2980  -11.6960 ca        1 S6L     -0.127000
     31 C           5.6700   -4.3890  -12.5460 ca        1 S6L     -0.112000
     32 H231        2.1220   -0.5380    1.9280 hx        1 S6L      0.127200
     33 H232        1.6740    1.2400    2.0860 hx        1 S6L      0.127200
     34 H3          2.2800    0.2360   -0.4480 hn        1 S6L      0.332500
     35 H41N        0.2840   -1.1510    3.1570 hn        1 S6L      0.474467
     36 H42N        0.6590    0.2950    3.9100 hn        1 S6L      0.474467
     37 H18        -1.2260    0.8420   -1.4740 ha        1 S6L      0.151000
     38 H20         2.7440   -0.5640   -2.6370 ha        1 S6L      0.151000
     39 H17        -1.9600    0.6550   -3.8390 ha        1 S6L      0.169000
     40 H21         1.9850   -0.7380   -4.9830 ha        1 S6L      0.169000
     41 H9         -0.0500    0.6230   -8.2390 ha        1 S6L      0.155000
     42 H11         0.2920   -2.6360   -5.3880 ha        1 S6L      0.153000
     43 H8          0.8410   -0.8170  -10.0770 ha        1 S6L      0.145000
     44 H11N        2.4880   -6.5900   -8.5840 hn        1 S6L      0.433300
     45 H12N        2.7130   -5.9430  -10.1310 hn        1 S6L      0.433300
     46 H61C        1.0120   -4.2240  -11.4630 h1        1 S6L      0.073700
     47 H62C        1.4870   -2.4630  -11.3430 h1        1 S6L      0.073700
     48 H2          2.4670   -5.5670  -12.6350 ha        1 S6L      0.139500
     49 H4          4.0790   -2.1530  -10.5150 ha        1 S6L      0.139500
     50 H1          4.7270   -6.0600  -13.5540 ha        1 S6L      0.142000
     51 H           6.6680   -4.6070  -12.9570 ha        1 S6L      0.143000
     52 H5          6.3410   -2.6550  -11.4350 ha        1 S6L      0.142000
     53 H43        -0.6050    0.2120    2.7950 hn        1 S6L      0.474467
@<TRIPOS>BOND
     1    1    2 2   
     2    2    3 1   
     3    2    5 1   
     4    3    4 1   
     5    3   32 1   
     6    3   33 1   
     7    4   35 1   
     8    4   36 1   
     9    4   53 1   
    10    5    6 1   
    11    5   34 1   
    12    6    7 ar  
    13    6    9 ar  
    14    7    8 ar  
    15    7   37 1   
    16    8   11 ar  
    17    8   39 1   
    18    9   10 ar  
    19    9   38 1   
    20   10   11 ar  
    21   10   40 1   
    22   11   12 1   
    23   12   13 1   
    24   13   14 ar  
    25   13   16 ar  
    26   14   15 ar  
    27   14   41 1   
    28   15   18 ar  
    29   15   43 1   
    30   16   17 ar  
    31   16   42 1   
    32   17   18 ar  
    33   17   19 1   
    34   18   24 1   
    35   19   20 1   
    36   19   22 2   
    37   20   21 3   
    38   22   23 1   
    39   22   24 1   
    40   23   44 1   
    41   23   45 1   
    42   24   25 1   
    43   25   26 1   
    44   25   46 1   
    45   25   47 1   
    46   26   27 ar  
    47   26   29 ar  
    48   27   28 ar  
    49   27   48 1   
    50   28   31 ar  
    51   28   50 1   
    52   29   30 ar  
    53   29   49 1   
    54   30   31 ar  
    55   30   52 1   
    56   31   51 1   
@<TRIPOS>SUBSTRUCTURE
     1 S6L         1 TEMP              0 ****  ****    0 ROOT
