@<TRIPOS>MOLECULE
S6P
   29    28     1     0     0
SMALL
bcc


@<TRIPOS>ATOM
      1 C1          5.0590    0.9310   -0.0970 c3        1 S6P      0.121400
      2 C2          3.8680    0.1770    0.5030 c3        1 S6P      0.111100
      3 C3          2.5700    0.5170   -0.2470 c3        1 S6P      0.044100
      4 C4          1.3840   -0.3210    0.3700 c3        1 S6P      0.363800
      5 C5          0.0590    0.4340    0.0660 c3        1 S6P      0.074100
      6 C6         -1.1440   -0.3050    0.6680 c3        1 S6P      0.166400
      7 O1          6.2970    0.5340    0.4730 oh        1 S6P     -0.648800
      8 O2          4.1880   -1.2060    0.4550 oh        1 S6P     -0.682800
      9 O3          2.7290    0.1910   -1.6160 oh        1 S6P     -0.653800
     10 O4          1.4220   -1.5520   -0.1320 o         1 S6P     -0.905500
     11 O5          0.1570    1.7500    0.6080 oh        1 S6P     -0.644800
     12 O6         -2.2800    0.5150    0.6110 os        1 S6P     -0.608200
     13 P          -3.6160   -0.0660   -0.1490 p5        1 S6P      1.433800
     14 O1P        -4.6810    0.9520   -0.0250 o         1 S6P     -0.850500
     15 O2P        -3.0440   -0.0800   -1.6820 oh        1 S6P     -0.786400
     16 O3P        -3.7700   -1.4990    0.1870 o         1 S6P     -0.850500
     17 H11         4.9720    2.0280    0.1140 h1        1 S6P      0.035700
     18 H12         5.0940    0.7560   -1.2060 h1        1 S6P      0.035700
     19 H2          3.7570    0.4570    1.5880 h1        1 S6P      0.025700
     20 H3          2.3800    1.6190   -0.2000 h1        1 S6P      0.051700
     21 H4          1.5270   -0.2810    1.4970 h1        1 S6P     -0.063300
     22 H5         -0.0750    0.5230   -1.0480 h1        1 S6P      0.021700
     23 H61        -1.3190   -1.2700    0.1220 h1        1 S6P      0.033700
     24 H62        -0.9260   -0.5270    1.7500 h1        1 S6P      0.033700
     25 HO1         6.2500   -0.4220    0.5950 ho        1 S6P      0.413000
     26 HO2         3.3710   -1.6850    0.2050 ho        1 S6P      0.473000
     27 HO3         2.3180   -0.6860   -1.7340 ho        1 S6P      0.429000
     28 HO4        -2.4660   -0.8160   -1.8440 ho        1 S6P      0.425000
     29 HO5        -0.7480    2.0780    0.6810 ho        1 S6P      0.403000
@<TRIPOS>BOND
     1    1    2 1   
     2    1    7 1   
     3    1   17 1   
     4    1   18 1   
     5    2    3 1   
     6    2    8 1   
     7    2   19 1   
     8    3    4 1   
     9    3    9 1   
    10    3   20 1   
    11    4    5 1   
    12    4   10 1   
    13    4   21 1   
    14    5    6 1   
    15    5   11 1   
    16    5   22 1   
    17    6   12 1   
    18    6   23 1   
    19    6   24 1   
    20    7   25 1   
    21    8   26 1   
    22    9   27 1   
    23   11   29 1   
    24   12   13 1   
    25   13   14 1   
    26   13   15 1   
    27   13   16 1   
    28   15   28 1   
@<TRIPOS>SUBSTRUCTURE
     1 S6P         1 TEMP              0 ****  ****    0 ROOT
