@<TRIPOS>MOLECULE
S6P
   29    28     1     0     0
SMALL
bcc


@<TRIPOS>ATOM
      1 C1         -3.1450   -0.6290   -1.7900 c3        1 S6P      0.088400
      2 C2         -1.6200   -0.7870   -1.7950 c3        1 S6P      0.118100
      3 C3         -1.1140   -0.7660   -0.3760 c3        1 S6P      0.133100
      4 C4          0.2780   -0.1350   -0.3340 c3        1 S6P      0.152100
      5 C5          0.5270    0.4450    1.0440 c3        1 S6P      0.057100
      6 C6          1.9860    0.8480    1.1660 c3        1 S6P      0.213400
      7 O1         -3.6370   -0.6660   -3.1300 oh        1 S6P     -0.623800
      8 O2         -1.2760   -2.0000   -2.3920 oh        1 S6P     -0.591800
      9 O3         -1.0480   -2.0850    0.1160 oh        1 S6P     -0.629800
     10 O4          1.2410   -1.1070   -0.6110 oh        1 S6P     -0.675800
     11 O5         -0.2960    1.5830    1.2330 oh        1 S6P     -0.664800
     12 O6          2.2700    1.2200    2.5110 os        1 S6P     -0.567200
     13 P           3.7780    1.7130    2.8720 p5        1 S6P      1.330900
     14 O1P         4.7140    0.5100    2.8930 o         1 S6P     -0.929167
     15 O2P         4.2490    2.7010    1.8240 o         1 S6P     -0.929167
     16 O3P         3.7830    2.3790    4.2320 o         1 S6P     -0.929167
     17 H11        -3.5310   -1.3330   -1.2960 h1        1 S6P      0.034700
     18 H12        -3.3880    0.2470   -1.3680 h1        1 S6P      0.034700
     19 H2         -1.2180   -0.0540   -2.2940 h1        1 S6P      0.075700
     20 H3         -1.7450   -0.2270    0.1960 h1        1 S6P      0.057700
     21 H4          0.3350    0.5870   -1.0110 h1        1 S6P      0.041700
     22 H5          0.3130   -0.2330    1.7300 h1        1 S6P      0.078700
     23 H61         2.5650    0.0800    0.9060 h1        1 S6P     -0.001800
     24 H62         2.1660    1.6060    0.5740 h1        1 S6P     -0.001800
     25 HO1        -4.5320   -0.5850   -3.1220 ho        1 S6P      0.381000
     26 HO2        -1.1910   -1.8870   -3.2650 ho        1 S6P      0.387000
     27 HO3        -1.6140   -2.1870    0.7140 ho        1 S6P      0.430000
     28 HO4         1.6800   -0.8840   -1.3380 ho        1 S6P      0.520000
     29 HO5        -0.5320    1.6470    2.1110 ho        1 S6P      0.408000
@<TRIPOS>BOND
     1    1    2 1   
     2    1    7 1   
     3    1   17 1   
     4    1   18 1   
     5    2    3 1   
     6    2    8 1   
     7    2   19 1   
     8    3    4 1   
     9    3    9 1   
    10    3   20 1   
    11    4    5 1   
    12    4   10 1   
    13    4   21 1   
    14    5    6 1   
    15    5   11 1   
    16    5   22 1   
    17    6   12 1   
    18    6   23 1   
    19    6   24 1   
    20    7   25 1   
    21    8   26 1   
    22    9   27 1   
    23   10   28 1   
    24   11   29 1   
    25   12   13 1   
    26   13   14 1   
    27   13   15 1   
    28   13   16 1   
@<TRIPOS>SUBSTRUCTURE
     1 S6P         1 TEMP              0 ****  ****    0 ROOT
