@<TRIPOS>MOLECULE
S70
   21    19     1     0     0
SMALL
bcc


@<TRIPOS>ATOM
      1 C1          1.6770   -3.5200   -2.5610 c3        1 S70      0.033000
      2 C2          1.1090   -2.3790   -1.6680 c3        1 S70     -0.028000
      3 C3          1.5860   -2.4950   -0.2060 c2        1 S70      0.302000
      4 C4          0.6030   -2.7690    0.8150 c2        1 S70     -0.805000
      5 O5          1.4850   -1.0970   -2.1650 oh        1 S70     -0.370000
      6 O6          2.8170   -2.3980    0.0230 o         1 S70     -0.481000
      7 O7          1.7400   -3.1100   -3.8800 os        1 S70     -0.759000
      8 P8         -0.2740   -1.6390    2.4520 p3        1 S70      2.560000
      9 O9         -1.7260   -1.8410    2.1360 o         1 S70     -1.235333
     10 O10         0.1970   -0.2210    2.4380 o         1 S70     -1.235333
     11 O11         0.2260   -2.4650    3.6030 o         1 S70     -1.235333
     12 P12         1.7080   -4.3190   -5.1060 p5        1 S70      1.567500
     13 O13         3.1250   -4.8420   -5.1540 o         1 S70     -0.950833
     14 O14         1.3090   -3.5170   -6.3230 o         1 S70     -0.950833
     15 O15         0.6860   -5.3270   -4.6430 o         1 S70     -0.950833
     16 H11         1.0250   -4.4310   -2.4730 h1        1 S70      0.047000
     17 H12         2.7100   -3.7600   -2.1740 h1        1 S70      0.047000
     18 HC2        -0.0160   -2.4100   -1.7000 h1        1 S70      0.062000
     19 H41        -0.3880   -3.0530    0.4260 ha        1 S70      0.086000
     20 H42         0.9920   -3.4660    1.5800 ha        1 S70      0.086000
     21 HO5         1.8530   -1.2380   -3.0490 ho        1 S70      0.213000
@<TRIPOS>BOND
     1    1    2 1   
     2    1    7 1   
     3    1   16 1   
     4    1   17 1   
     5    2    3 1   
     6    2    5 1   
     7    2   18 1   
     8    3    4 1   
     9    3    6 1   
    10    4   19 1   
    11    4   20 1   
    12    5   21 1   
    13    7   12 1   
    14    8    9 1   
    15    8   10 1   
    16    8   11 1   
    17   12   13 1   
    18   12   14 1   
    19   12   15 1   
@<TRIPOS>SUBSTRUCTURE
     1 S70         1 TEMP              0 ****  ****    0 ROOT
