@<TRIPOS>MOLECULE
S70
   21    19     1     0     0
SMALL
bcc


@<TRIPOS>ATOM
      1 C1         -0.3790   -0.7410    0.7320 c3        1 S70      0.033000
      2 C2          1.0460   -0.1190    0.7860 c3        1 S70     -0.028000
      3 C3          1.6670   -0.2140    2.1940 c2        1 S70      0.302000
      4 C4          1.9180    1.0110    2.9160 c2        1 S70     -0.805000
      5 O5          1.9240   -0.7560   -0.1390 oh        1 S70     -0.370000
      6 O6          1.8800   -1.3570    2.6700 o         1 S70     -0.481000
      7 O7         -0.6680   -1.1670   -0.5510 os        1 S70     -0.759000
      8 P8          3.6950    2.1110    3.5150 p3        1 S70      2.560000
      9 O9          3.3470    3.4570    2.9570 o         1 S70     -1.235333
     10 O10         4.9300    1.4800    2.9560 o         1 S70     -1.235333
     11 O11         3.5460    2.0050    5.0060 o         1 S70     -1.235333
     12 P12        -2.3230   -1.2840   -1.0120 p5        1 S70      1.567500
     13 O13        -2.7850   -2.5970   -0.4240 o         1 S70     -0.950833
     14 O14        -2.2260   -1.2880   -2.5200 o         1 S70     -0.950833
     15 O15        -2.9870   -0.0660   -0.4180 o         1 S70     -0.950833
     16 H11        -1.1370    0.0190    1.0650 h1        1 S70      0.047000
     17 H12        -0.3860   -1.6140    1.4480 h1        1 S70      0.047000
     18 HC2         0.9900    0.9610    0.4730 h1        1 S70      0.062000
     19 H41         1.6900    0.9030    3.9930 ha        1 S70      0.086000
     20 H42         1.4680    1.9070    2.4600 ha        1 S70      0.086000
     21 HO5         1.3720   -1.3040   -0.7140 ho        1 S70      0.213000
@<TRIPOS>BOND
     1    1    2 1   
     2    1    7 1   
     3    1   16 1   
     4    1   17 1   
     5    2    3 1   
     6    2    5 1   
     7    2   18 1   
     8    3    4 1   
     9    3    6 1   
    10    4   19 1   
    11    4   20 1   
    12    5   21 1   
    13    7   12 1   
    14    8    9 1   
    15    8   10 1   
    16    8   11 1   
    17   12   13 1   
    18   12   14 1   
    19   12   15 1   
@<TRIPOS>SUBSTRUCTURE
     1 S70         1 TEMP              0 ****  ****    0 ROOT
