@<TRIPOS>MOLECULE
S70
   21    19     1     0     0
SMALL
bcc


@<TRIPOS>ATOM
      1 C1         -0.3750   -0.7420    0.7280 c3        1 S70      0.033000
      2 C2          1.0430   -0.1040    0.7790 c3        1 S70     -0.028000
      3 C3          1.6810   -0.2220    2.1780 c2        1 S70      0.302000
      4 C4          1.9240    0.9890    2.9240 c2        1 S70     -0.805000
      5 O5          1.9180   -0.7110   -0.1690 oh        1 S70     -0.370000
      6 O6          1.9130   -1.3730    2.6260 o         1 S70     -0.481000
      7 O7         -0.6730   -1.1460   -0.5610 os        1 S70     -0.759000
      8 P8          3.6940    2.0990    3.5280 p3        1 S70      2.560000
      9 O9          3.3210    3.4530    3.0050 o         1 S70     -1.235333
     10 O10         4.9300    1.4980    2.9400 o         1 S70     -1.235333
     11 O11         3.5640    1.9570    5.0170 o         1 S70     -1.235333
     12 P12        -2.3320   -1.2720   -1.0070 p5        1 S70      1.567500
     13 O13        -2.7730   -2.6010   -0.4390 o         1 S70     -0.950833
     14 O14        -2.2510   -1.2470   -2.5160 o         1 S70     -0.950833
     15 O15        -3.0030   -0.0740   -0.3840 o         1 S70     -0.950833
     16 H11        -0.3640   -1.6300    1.4250 h1        1 S70      0.047000
     17 H12        -1.1390    0.0020    1.0830 h1        1 S70      0.047000
     18 HC2         0.9700    0.9810    0.4900 h1        1 S70      0.062000
     19 H41         1.4580    1.8890    2.4920 ha        1 S70      0.086000
     20 H42         1.7100    0.8560    4.0010 ha        1 S70      0.086000
     21 HO5         1.3670   -1.2550   -0.7480 ho        1 S70      0.213000
@<TRIPOS>BOND
     1    1    2 1   
     2    1    7 1   
     3    1   16 1   
     4    1   17 1   
     5    2    3 1   
     6    2    5 1   
     7    2   18 1   
     8    3    4 1   
     9    3    6 1   
    10    4   19 1   
    11    4   20 1   
    12    5   21 1   
    13    7   12 1   
    14    8    9 1   
    15    8   10 1   
    16    8   11 1   
    17   12   13 1   
    18   12   14 1   
    19   12   15 1   
@<TRIPOS>SUBSTRUCTURE
     1 S70         1 TEMP              0 ****  ****    0 ROOT
