@<TRIPOS>MOLECULE
S71
   57    59     1     0     0
SMALL
bcc


@<TRIPOS>ATOM
      1 N22         0.2650    0.4310    0.4310 nh        1 S71     -0.929500
      2 C22         1.6270    0.2060    0.1950 ca        1 S71      0.647200
      3 C23         2.4890   -0.0830    1.3020 ca        1 S71     -0.287300
      4 C24         3.8200   -0.4010    1.0590 ca        1 S71      0.011700
      5 C27         4.7490   -0.6930    2.1740 c3        1 S71     -0.070800
      6 C25         4.2810   -0.4270   -0.2680 ca        1 S71     -0.278300
      7 N21         2.0820    0.1920   -1.0960 nb        1 S71     -0.780000
      8 C26         3.3830   -0.1260   -1.3020 ca        1 S71      0.416600
      9 C20         3.8960   -0.1120   -2.7170 c3        1 S71     -0.121700
     10 C17         3.3690   -1.2770   -3.5540 c3        1 S71     -0.018400
     11 C18         1.8520   -1.1300   -3.7470 c3        1 S71      0.106800
     12 N19         1.3330   -1.9230   -4.9020 n4        1 S71     -0.839600
     13 C15         4.0860   -1.3320   -4.8630 ca        1 S71     -0.276600
     14 C16         3.9100   -0.3230   -5.8350 ca        1 S71      0.359200
     15 N11         4.5390   -0.3200   -7.0230 nb        1 S71     -0.638000
     16 C12         5.3950   -1.3260   -7.2810 ca        1 S71      0.413200
     17 C14         4.9850   -2.3680   -5.1460 ca        1 S71     -0.088000
     18 C13         5.6590   -2.3770   -6.3730 ca        1 S71     -0.163600
     19 C09         6.6110   -3.4650   -6.7160 c3        1 S71     -0.044100
     20 C08         7.8780   -3.3830   -5.8800 c3        1 S71     -0.120700
     21 C06         8.7660   -4.5720   -6.1350 ca        1 S71      0.435600
     22 C05         9.9800   -4.3710   -6.8120 ca        1 S71     -0.289300
     23 C04        10.8170   -5.4730   -7.0440 ca        1 S71      0.003700
     24 C07        12.1110   -5.2910   -7.7400 c3        1 S71     -0.065800
     25 N01         8.3530   -5.7780   -5.6820 nb        1 S71     -0.747000
     26 C02         9.1600   -6.8580   -5.9250 ca        1 S71      0.644200
     27 N02         8.7090   -8.1360   -5.5680 nh        1 S71     -0.929500
     28 C03        10.4140   -6.7280   -6.6010 ca        1 S71     -0.294300
     29 H221        0.0590    0.7470    1.3530 hn        1 S71      0.412300
     30 H222       -0.2390    0.9050   -0.2840 hn        1 S71      0.412300
     31 H23         2.1000   -0.0570    2.3300 ha        1 S71      0.156000
     32 H271        4.1930   -0.9570    3.1080 hc        1 S71      0.061033
     33 H272        5.4270   -1.5430    1.9120 hc        1 S71      0.061033
     34 H273        5.3810    0.2070    2.3840 hc        1 S71      0.061033
     35 H25         5.3300   -0.6690   -0.4840 ha        1 S71      0.150000
     36 H201        3.6340    0.8610   -3.2130 hc        1 S71      0.079200
     37 H202        5.0180   -0.1830   -2.6960 hc        1 S71      0.079200
     38 H17         3.5610   -2.2330   -2.9870 hc        1 S71      0.082700
     39 H181        1.3110   -1.4880   -2.8240 hx        1 S71      0.124200
     40 H182        1.5870   -0.0480   -3.9280 hx        1 S71      0.124200
     41 H191        1.5260   -2.9180   -4.7590 hn        1 S71      0.458467
     42 H192        0.3240   -1.7840   -4.9970 hn        1 S71      0.458467
     43 H16         3.2550    0.5460   -5.6390 h4        1 S71      0.023100
     44 H14         5.1780   -3.1660   -4.4100 ha        1 S71      0.157000
     45 H12         5.9020   -1.2870   -8.2650 h4        1 S71      0.049100
     46 H091        6.8810   -3.4130   -7.8050 hc        1 S71      0.073200
     47 H092        6.1100   -4.4570   -6.5430 hc        1 S71      0.073200
     48 H081        8.4390   -2.4450   -6.1320 hc        1 S71      0.056700
     49 H082        7.6110   -3.3350   -4.7910 hc        1 S71      0.056700
     50 H05        10.2740   -3.3700   -7.1540 ha        1 S71      0.144000
     51 H071       11.9880   -4.6230   -8.6290 hc        1 S71      0.055700
     52 H072       12.8510   -4.8170   -7.0460 hc        1 S71      0.055700
     53 H073       12.5280   -6.2680   -8.0860 hc        1 S71      0.055700
     54 H03        11.0450   -7.6100   -6.7770 ha        1 S71      0.149000
     55 H021        7.9580   -8.1770   -4.9160 hn        1 S71      0.408800
     56 H022        9.4370   -8.7930   -5.4020 hn        1 S71      0.408800
     57 H193        1.8040   -1.6230   -5.7670 hn        1 S71      0.458467
@<TRIPOS>BOND
     1    1    2 1   
     2    1   29 1   
     3    1   30 1   
     4    2    3 ar  
     5    2    7 ar  
     6    3    4 ar  
     7    3   31 1   
     8    4    5 1   
     9    4    6 ar  
    10    5   32 1   
    11    5   33 1   
    12    5   34 1   
    13    6    8 ar  
    14    6   35 1   
    15    7    8 ar  
    16    8    9 1   
    17    9   10 1   
    18    9   36 1   
    19    9   37 1   
    20   10   11 1   
    21   10   13 1   
    22   10   38 1   
    23   11   12 1   
    24   11   39 1   
    25   11   40 1   
    26   12   41 1   
    27   12   42 1   
    28   12   57 1   
    29   13   14 ar  
    30   13   17 ar  
    31   14   15 ar  
    32   14   43 1   
    33   15   16 ar  
    34   16   18 ar  
    35   16   45 1   
    36   17   18 ar  
    37   17   44 1   
    38   18   19 1   
    39   19   20 1   
    40   19   46 1   
    41   19   47 1   
    42   20   21 1   
    43   20   48 1   
    44   20   49 1   
    45   21   22 ar  
    46   21   25 ar  
    47   22   23 ar  
    48   22   50 1   
    49   23   24 1   
    50   23   28 ar  
    51   24   51 1   
    52   24   52 1   
    53   24   53 1   
    54   25   26 ar  
    55   26   27 1   
    56   26   28 ar  
    57   27   55 1   
    58   27   56 1   
    59   28   54 1   
@<TRIPOS>SUBSTRUCTURE
     1 S71         1 TEMP              0 ****  ****    0 ROOT
