@<TRIPOS>MOLECULE
S71
   59    61     1     0     0
SMALL
bcc


@<TRIPOS>ATOM
      1 N22         1.3900    2.7600    0.4640 n4        1 S71     -0.821300
      2 C22         2.0400    1.4520    0.2190 ca        1 S71      0.462200
      3 C23         2.2690    0.5940    1.3110 ca        1 S71     -0.199300
      4 C24         2.9370   -0.6190    1.0570 ca        1 S71      0.021700
      5 C27         3.2160   -1.5510    2.1710 c3        1 S71     -0.091800
      6 C25         3.3450   -0.8970   -0.2510 ca        1 S71     -0.213300
      7 N21         2.4050    1.1830   -1.0670 nb        1 S71     -0.668000
      8 C26         3.0680    0.0270   -1.2880 ca        1 S71      0.427600
      9 C20         3.6240   -0.2270   -2.6650 c3        1 S71     -0.140700
     10 C17         3.0770   -1.4760   -3.3550 c3        1 S71     -0.015400
     11 C18         1.6120   -1.2320   -3.7570 c3        1 S71      0.099800
     12 N19         1.0890   -2.2400   -4.7220 n4        1 S71     -0.835600
     13 C15         3.9220   -1.7980   -4.5460 ca        1 S71     -0.290600
     14 C16         3.8730   -0.9870   -5.7000 ca        1 S71      0.376200
     15 N11         4.6180   -1.2110   -6.7980 nb        1 S71     -0.617000
     16 C12         5.4700   -2.2490   -6.7740 ca        1 S71      0.428200
     17 C14         4.8260   -2.8730   -4.5360 ca        1 S71     -0.074000
     18 C13         5.6240   -3.1110   -5.6600 ca        1 S71     -0.178600
     19 C09         6.6000   -4.2340   -5.7270 c3        1 S71     -0.034100
     20 C08         8.0300   -3.7210   -5.7590 c3        1 S71     -0.133700
     21 C06         9.0390   -4.7000   -6.2960 ca        1 S71      0.449600
     22 C05        10.1380   -4.1680   -7.0220 ca        1 S71     -0.202300
     23 C04        11.1300   -5.0180   -7.5100 ca        1 S71      0.017700
     24 C07        12.2940   -4.5020   -8.2620 c3        1 S71     -0.088800
     25 N01         8.9060   -6.0190   -6.0530 nb        1 S71     -0.677000
     26 C02         9.8880   -6.8350   -6.5390 ca        1 S71      0.452200
     27 N02         9.7370   -8.2830   -6.2620 n4        1 S71     -0.818300
     28 C03        11.0090   -6.4010   -7.2660 ca        1 S71     -0.201300
     29 H221        0.8980    3.0960   -0.3760 hn        1 S71      0.480467
     30 H222        2.1120    3.4480    0.7200 hn        1 S71      0.480467
     31 H23         1.9570    0.8410    2.3390 ha        1 S71      0.188000
     32 H271        2.3080   -1.6880    2.8120 hc        1 S71      0.087033
     33 H272        4.0360   -1.1380    2.8170 hc        1 S71      0.087033
     34 H273        3.5400   -2.5530    1.7950 hc        1 S71      0.087033
     35 H25         3.9010   -1.8210   -0.4730 ha        1 S71      0.173000
     36 H201        4.7380   -0.3550   -2.5450 hc        1 S71      0.102700
     37 H202        3.4720    0.6640   -3.3360 hc        1 S71      0.102700
     38 H17         3.1110   -2.3390   -2.6300 hc        1 S71      0.078700
     39 H181        0.9590   -1.2590   -2.8380 hx        1 S71      0.114200
     40 H182        1.5110   -0.2170   -4.2430 hx        1 S71      0.114200
     41 H191        0.1280   -2.0030   -4.9950 hn        1 S71      0.469800
     42 H192        1.6850   -2.2530   -5.5630 hn        1 S71      0.469800
     43 H16         3.2250   -0.0910   -5.7490 h4        1 S71      0.028100
     44 H14         4.9140   -3.5200   -3.6490 ha        1 S71      0.151000
     45 H12         6.0660   -2.4020   -7.6970 h4        1 S71      0.056100
     46 H091        6.4660   -4.9220   -4.8500 hc        1 S71      0.073200
     47 H092        6.3900   -4.8330   -6.6550 hc        1 S71      0.073200
     48 H081        8.0800   -2.7930   -6.3930 hc        1 S71      0.079200
     49 H082        8.3520   -3.4360   -4.7200 hc        1 S71      0.079200
     50 H05        10.2050   -3.0810   -7.1950 ha        1 S71      0.182000
     51 H071       12.4870   -5.1240   -9.1730 hc        1 S71      0.085033
     52 H072       13.2110   -4.5370   -7.6170 hc        1 S71      0.085033
     53 H073       12.1350   -3.4430   -8.5840 hc        1 S71      0.085033
     54 H03        11.7830   -7.0890   -7.6440 ha        1 S71      0.180000
     55 H021        8.8630   -8.6310   -6.6740 hn        1 S71      0.474133
     56 H022       10.5320   -8.7880   -6.6700 hn        1 S71      0.474133
     57 H223        0.7190    2.6650    1.2360 hn        1 S71      0.480467
     58 H193        1.0960   -3.1760   -4.3040 hn        1 S71      0.469800
     59 H023        9.7140   -8.4450   -5.2470 hn        1 S71      0.474133
@<TRIPOS>BOND
     1    1    2 1   
     2    1   29 1   
     3    1   30 1   
     4    1   57 1   
     5    2    3 ar  
     6    2    7 ar  
     7    3    4 ar  
     8    3   31 1   
     9    4    5 1   
    10    4    6 ar  
    11    5   32 1   
    12    5   33 1   
    13    5   34 1   
    14    6    8 ar  
    15    6   35 1   
    16    7    8 ar  
    17    8    9 1   
    18    9   10 1   
    19    9   36 1   
    20    9   37 1   
    21   10   11 1   
    22   10   13 1   
    23   10   38 1   
    24   11   12 1   
    25   11   39 1   
    26   11   40 1   
    27   12   41 1   
    28   12   42 1   
    29   12   58 1   
    30   13   14 ar  
    31   13   17 ar  
    32   14   15 ar  
    33   14   43 1   
    34   15   16 ar  
    35   16   18 ar  
    36   16   45 1   
    37   17   18 ar  
    38   17   44 1   
    39   18   19 1   
    40   19   20 1   
    41   19   46 1   
    42   19   47 1   
    43   20   21 1   
    44   20   48 1   
    45   20   49 1   
    46   21   22 ar  
    47   21   25 ar  
    48   22   23 ar  
    49   22   50 1   
    50   23   24 1   
    51   23   28 ar  
    52   24   51 1   
    53   24   52 1   
    54   24   53 1   
    55   25   26 ar  
    56   26   27 1   
    57   26   28 ar  
    58   27   55 1   
    59   27   56 1   
    60   27   59 1   
    61   28   54 1   
@<TRIPOS>SUBSTRUCTURE
     1 S71         1 TEMP              0 ****  ****    0 ROOT
