@<TRIPOS>MOLECULE
S71
   57    59     1     0     0
SMALL
bcc


@<TRIPOS>ATOM
      1 N22         0.2510    0.4250    0.4190 nv        1 S71     -0.929500
      2 C22         1.6130    0.1980    0.1890 ca        1 S71      0.647200
      3 C23         2.4690   -0.0980    1.2980 ca        1 S71     -0.287300
      4 C24         3.8000   -0.4180    1.0610 ca        1 S71      0.011700
      5 C27         4.7230   -0.7160    2.1800 c3        1 S71     -0.070800
      6 C25         4.2680   -0.4400   -0.2640 ca        1 S71     -0.278300
      7 N21         2.0740    0.1880   -1.1000 nb        1 S71     -0.780000
      8 C26         3.3760   -0.1320   -1.3010 ca        1 S71      0.416600
      9 C20         3.8960   -0.1130   -2.7130 c3        1 S71     -0.121700
     10 C17         3.3710   -1.2730   -3.5580 c3        1 S71     -0.018400
     11 C18         1.8560   -1.1230   -3.7570 c3        1 S71      0.106800
     12 N19         1.3400   -1.9110   -4.9180 nz        1 S71     -0.839600
     13 C15         4.0940   -1.3240   -4.8640 ca        1 S71     -0.276600
     14 C16         3.9240   -0.3100   -5.8320 ca        1 S71      0.359200
     15 N11         4.5590   -0.3030   -7.0180 nb        1 S71     -0.638000
     16 C12         5.4140   -1.3090   -7.2760 ca        1 S71      0.413200
     17 C14         4.9920   -2.3600   -5.1480 ca        1 S71     -0.088000
     18 C13         5.6720   -2.3650   -6.3710 ca        1 S71     -0.163600
     19 C09         6.6230   -3.4530   -6.7150 c3        1 S71     -0.044100
     20 C08         7.8850   -3.3810   -5.8710 c3        1 S71     -0.120700
     21 C06         8.7720   -4.5700   -6.1270 ca        1 S71      0.435600
     22 C05         9.9940   -4.3670   -6.7890 ca        1 S71     -0.289300
     23 C04        10.8300   -5.4690   -7.0210 ca        1 S71      0.003700
     24 C07        12.1220   -5.2900   -7.7220 c3        1 S71     -0.065800
     25 N01         8.3500   -5.7790   -5.6890 nb        1 S71     -0.747000
     26 C02         9.1560   -6.8590   -5.9320 ca        1 S71      0.644200
     27 N02         8.6990   -8.1380   -5.5900 nv        1 S71     -0.929500
     28 C03        10.4190   -6.7270   -6.5920 ca        1 S71     -0.294300
     29 H221        0.0410    0.7370    1.3410 hn        1 S71      0.412300
     30 H222       -0.2490    0.9020   -0.2970 hn        1 S71      0.412300
     31 H23         2.0750   -0.0750    2.3240 ha        1 S71      0.156000
     32 H271        5.4040   -1.5630    1.9150 hc        1 S71      0.061033
     33 H272        4.1630   -0.9870    3.1080 hc        1 S71      0.061033
     34 H273        5.3530    0.1830    2.3990 hc        1 S71      0.061033
     35 H25         5.3180   -0.6820   -0.4750 ha        1 S71      0.150000
     36 H201        5.0180   -0.1860   -2.6870 hc        1 S71      0.079200
     37 H202        3.6380    0.8630   -3.2070 hc        1 S71      0.079200
     38 H17         3.5590   -2.2330   -2.9940 hc        1 S71      0.082700
     39 H181        1.3100   -1.4850   -2.8380 hx        1 S71      0.124200
     40 H182        1.5920   -0.0400   -3.9350 hx        1 S71      0.124200
     41 H191        1.5310   -2.9070   -4.7790 hn        1 S71      0.458467
     42 H192        0.3320   -1.7700   -5.0160 hn        1 S71      0.458467
     43 H16         3.2690    0.5590   -5.6350 h4        1 S71      0.023100
     44 H14         5.1800   -3.1620   -4.4150 ha        1 S71      0.157000
     45 H12         5.9250   -1.2660   -8.2580 h4        1 S71      0.049100
     46 H091        6.1180   -4.4450   -6.5520 hc        1 S71      0.073200
     47 H092        6.9000   -3.3950   -7.8020 hc        1 S71      0.073200
     48 H081        8.4500   -2.4420   -6.1130 hc        1 S71      0.056700
     49 H082        7.6110   -3.3390   -4.7820 hc        1 S71      0.056700
     50 H05        10.2950   -3.3640   -7.1170 ha        1 S71      0.144000
     51 H071       11.9440   -5.1900   -8.8230 hc        1 S71      0.055033
     52 H072       12.6380   -4.3640   -7.3660 hc        1 S71      0.055033
     53 H073       12.8000   -6.1620   -7.5530 hc        1 S71      0.055033
     54 H03        11.0510   -7.6090   -6.7660 ha        1 S71      0.149000
     55 H021        9.4230   -8.7990   -5.4210 hn        1 S71      0.408800
     56 H022        7.9410   -8.1830   -4.9470 hn        1 S71      0.408800
     57 H193        1.8150   -1.6070   -5.7790 hn        1 S71      0.458467
@<TRIPOS>BOND
     1    1    2 1   
     2    1   29 1   
     3    1   30 1   
     4    2    3 ar  
     5    2    7 ar  
     6    3    4 ar  
     7    3   31 1   
     8    4    5 1   
     9    4    6 ar  
    10    5   32 1   
    11    5   33 1   
    12    5   34 1   
    13    6    8 ar  
    14    6   35 1   
    15    7    8 ar  
    16    8    9 1   
    17    9   10 1   
    18    9   36 1   
    19    9   37 1   
    20   10   11 1   
    21   10   13 1   
    22   10   38 1   
    23   11   12 1   
    24   11   39 1   
    25   11   40 1   
    26   12   41 1   
    27   12   42 1   
    28   12   57 1   
    29   13   14 ar  
    30   13   17 ar  
    31   14   15 ar  
    32   14   43 1   
    33   15   16 ar  
    34   16   18 ar  
    35   16   45 1   
    36   17   18 ar  
    37   17   44 1   
    38   18   19 1   
    39   19   20 1   
    40   19   46 1   
    41   19   47 1   
    42   20   21 1   
    43   20   48 1   
    44   20   49 1   
    45   21   22 ar  
    46   21   25 ar  
    47   22   23 ar  
    48   22   50 1   
    49   23   24 1   
    50   23   28 ar  
    51   24   51 1   
    52   24   52 1   
    53   24   53 1   
    54   25   26 ar  
    55   26   27 1   
    56   26   28 ar  
    57   27   55 1   
    58   27   56 1   
    59   28   54 1   
@<TRIPOS>SUBSTRUCTURE
     1 S71         1 TEMP              0 ****  ****    0 ROOT
