@<TRIPOS>MOLECULE
S74
   68    64     1     0     0
SMALL
bcc


@<TRIPOS>ATOM
      1 C26        -2.2630   -1.7400   -0.6140 c1        1 S74     -0.167000
      2 C32         3.9710   -5.4540   -0.3490 c1        1 S74     -0.087000
      3 C25         0.7610    0.5610   -0.1860 c2        1 S74     -0.216000
      4 C27        -1.4800   -1.5550    0.3000 c1        1 S74     -0.155000
      5 C31         3.5950   -4.4370    0.4270 c1        1 S74     -0.235000
      6 C33        -0.0890   -2.2510    6.5820 c1        1 S74     -0.217000
      7 C24         1.3160   -0.2120    0.7430 c2        1 S74     -0.179000
      8 C28        -0.7800   -1.4340    1.4360 c1        1 S74     -0.024000
      9 C30         3.4210   -3.4670    1.1530 c1        1 S74     -0.087000
     10 C34         0.6710   -2.2620    5.6580 c1        1 S74     -0.166000
     11 C12        13.9580    5.5270    5.7030 c1        1 S74     -0.034000
     12 C14        11.8710    7.1680    8.9720 c1        1 S74     -0.043000
     13 C11        10.6270    5.5000    5.9310 cy        1 S74     -0.197000
     14 C15        11.1600    6.9150    7.9460 c1        1 S74     -0.121000
     15 C23         0.5780   -1.0510    1.7340 c3        1 S74     -0.065000
     16 C29         1.5840   -2.3010    4.5540 c3        1 S74     -0.035000
     17 C13        12.6330    7.4950    9.8990 c1        1 S74     -0.155000
     18 C10        10.1470    6.3330    7.1570 cy        1 S74      0.099000
     19 C18        15.6140    9.2660   11.4430 cu        1 S74      0.284000
     20 C3          7.3300    2.1750    3.4500 c1        1 S74      0.378000
     21 C1          4.6480    2.2940    6.9800 c2        1 S74     -0.220000
     22 C19         8.7320    3.7080    5.8850 c3        1 S74     -0.257000
     23 C6          3.8420    2.1490    5.9370 c2        1 S74     -0.220000
     24 C8          8.9510    2.5450    5.0730 c1        1 S74     -0.094000
     25 C21         0.6650   -0.4200    3.1300 c3        1 S74     -0.116000
     26 C22         1.8420   -0.9100    3.9650 c3        1 S74     -0.128000
     27 C20         3.0760   -1.0060    3.1210 c1        1 S74     -0.188000
     28 C4          9.9210    4.2980    6.6040 cy        1 S74     -0.013000
     29 C17        14.5360    8.8890   10.5420 cx        1 S74     -0.050000
     30 N5          6.9130    1.0230    3.6720 n2        1 S74     -0.403000
     31 N2          4.0920   -0.2100    3.2730 n3        1 S74     -0.209000
     32 O36        15.9300    8.3760   10.4480 os        1 S74     -0.266000
     33 O35        16.2490    9.7710   12.3350 o         1 S74     -0.215000
     34 O7          7.4450    3.2740    2.9640 o         1 S74     -0.269000
     35 O9          9.4950    5.1360    7.7200 os        1 S74     -0.294000
     36 H1         -0.3250    0.6430   -0.3260 ha        1 S74      0.114500
     37 H2          3.3050   -6.1710   -0.8270 ha        1 S74      0.194500
     38 H3          1.3650    1.1580   -0.8820 ha        1 S74      0.114500
     39 H4         -2.9550   -1.9060   -1.3990 ha        1 S74      0.225000
     40 H5          3.2990   -2.6070    1.7950 ha        1 S74      0.194500
     41 H6         -0.7660   -2.2440    7.3970 ha        1 S74      0.221000
     42 H7          2.4140   -0.2730    0.8540 ha        1 S74      0.132000
     43 H8          1.1080   -2.0680    1.7770 hc        1 S74      0.173000
     44 H9          1.1780   -2.9770    3.7510 hc        1 S74      0.107000
     45 H10         2.5610   -2.7430    4.8990 hc        1 S74      0.107000
     46 H11        11.7350    5.3990    5.8340 hc        1 S74      0.134000
     47 H12        14.4060    6.2640    5.0200 ha        1 S74      0.021000
     48 H13        10.1850    5.8320    4.9690 hc        1 S74      0.134000
     49 H14         9.3570    7.1000    6.9360 h1        1 S74      0.150000
     50 H15         5.5120    2.9720    6.9730 ha        1 S74      0.110500
     51 H16         4.5040    1.7480    7.9230 ha        1 S74      0.110500
     52 H17         7.9350    3.4410    6.6480 hc        1 S74      0.176500
     53 H18         8.2420    4.4810    5.2150 hc        1 S74      0.176500
     54 H19         3.9810    2.7020    4.9980 ha        1 S74      0.110500
     55 H20         2.9730    1.4760    5.9490 ha        1 S74      0.110500
     56 H21         7.3250    0.4370    4.3530 hn        1 S74      0.236000
     57 H22         9.9590    2.1150    5.0110 ha        1 S74      0.074000
     58 H23         0.7380    0.6930    3.0180 hc        1 S74      0.100500
     59 H24        -0.2790   -0.6480    3.6940 hc        1 S74      0.100500
     60 H25         1.9530   -0.1870    4.8290 hc        1 S74      0.070000
     61 H26        10.6160    3.5100    6.9820 h1        1 S74      0.110000
     62 H27        14.6480    5.2570    6.5160 ha        1 S74      0.021000
     63 H28        12.8890    8.2970   11.7940 hc        1 S74      0.147000
     64 H29        14.0210    6.9440   11.3430 hc        1 S74      0.147000
     65 H30        14.2550    9.5470    9.6950 h1        1 S74      0.164000
     66 H31         4.8870   -0.3280    2.6820 hn        1 S74      0.208000
     67 H221        4.1650    0.5310    3.9460 hn        1 S74      0.208000
     68 C16        13.5040    7.8690   10.9460 c3        1 S74     -0.041000
@<TRIPOS>BOND
     1    1    4 1   
     2    1   39 1   
     3    2    5 1   
     4    2   37 1   
     5    3    7 1   
     6    3   36 1   
     7    3   38 1   
     8    4    8 1   
     9    5    9 1   
    10    6   10 1   
    11    6   41 1   
    12    7   15 1   
    13    7   42 1   
    14    8   15 1   
    15    9   40 1   
    16   10   16 1   
    17   11   47 1   
    18   11   62 1   
    19   12   14 1   
    20   12   17 1   
    21   13   18 1   
    22   13   28 1   
    23   13   46 1   
    24   13   48 1   
    25   14   18 1   
    26   15   25 1   
    27   15   43 1   
    28   16   26 1   
    29   16   44 1   
    30   16   45 1   
    31   17   68 1   
    32   18   35 1   
    33   18   49 1   
    34   19   29 1   
    35   19   32 1   
    36   19   33 1   
    37   20   30 1   
    38   20   34 1   
    39   21   23 1   
    40   21   50 1   
    41   21   51 1   
    42   22   24 1   
    43   22   28 1   
    44   22   52 1   
    45   22   53 1   
    46   23   54 1   
    47   23   55 1   
    48   24   57 1   
    49   25   26 1   
    50   25   58 1   
    51   25   59 1   
    52   26   27 1   
    53   26   60 1   
    54   27   31 1   
    55   28   35 1   
    56   28   61 1   
    57   29   32 1   
    58   29   65 1   
    59   29   68 1   
    60   30   56 1   
    61   31   66 1   
    62   31   67 1   
    63   63   68 1   
    64   64   68 1   
@<TRIPOS>SUBSTRUCTURE
     1 S74         1 TEMP              0 ****  ****    0 ROOT
