@<TRIPOS>MOLECULE
S79
   43    47     1     0     0
SMALL
bcc


@<TRIPOS>ATOM
      1 N1         -7.5830   -0.5680    1.5300 nh        1 S79     -0.884800
      2 C8         -6.3700   -0.2180    0.8790 cc        1 S79      0.662800
      3 N2         -5.2840   -0.9800    1.0550 nd        1 S79     -0.682100
      4 C4         -4.0710   -0.5490    0.5150 ca        1 S79      0.216400
      5 C5         -2.9200   -1.3400    0.7310 ca        1 S79     -0.146000
      6 C6         -1.7260   -0.9030    0.1730 ca        1 S79     -0.031200
      7 N3         -0.4280   -1.4260    0.2440 na        1 S79     -0.296300
      8 C9          0.3880   -0.5600   -0.5630 cc        1 S79      0.586700
      9 N4          1.7380   -0.8780   -0.8440 nh        1 S79     -0.761200
     10 C17         2.5270   -1.3340    0.2910 c3        1 S79      0.218100
     11 C18         4.0030   -1.1560    0.0770 ca        1 S79     -0.100300
     12 C20         4.6040    0.1320    0.2080 ca        1 S79     -0.025000
     13 C26         3.8590    1.3040    0.5190 ca        1 S79     -0.132000
     14 C25         4.4790    2.5240    0.6310 ca        1 S79     -0.114000
     15 C24         5.8770    2.6390    0.4410 ca        1 S79     -0.127000
     16 C23         6.6240    1.5270    0.1450 ca        1 S79     -0.114000
     17 C21         6.0070    0.2510    0.0210 ca        1 S79     -0.040000
     18 C22         6.7760   -0.9040   -0.2870 ca        1 S79     -0.104000
     19 C27         6.1720   -2.1300   -0.4080 ca        1 S79     -0.134000
     20 C19         4.7750   -2.2550   -0.2290 ca        1 S79     -0.099000
     21 N5         -0.3000    0.5130   -1.0410 nd        1 S79     -0.595100
     22 C1         -1.6300    0.3230   -0.6100 ca        1 S79      0.057400
     23 C2         -2.7690    1.0950   -0.8100 ca        1 S79     -0.002000
     24 C3         -3.9720    0.6540   -0.2510 ca        1 S79     -0.216600
     25 C7         -5.1860    1.4620   -0.4500 c         1 S79      0.721100
     26 O1         -5.2430    2.5330   -1.0830 o         1 S79     -0.623500
     27 N6         -6.3760    0.9710    0.1150 n         1 S79     -0.508400
     28 HN11       -8.4000   -0.4450    0.9720 hn        1 S79      0.411800
     29 HN12       -7.5510   -1.4550    1.9880 hn        1 S79      0.411800
     30 H5         -2.9770   -2.2640    1.3220 ha        1 S79      0.155000
     31 HN3        -0.2080   -2.3630    0.4590 hn        1 S79      0.303700
     32 HN4         2.1880   -0.1440   -1.3620 hn        1 S79      0.424800
     33 H171        2.2360   -0.8120    1.2510 h1        1 S79      0.051700
     34 H172        2.2970   -2.4320    0.4260 h1        1 S79      0.051700
     35 H26         2.7720    1.2300    0.6740 ha        1 S79      0.136000
     36 H25         3.8960    3.4260    0.8690 ha        1 S79      0.138000
     37 H24         6.3510    3.6270    0.5350 ha        1 S79      0.136000
     38 H23         7.7120    1.6010   -0.0040 ha        1 S79      0.135000
     39 H22         7.8620   -0.7930   -0.4270 ha        1 S79      0.136000
     40 H27         6.7610   -3.0270   -0.6490 ha        1 S79      0.137000
     41 H19         4.3140   -3.2480   -0.3410 ha        1 S79      0.136000
     42 H2         -2.7390    2.0310   -1.3900 ha        1 S79      0.174000
     43 HN6        -7.1940    1.5350    0.0550 hn        1 S79      0.335500
@<TRIPOS>BOND
     1    1    2 1   
     2    1   28 1   
     3    1   29 1   
     4    2    3 2   
     5    2   27 1   
     6    3    4 1   
     7    4    5 ar  
     8    4   24 ar  
     9    5    6 ar  
    10    5   30 1   
    11    6    7 1   
    12    6   22 ar  
    13    7    8 1   
    14    7   31 1   
    15    8    9 1   
    16    8   21 2   
    17    9   10 1   
    18    9   32 1   
    19   10   11 1   
    20   10   33 1   
    21   10   34 1   
    22   11   12 ar  
    23   11   20 ar  
    24   12   13 ar  
    25   12   17 ar  
    26   13   14 ar  
    27   13   35 1   
    28   14   15 ar  
    29   14   36 1   
    30   15   16 ar  
    31   15   37 1   
    32   16   17 ar  
    33   16   38 1   
    34   17   18 ar  
    35   18   19 ar  
    36   18   39 1   
    37   19   20 ar  
    38   19   40 1   
    39   20   41 1   
    40   21   22 1   
    41   22   23 ar  
    42   23   24 ar  
    43   23   42 1   
    44   24   25 1   
    45   25   26 2   
    46   25   27 1   
    47   27   43 1   
@<TRIPOS>SUBSTRUCTURE
     1 S79         1 TEMP              0 ****  ****    0 ROOT
