@<TRIPOS>MOLECULE
S79
   44    48     1     0     0
SMALL
bcc


@<TRIPOS>ATOM
      1 N1         -0.1180   -0.0990    0.0030 nz        1 S79     -0.795600
      2 C8          1.3800   -0.0020    0.0130 cc        1 S79      0.480800
      3 N2          1.9620   -0.1550    1.1870 nd        1 S79     -0.534100
      4 C4          3.3570   -0.0730    1.2370 ca        1 S79      0.100400
      5 C5          3.9960   -0.2350    2.4860 ca        1 S79     -0.056000
      6 C6          5.3810   -0.1540    2.5060 ca        1 S79     -0.075200
      7 N3          6.2990   -0.2410    3.5590 na        1 S79     -0.300300
      8 C9          7.5980   -0.1030    2.9710 cc        1 S79      0.677700
      9 N4          8.7660   -0.2520    3.6930 nu        1 S79     -0.794200
     10 C17         8.7610   -0.1330    5.1360 c3        1 S79      0.250100
     11 C18        10.1500   -0.0610    5.7010 ca        1 S79     -0.126300
     12 C20        10.9010    1.1500    5.6290 ca        1 S79     -0.019000
     13 C26        10.4070    2.3330    5.0110 ca        1 S79     -0.146000
     14 C25        11.1680    3.4750    4.9650 ca        1 S79     -0.103000
     15 C24        12.4630    3.4990    5.5340 ca        1 S79     -0.125000
     16 C23        12.9670    2.3750    6.1410 ca        1 S79     -0.104000
     17 C21        12.2000    1.1790    6.2020 ca        1 S79     -0.042000
     18 C22        12.7190    0.0130    6.8290 ca        1 S79     -0.086000
     19 C27        11.9750   -1.1400    6.8820 ca        1 S79     -0.138000
     20 C19        10.6830   -1.1770    6.3090 ca        1 S79     -0.084000
     21 N5          7.5290    0.1260    1.6060 nd        1 S79     -0.612100
     22 C1          6.1730    0.0900    1.2990 ca        1 S79      0.149400
     23 C2          5.5150    0.2510    0.0720 ca        1 S79     -0.033000
     24 C3          4.1280    0.1680    0.0520 ca        1 S79     -0.150600
     25 C7          3.4310    0.3340   -1.2370 c         1 S79      0.727100
     26 O1          3.9510    0.5480   -2.3360 o         1 S79     -0.548500
     27 N6          2.0110    0.2380   -1.2140 ns        1 S79     -0.513400
     28 HN11       -0.4580   -0.2760    0.9590 hn        1 S79      0.476467
     29 HN12       -0.4070   -0.8710   -0.6070 hn        1 S79      0.476467
     30 H5          3.4150   -0.4160    3.4030 ha        1 S79      0.164000
     31 HN3         6.1030   -0.5380    4.4790 hn        1 S79      0.319700
     32 HN4         9.6080    0.0130    3.2200 hn        1 S79      0.471800
     33 H171        8.2320   -1.0410    5.5530 h1        1 S79      0.051700
     34 H172        8.1810    0.7800    5.4640 h1        1 S79      0.051700
     35 H26         9.4000    2.3330    4.5690 ha        1 S79      0.123000
     36 H25        10.7790    4.3870    4.4860 ha        1 S79      0.139000
     37 H24        13.0550    4.4250    5.4840 ha        1 S79      0.144000
     38 H23        13.9730    2.3790    6.5900 ha        1 S79      0.143000
     39 H22        13.7280    0.0540    7.2690 ha        1 S79      0.145000
     40 H27        12.3720   -2.0460    7.3650 ha        1 S79      0.146000
     41 H19        10.1100   -2.1160    6.3590 ha        1 S79      0.136000
     42 H2          6.0820    0.4380   -0.8570 ha        1 S79      0.193000
     43 HN6         1.5100    0.3450   -2.0670 hn        1 S79      0.345500
     44 H13        -0.5150    0.7840   -0.3380 hn        1 S79      0.476467
@<TRIPOS>BOND
     1    1    2 1   
     2    1   28 1   
     3    1   29 1   
     4    1   44 1   
     5    2    3 2   
     6    2   27 1   
     7    3    4 1   
     8    4    5 ar  
     9    4   24 ar  
    10    5    6 ar  
    11    5   30 1   
    12    6    7 1   
    13    6   22 ar  
    14    7    8 1   
    15    7   31 1   
    16    8    9 1   
    17    8   21 2   
    18    9   10 1   
    19    9   32 1   
    20   10   11 1   
    21   10   33 1   
    22   10   34 1   
    23   11   12 ar  
    24   11   20 ar  
    25   12   13 ar  
    26   12   17 ar  
    27   13   14 ar  
    28   13   35 1   
    29   14   15 ar  
    30   14   36 1   
    31   15   16 ar  
    32   15   37 1   
    33   16   17 ar  
    34   16   38 1   
    35   17   18 ar  
    36   18   19 ar  
    37   18   39 1   
    38   19   20 ar  
    39   19   40 1   
    40   20   41 1   
    41   21   22 1   
    42   22   23 ar  
    43   23   24 ar  
    44   23   42 1   
    45   24   25 1   
    46   25   26 2   
    47   25   27 1   
    48   27   43 1   
@<TRIPOS>SUBSTRUCTURE
     1 S79         1 TEMP              0 ****  ****    0 ROOT
