@<TRIPOS>MOLECULE
S79
   44    48     1     0     0
SMALL
bcc


@<TRIPOS>ATOM
      1 N1         -0.1860   -0.2580    0.0070 n4        1 S79     -0.795600
      2 C8          1.3150   -0.2030   -0.0060 cc        1 S79      0.479800
      3 N2          1.9000   -0.0900    1.1710 nd        1 S79     -0.534100
      4 C4          3.2970   -0.0360    1.2010 ca        1 S79      0.099400
      5 C5          3.9390    0.0850    2.4530 ca        1 S79     -0.057000
      6 C6          5.3260    0.1400    2.4530 ca        1 S79     -0.075200
      7 N3          6.2490    0.2340    3.4990 na        1 S79     -0.301300
      8 C9          7.5450    0.2680    2.8910 cc        1 S79      0.681700
      9 N4          8.7040    0.4630    3.6110 nh        1 S79     -0.800200
     10 C17         8.7420    0.2290    5.0400 c3        1 S79      0.253100
     11 C18        10.1430    0.0850    5.5590 ca        1 S79     -0.129300
     12 C20        10.9800    1.2280    5.7230 ca        1 S79     -0.015000
     13 C26        10.5680    2.5470    5.3820 ca        1 S79     -0.137000
     14 C25        11.4110    3.6160    5.5610 ca        1 S79     -0.107000
     15 C24        12.7100    3.4280    6.0900 ca        1 S79     -0.123000
     16 C23        13.1370    2.1690    6.4290 ca        1 S79     -0.108000
     17 C21        12.2860    1.0430    6.2540 ca        1 S79     -0.043000
     18 C22        12.7250   -0.2630    6.6030 ca        1 S79     -0.084000
     19 C27        11.8990   -1.3460    6.4300 ca        1 S79     -0.140000
     20 C19        10.6010   -1.1700    5.9020 ca        1 S79     -0.092000
     21 N5          7.4740    0.1490    1.5110 nd        1 S79     -0.613100
     22 C1          6.1150    0.0770    1.2220 ca        1 S79      0.149400
     23 C2          5.4550   -0.0460   -0.0090 ca        1 S79     -0.033000
     24 C3          4.0660   -0.0990   -0.0080 ca        1 S79     -0.150600
     25 C7          3.3650   -0.2260   -1.3000 c         1 S79      0.727100
     26 O1          3.8850   -0.2940   -2.4180 o         1 S79     -0.549500
     27 N6          1.9440   -0.2760   -1.2540 n         1 S79     -0.513400
     28 HN11       -0.4990   -1.1440   -0.4040 hn        1 S79      0.476467
     29 HN12       -0.5250   -0.1960    0.9780 hn        1 S79      0.476467
     30 H5          3.3590    0.1310    3.3870 ha        1 S79      0.164000
     31 HN3         6.0410    0.4120    4.4460 hn        1 S79      0.320700
     32 HN4         9.5610    0.3540    3.1060 hn        1 S79      0.473800
     33 H171        8.1570   -0.7040    5.3000 h1        1 S79      0.051700
     34 H172        8.2370    1.1010    5.5510 h1        1 S79      0.051700
     35 H26         9.5630    2.7080    4.9670 ha        1 S79      0.131000
     36 H25        11.0860    4.6340    5.2940 ha        1 S79      0.139000
     37 H24        13.3660    4.3010    6.2240 ha        1 S79      0.144000
     38 H23        14.1450    2.0070    6.8420 ha        1 S79      0.142000
     39 H22        13.7400   -0.3870    7.0140 ha        1 S79      0.145000
     40 H27        12.2340   -2.3590    6.6990 ha        1 S79      0.145000
     41 H19         9.9590   -2.0560    5.7750 ha        1 S79      0.134000
     42 H2          6.0210   -0.0980   -0.9550 ha        1 S79      0.193000
     43 HN6         1.4400   -0.3610   -2.1090 hn        1 S79      0.345500
     44 H13        -0.5610    0.5300   -0.5320 hn        1 S79      0.476467
@<TRIPOS>BOND
     1    1    2 1   
     2    1   28 1   
     3    1   29 1   
     4    1   44 1   
     5    2    3 2   
     6    2   27 1   
     7    3    4 1   
     8    4    5 ar  
     9    4   24 ar  
    10    5    6 ar  
    11    5   30 1   
    12    6    7 1   
    13    6   22 ar  
    14    7    8 1   
    15    7   31 1   
    16    8    9 1   
    17    8   21 2   
    18    9   10 1   
    19    9   32 1   
    20   10   11 1   
    21   10   33 1   
    22   10   34 1   
    23   11   12 ar  
    24   11   20 ar  
    25   12   13 ar  
    26   12   17 ar  
    27   13   14 ar  
    28   13   35 1   
    29   14   15 ar  
    30   14   36 1   
    31   15   16 ar  
    32   15   37 1   
    33   16   17 ar  
    34   16   38 1   
    35   17   18 ar  
    36   18   19 ar  
    37   18   39 1   
    38   19   20 ar  
    39   19   40 1   
    40   20   41 1   
    41   21   22 1   
    42   22   23 ar  
    43   23   24 ar  
    44   23   42 1   
    45   24   25 1   
    46   25   26 2   
    47   25   27 1   
    48   27   43 1   
@<TRIPOS>SUBSTRUCTURE
     1 S79         1 TEMP              0 ****  ****    0 ROOT
