@<TRIPOS>MOLECULE
S79
   45    49     1     0     0
SMALL
bcc


@<TRIPOS>ATOM
      1 N1         -0.0920    0.6720    0.0080 n4        1 S79     -0.806600
      2 C8          1.3370    0.2090    0.0890 cc        1 S79      0.561800
      3 N2          2.0820    0.7970    1.0070 nd        1 S79     -0.570100
      4 C4          3.4260    0.3970    1.1190 ca        1 S79      0.189400
      5 C5          4.2290    1.0160    2.0900 ca        1 S79     -0.081000
      6 C6          5.5620    0.5960    2.1730 ca        1 S79     -0.014200
      7 N3          6.6070    0.9980    3.0070 na        1 S79     -0.253300
      8 C9          7.7290    0.2170    2.6140 cc        1 S79      0.446700
      9 N4          9.0390    0.3290    3.2560 n4        1 S79     -0.704000
     10 C17         9.0740   -0.3530    4.6140 c3        1 S79      0.196100
     11 C18        10.4300   -0.2090    5.1980 ca        1 S79     -0.221300
     12 C20        10.8460    1.0360    5.7600 ca        1 S79     -0.005000
     13 C26        10.0210    2.1930    5.7880 ca        1 S79     -0.200000
     14 C25        10.4750    3.3710    6.3350 ca        1 S79     -0.061000
     15 C24        11.7790    3.4560    6.8780 ca        1 S79     -0.123000
     16 C23        12.5960    2.3520    6.8760 ca        1 S79     -0.074000
     17 C21        12.1490    1.1200    6.3220 ca        1 S79     -0.052000
     18 C22        12.9870   -0.0270    6.3330 ca        1 S79     -0.031000
     19 C27        12.5540   -1.2190    5.7970 ca        1 S79     -0.149000
     20 C19        11.2720   -1.3090    5.2210 ca        1 S79     -0.037000
     21 N5          7.4580   -0.6490    1.6010 nd        1 S79     -0.463100
     22 C1          6.1040   -0.4340    1.2990 ca        1 S79      0.061400
     23 C2          5.2840   -1.0400    0.3360 ca        1 S79      0.045000
     24 C3          3.9620   -0.6200    0.2580 ca        1 S79     -0.181600
     25 C7          3.0840   -1.2480   -0.7520 c         1 S79      0.724100
     26 O1          3.4080   -2.1280   -1.5500 o         1 S79     -0.506500
     27 N6          1.7360   -0.7850   -0.8010 n         1 S79     -0.506400
     28 HN11       -0.2630    1.4060    0.7150 hn        1 S79      0.490467
     29 HN12       -0.2770    1.0590   -0.9270 hn        1 S79      0.490467
     30 H5          3.8280    1.7980    2.7560 ha        1 S79      0.187000
     31 HN3         6.5690    1.6880    3.7150 hn        1 S79      0.340700
     32 HN4         9.2960    1.3220    3.3690 hn        1 S79      0.482800
     33 H171        8.2870    0.1330    5.2580 hx        1 S79      0.110700
     34 H172        8.7990   -1.4350    4.4500 hx        1 S79      0.110700
     35 H26         8.9900    2.1430    5.4120 ha        1 S79      0.090000
     36 H25         9.8270    4.2610    6.3660 ha        1 S79      0.150000
     37 H24        12.1220    4.4120    7.3080 ha        1 S79      0.166000
     38 H23        13.6100    2.4010    7.3080 ha        1 S79      0.163000
     39 H22        13.9920    0.0540    6.7830 ha        1 S79      0.168000
     40 H27        13.2010   -2.1120    5.8140 ha        1 S79      0.170000
     41 H19        10.9470   -2.2750    4.8000 ha        1 S79      0.146000
     42 H2          5.6730   -1.8250   -0.3400 ha        1 S79      0.210000
     43 HN6         1.1220   -1.1930   -1.4770 hn        1 S79      0.365500
     44 H13        -0.7220   -0.1200    0.1890 hn        1 S79      0.490467
     45 H42         9.7460   -0.1140    2.6440 hn        1 S79      0.482800
@<TRIPOS>BOND
     1    1    2 1   
     2    1   28 1   
     3    1   29 1   
     4    1   44 1   
     5    2    3 2   
     6    2   27 1   
     7    3    4 1   
     8    4    5 ar  
     9    4   24 ar  
    10    5    6 ar  
    11    5   30 1   
    12    6    7 1   
    13    6   22 ar  
    14    7    8 1   
    15    7   31 1   
    16    8    9 1   
    17    8   21 2   
    18    9   10 1   
    19    9   32 1   
    20    9   45 1   
    21   10   11 1   
    22   10   33 1   
    23   10   34 1   
    24   11   12 ar  
    25   11   20 ar  
    26   12   13 ar  
    27   12   17 ar  
    28   13   14 ar  
    29   13   35 1   
    30   14   15 ar  
    31   14   36 1   
    32   15   16 ar  
    33   15   37 1   
    34   16   17 ar  
    35   16   38 1   
    36   17   18 ar  
    37   18   19 ar  
    38   18   39 1   
    39   19   20 ar  
    40   19   40 1   
    41   20   41 1   
    42   21   22 1   
    43   22   23 ar  
    44   23   24 ar  
    45   23   42 1   
    46   24   25 1   
    47   25   26 2   
    48   25   27 1   
    49   27   43 1   
@<TRIPOS>SUBSTRUCTURE
     1 S79         1 TEMP              0 ****  ****    0 ROOT
