@<TRIPOS>MOLECULE
S7B
   27    28     1     0     0
SMALL
bcc


@<TRIPOS>ATOM
      1 C1         -1.4150    0.3860    0.0530 ca        1 S7B     -0.133600
      2 C16        -2.7850    0.1470   -0.0940 ca        1 S7B     -0.097000
      3 C15        -3.2820   -1.1540   -0.1400 ca        1 S7B     -0.167000
      4 C14        -2.4150   -2.2400   -0.0410 ca        1 S7B     -0.142000
      5 C12        -1.0400   -2.0410    0.1070 ca        1 S7B     -0.112300
      6 C13        -0.1130   -3.1890    0.2180 c3        1 S7B     -0.033800
      7 C5         -0.5560   -0.7180    0.1590 ca        1 S7B      0.147100
      8 O6          0.7950   -0.5390    0.4510 os        1 S7B     -0.377200
      9 C7          1.6080    0.0080   -0.5280 c         1 S7B      0.733100
     10 O11         1.3490   -0.2240   -1.7090 o         1 S7B     -0.551000
     11 C8          2.7860    0.7010    0.0450 cx        1 S7B     -0.147700
     12 C10         4.1110    0.6070   -0.6590 cx        1 S7B     -0.131400
     13 C9          3.9120   -0.0870    0.6570 cx        1 S7B     -0.131400
     14 C2         -0.9050    1.8160    0.0900 c         1 S7B      0.922200
     15 O4         -1.7340    2.7400    0.3140 o         1 S7B     -0.829800
     16 O3          0.3320    2.0130   -0.1080 o         1 S7B     -0.829800
     17 H16        -3.4560    1.0190   -0.1620 ha        1 S7B      0.152000
     18 H15        -4.3600   -1.3260   -0.2580 ha        1 S7B      0.107000
     19 H14        -2.8100   -3.2650   -0.0830 ha        1 S7B      0.106000
     20 H13         0.8210   -2.9850   -0.3640 hc        1 S7B      0.031700
     21 H13A        0.1760   -3.3480    1.2880 hc        1 S7B      0.031700
     22 H13B       -0.5810   -4.1270   -0.1660 hc        1 S7B      0.031700
     23 H8          2.4610    1.6630    0.5030 hc        1 S7B      0.157700
     24 H10         4.1770    0.0020   -1.5810 hc        1 S7B      0.065700
     25 H10A        4.7460    1.5080   -0.7070 hc        1 S7B      0.065700
     26 H9          4.4020    0.3150    1.5610 hc        1 S7B      0.065700
     27 H9A         3.8460   -1.1880    0.6800 hc        1 S7B      0.065700
@<TRIPOS>BOND
     1    1    2 ar  
     2    1    7 ar  
     3    1   14 1   
     4    2    3 ar  
     5    2   17 1   
     6    3    4 ar  
     7    3   18 1   
     8    4    5 ar  
     9    4   19 1   
    10    5    6 1   
    11    5    7 ar  
    12    6   20 1   
    13    6   21 1   
    14    6   22 1   
    15    7    8 1   
    16    8    9 1   
    17    9   10 2   
    18    9   11 1   
    19   11   12 1   
    20   11   13 1   
    21   11   23 1   
    22   12   13 1   
    23   12   24 1   
    24   12   25 1   
    25   13   26 1   
    26   13   27 1   
    27   14   15 1   
    28   14   16 1   
@<TRIPOS>SUBSTRUCTURE
     1 S7B         1 TEMP              0 ****  ****    0 ROOT
