@<TRIPOS>MOLECULE
S7B
   27    28     1     0     0
SMALL
bcc


@<TRIPOS>ATOM
      1 C1         -0.0850    0.1040    0.1420 ca        1 S7B     -0.133600
      2 C16         1.2730   -0.2050    0.0160 ca        1 S7B     -0.097000
      3 C15         2.0780   -0.3620    1.1420 ca        1 S7B     -0.167000
      4 C14         1.5370   -0.2120    2.4180 ca        1 S7B     -0.142000
      5 C12         0.1840    0.0960    2.5840 ca        1 S7B     -0.112300
      6 C13        -0.3990    0.2520    3.9350 c3        1 S7B     -0.033800
      7 C5         -0.6150    0.2440    1.4340 ca        1 S7B      0.147100
      8 O6         -1.9870    0.4080    1.6220 os        1 S7B     -0.377200
      9 C7         -2.5580    1.6130    1.2480 c         1 S7B      0.733100
     10 O11        -1.8870    2.6400    1.3420 o         1 S7B     -0.551000
     11 C8         -3.9950    1.4700    0.9110 cx        1 S7B     -0.147700
     12 C10        -4.9540    2.5600    1.3030 cx        1 S7B     -0.131400
     13 C9         -5.0120    1.2270    1.9920 cx        1 S7B     -0.131400
     14 C2         -0.9320    0.2770   -1.1050 c         1 S7B      0.922200
     15 O4         -0.4870   -0.1710   -2.1960 o         1 S7B     -0.829800
     16 O3         -2.0480    0.8690   -0.9910 o         1 S7B     -0.829800
     17 H16         1.6810   -0.3290   -1.0000 ha        1 S7B      0.152000
     18 H15         3.1430   -0.6030    1.0270 ha        1 S7B      0.107000
     19 H14         2.1770   -0.3320    3.3040 ha        1 S7B      0.106000
     20 H13        -1.1180    1.1100    3.9460 hc        1 S7B      0.031700
     21 H13A        0.3940    0.4370    4.7000 hc        1 S7B      0.031700
     22 H13B       -0.9610   -0.6720    4.2210 hc        1 S7B      0.031700
     23 H8         -4.0930    0.9640   -0.0760 hc        1 S7B      0.157700
     24 H10        -5.7520    2.8370    0.5930 hc        1 S7B      0.065700
     25 H10A       -4.5650    3.4340    1.8540 hc        1 S7B      0.065700
     26 H9         -4.6740    1.1490    3.0400 hc        1 S7B      0.065700
     27 H9A        -5.8510    0.5420    1.7780 hc        1 S7B      0.065700
@<TRIPOS>BOND
     1    1    2 ar  
     2    1    7 ar  
     3    1   14 1   
     4    2    3 ar  
     5    2   17 1   
     6    3    4 ar  
     7    3   18 1   
     8    4    5 ar  
     9    4   19 1   
    10    5    6 1   
    11    5    7 ar  
    12    6   20 1   
    13    6   21 1   
    14    6   22 1   
    15    7    8 1   
    16    8    9 1   
    17    9   10 2   
    18    9   11 1   
    19   11   12 1   
    20   11   13 1   
    21   11   23 1   
    22   12   13 1   
    23   12   24 1   
    24   12   25 1   
    25   13   26 1   
    26   13   27 1   
    27   14   15 1   
    28   14   16 1   
@<TRIPOS>SUBSTRUCTURE
     1 S7B         1 TEMP              0 ****  ****    0 ROOT
