@<TRIPOS>MOLECULE
S7B
   27    28     1     0     0
SMALL
bcc


@<TRIPOS>ATOM
      1 C1         -0.1270    0.0760    0.1350 ca        1 S7B     -0.133600
      2 C16         1.2260   -0.2420   -0.0080 ca        1 S7B     -0.097000
      3 C15         2.0490   -0.3840    1.1080 ca        1 S7B     -0.167000
      4 C14         1.5290   -0.2090    2.3890 ca        1 S7B     -0.142000
      5 C12         0.1810    0.1090    2.5720 ca        1 S7B     -0.112300
      6 C13        -0.3800    0.2920    3.9290 c3        1 S7B     -0.033800
      7 C5         -0.6370    0.2420    1.4320 ca        1 S7B      0.147100
      8 O6         -2.0040    0.4160    1.6390 os        1 S7B     -0.377200
      9 C7         -2.5750    1.6180    1.2530 c         1 S7B      0.733100
     10 O11        -1.8970    2.6430    1.3180 o         1 S7B     -0.551000
     11 C8         -4.0170    1.4770    0.9420 cx        1 S7B     -0.147700
     12 C10        -4.9650    2.5780    1.3300 cx        1 S7B     -0.131400
     13 C9         -5.0190    1.2580    2.0420 cx        1 S7B     -0.131400
     14 C2         -0.9940    0.2330   -1.1020 c         1 S7B      0.922200
     15 O4         -0.5680   -0.2370   -2.1920 o         1 S7B     -0.829800
     16 O3         -2.1050    0.8320   -0.9810 o         1 S7B     -0.829800
     17 H16         1.6170   -0.3860   -1.0280 ha        1 S7B      0.152000
     18 H15         3.1110   -0.6330    0.9800 ha        1 S7B      0.107000
     19 H14         2.1820   -0.3170    3.2670 ha        1 S7B      0.106000
     20 H13        -0.9440   -0.6230    4.2390 hc        1 S7B      0.031700
     21 H13A       -1.0930    1.1550    3.9360 hc        1 S7B      0.031700
     22 H13B        0.4260    0.4840    4.6780 hc        1 S7B      0.031700
     23 H8         -4.1350    0.9560   -0.0350 hc        1 S7B      0.157700
     24 H10        -5.7730    2.8490    0.6280 hc        1 S7B      0.065700
     25 H10A       -4.5620    3.4600    1.8610 hc        1 S7B      0.065700
     26 H9         -5.8640    0.5740    1.8530 hc        1 S7B      0.065700
     27 H9A        -4.6640    1.1950    3.0860 hc        1 S7B      0.065700
@<TRIPOS>BOND
     1    1    2 ar  
     2    1    7 ar  
     3    1   14 1   
     4    2    3 ar  
     5    2   17 1   
     6    3    4 ar  
     7    3   18 1   
     8    4    5 ar  
     9    4   19 1   
    10    5    6 1   
    11    5    7 ar  
    12    6   20 1   
    13    6   21 1   
    14    6   22 1   
    15    7    8 1   
    16    8    9 1   
    17    9   10 2   
    18    9   11 1   
    19   11   12 1   
    20   11   13 1   
    21   11   23 1   
    22   12   13 1   
    23   12   24 1   
    24   12   25 1   
    25   13   26 1   
    26   13   27 1   
    27   14   15 1   
    28   14   16 1   
@<TRIPOS>SUBSTRUCTURE
     1 S7B         1 TEMP              0 ****  ****    0 ROOT
