@<TRIPOS>MOLECULE
S7K
   53    50     1     0     0
SMALL
bcc


@<TRIPOS>ATOM
      1 C1          0.6740   -1.0590    0.9320 c2        1 S7K     -0.140500
      2 C2          1.7170   -0.0720    1.0820 c2        1 S7K     -0.140500
      3 C3          1.6070    1.2700    1.1000 c2        1 S7K     -0.052000
      4 C4          0.4320    2.0230    0.9740 c1        1 S7K     -0.183500
      5 C5         -0.5450    2.7170    0.9000 c1        1 S7K     -0.157500
      6 C6         -0.6340   -0.8600    1.1850 c2        1 S7K     -0.052000
      7 N11         2.4500   -1.0280   -3.2120 n2        1 S7K     -0.195000
      8 C12         3.6160   -1.5540   -3.2670 c2        1 S7K     -0.068000
      9 C13         4.7840    0.0870   -4.8200 c1        1 S7K      0.230000
     10 C14         3.8960    1.0790   -4.9000 c2        1 S7K     -0.380000
     11 C15         2.8030    1.3020   -3.9860 c2        1 S7K     -0.044000
     12 C16         2.2020    0.3530   -3.2200 c2        1 S7K     -0.130000
     13 C19        -0.1590   -0.0010   -2.4960 c2        1 S7K      0.207000
     14 N21        -4.8970    1.5730    0.6240 n2        1 S7K     -0.235000
     15 C22        -4.7020    2.9170    0.8220 c2        1 S7K      0.069000
     16 N22        -4.0080    3.6570   -0.1670 nv        1 S7K     -0.323000
     17 C23        -5.1070    3.5650    2.0240 c2        1 S7K     -0.221000
     18 C24        -5.7170    2.8160    3.0330 c2        1 S7K      0.013000
     19 C25        -5.9160    1.4450    2.8260 c2        1 S7K     -0.205000
     20 C26        -5.4890    0.8850    1.6140 c2        1 S7K     -0.035000
     21 C28        -2.4440   -2.7140    0.9580 c1        1 S7K     -0.157500
     22 C29        -1.6050   -1.8630    1.0460 c1        1 S7K     -0.183500
     23 N29        -2.5060    0.7130   -1.0010 n9        1 S7K     -0.416000
     24 H1          1.0300   -2.0630    0.6300 ha        1 S7K      0.145500
     25 H3          2.5210    1.8830    1.2500 ha        1 S7K      0.155500
     26 H4         -1.4080    3.3380    0.8470 ha        1 S7K      0.243000
     27 H5         -1.0090    0.1190    1.5460 ha        1 S7K      0.155500
     28 H13         4.6080   -1.0440   -3.2320 h4        1 S7K      0.155500
     29 H15         2.4270    2.3420   -3.9650 ha        1 S7K      0.146000
     30 H19         2.7290   -0.5070    1.2060 ha        1 S7K      0.145500
     31 H19A       -0.1810   -0.9340   -3.0910 ha        1 S7K      0.218000
     32 H23        -3.3190    0.9250   -1.5460 hn        1 S7K      0.165333
     33 H25        -6.3990    0.8220    3.5910 ha        1 S7K      0.157000
     34 H28        -4.9440    4.6430    2.1620 ha        1 S7K      0.150000
     35 H28A       -5.6360   -0.1920    1.4110 h4        1 S7K      0.159000
     36 H29        -3.1870   -3.4710    0.8850 ha        1 S7K      0.243000
     37 HN29       -2.7210   -0.0670   -0.4060 hn        1 S7K      0.165333
     38 HN2B       -2.3030    1.5030   -0.4150 hn        1 S7K      0.165333
     39 HN22       -4.1390    3.3110   -1.0950 hn        1 S7K      0.185500
     40 HN23       -4.2110    4.6340   -0.1080 hn        1 S7K      0.185500
     41 C18         1.0370    0.7640   -2.3610 c3        1 S7K     -0.216000
     42 C17         4.0420    2.0700   -6.0110 c3        1 S7K     -0.151000
     43 H18         0.8270    1.8760   -2.4490 hc        1 S7K      0.224500
     44 H18A        1.3230    0.6530   -1.2380 hc        1 S7K      0.224500
     45 H293       -1.1280    0.3180   -1.9530 ha        1 S7K      0.218000
     46 C27        -6.1630    3.4620    4.2880 c3        1 S7K     -0.196000
     47 H12         3.6650   -2.6610   -3.3110 h4        1 S7K      0.155500
     48 H27        -7.2520    3.7140    4.2160 hc        1 S7K      0.099333
     49 H17         4.2040    3.0910   -5.5860 hc        1 S7K      0.100333
     50 H17A        4.9100    1.8170   -6.6700 hc        1 S7K      0.100333
     51 H17B        3.1140    2.0760   -6.6340 hc        1 S7K      0.100333
     52 H27A       -6.0210    2.7750    5.1590 hc        1 S7K      0.099333
     53 H27B       -5.5960    4.4060    4.4830 hc        1 S7K      0.099333
@<TRIPOS>BOND
     1    1    2 1   
     2    1    6 1   
     3    1   24 1   
     4    2    3 1   
     5    2   30 1   
     6    3    4 1   
     7    3   25 1   
     8    4    5 1   
     9    5   26 1   
    10    6   22 1   
    11    6   27 1   
    12    7    8 1   
    13    7   12 1   
    14    8   28 1   
    15    8   47 1   
    16    9   10 1   
    17   10   11 1   
    18   10   42 1   
    19   11   12 1   
    20   11   29 1   
    21   12   41 1   
    22   13   31 1   
    23   13   41 1   
    24   13   45 1   
    25   14   15 1   
    26   14   20 1   
    27   15   16 1   
    28   15   17 1   
    29   16   39 1   
    30   16   40 1   
    31   17   18 1   
    32   17   34 1   
    33   18   19 1   
    34   18   46 1   
    35   19   20 1   
    36   19   33 1   
    37   20   35 1   
    38   21   22 1   
    39   21   36 1   
    40   23   32 1   
    41   23   37 1   
    42   23   38 1   
    43   41   43 1   
    44   41   44 1   
    45   42   49 1   
    46   42   50 1   
    47   42   51 1   
    48   46   48 1   
    49   46   52 1   
    50   46   53 1   
@<TRIPOS>SUBSTRUCTURE
     1 S7K         1 TEMP              0 ****  ****    0 ROOT
