@<TRIPOS>MOLECULE
S7K
   54    53     1     0     0
SMALL
bcc


@<TRIPOS>ATOM
      1 C1        253.0420 -158.2740   61.6130 c2        1 S7K      0.203000
      2 C2        251.9600 -157.3650   61.4470 c2        1 S7K     -0.161000
      3 C3        251.3900 -157.0010   60.2600 c2        1 S7K      0.161000
      4 C4        251.7440 -157.4030   58.9730 c1        1 S7K     -0.206000
      5 C5        251.9690 -157.6930   57.8280 c1        1 S7K     -0.082000
      6 C6        253.7430 -158.9710   60.6320 c2        1 S7K     -0.366000
      7 N11       248.9560 -157.9760   62.0020 n2        1 S7K     -0.180000
      8 C12       248.0050 -158.7310   62.4150 c2        1 S7K     -0.085000
      9 C13       246.0950 -157.3730   61.5370 c1        1 S7K      0.192000
     10 C14       246.6480 -156.1860   61.2950 c2        1 S7K     -0.366000
     11 C15       247.9250 -155.7570   61.8230 c2        1 S7K     -0.105000
     12 C16       248.9510 -156.5800   62.1730 c2        1 S7K     -0.095000
     13 C19       251.4440 -156.8150   62.7480 c3        1 S7K     -0.118000
     14 N21      -429.6680  270.6310 -106.2930 n3        1 S7K     -0.173000
     15 C22      -430.2870  270.9220 -104.9440 c3        1 S7K      0.025000
     16 N22      -431.5370  270.2290 -104.8090 n3        1 S7K     -0.346000
     17 C23      -429.3460  270.8340 -103.8050 c1        1 S7K      0.029000
     18 C24      -427.9780  270.4460 -104.0090 c2        1 S7K     -0.045000
     19 C25      -427.4750  270.4090 -105.2780 c2        1 S7K     -0.148000
     20 C26      -428.3680  270.4400 -106.4350 c2        1 S7K      0.172000
     21 C28      -427.7300  270.1970 -107.7610 c3        1 S7K     -0.249000
     22 C29       254.7590 -159.8050   61.0710 c1        1 S7K     -0.050000
     23 N29       255.5450 -160.5890   60.1390 n4        1 S7K     -0.064000
     24 H1        253.3610 -158.4500   62.6680 ha        1 S7K      0.167000
     25 H3        250.5240 -156.2970   60.2740 ha        1 S7K      0.185000
     26 H4        252.1580 -157.9400   56.8100 ha        1 S7K      0.246000
     27 H5        253.4740 -158.8470   59.5680 ha        1 S7K      0.139000
     28 H13       247.1320 -158.4430   63.0430 h4        1 S7K      0.142000
     29 H15       248.0550 -154.6630   61.9010 ha        1 S7K      0.147000
     30 H19       251.2420 -157.6790   63.4400 hc        1 S7K      0.105500
     31 H19A      252.2710 -156.2070   63.2120 hc        1 S7K      0.105500
     32 H23      -430.4650  272.0650 -104.9960 h2        1 S7K      0.198000
     33 H25      -426.3970  270.2960 -105.4900 ha        1 S7K      0.196000
     34 H28      -428.4610  270.1660 -108.6080 hc        1 S7K      0.147000
     35 H28A     -426.9850  271.0130 -107.9600 hc        1 S7K      0.147000
     36 H29      -427.1780  269.2200 -107.7310 hc        1 S7K      0.147000
     37 HN29      255.4350 -161.5700   60.4280 hn        1 S7K      0.237000
     38 HN2B      256.5250 -160.3210   60.2970 hn        1 S7K      0.237000
     39 HN22     -430.2890  270.5090 -107.0770 hn        1 S7K      0.278000
     40 HN23     -431.5150  269.4890 -104.1390 hn        1 S7K      0.217500
     41 C18       250.2130 -155.9380   62.6870 c3        1 S7K     -0.112000
     42 C17       245.9170 -155.1970   60.4490 c3        1 S7K     -0.146000
     43 H18       250.0020 -155.5820   63.7350 hc        1 S7K      0.104500
     44 H18A      250.4320 -155.0230   62.0700 hc        1 S7K      0.104500
     45 H223     -432.3140  270.8420 -104.6810 hn        1 S7K      0.217500
     46 H293      255.3300 -160.5060   59.1400 hn        1 S7K      0.237000
     47 C27      -427.1580  270.1850 -102.8100 c3        1 S7K     -0.198000
     48 H12       248.0740 -159.8090   62.1740 h4        1 S7K      0.142000
     49 H27      -427.0750  271.1230 -102.1980 hc        1 S7K      0.128000
     50 H17       244.9480 -155.6140   60.0790 hc        1 S7K      0.093667
     51 H17A      246.5440 -154.9170   59.5670 hc        1 S7K      0.093667
     52 H17B      245.7030 -154.2770   61.0470 hc        1 S7K      0.093667
     53 H27A     -426.1310  269.8340 -103.0780 hc        1 S7K      0.128000
     54 H27B     -427.6550  269.4100 -102.1700 hc        1 S7K      0.128000
@<TRIPOS>BOND
     1    1    2 1   
     2    1    6 1   
     3    1   24 1   
     4    2    3 1   
     5    2   13 1   
     6    3    4 1   
     7    3   25 1   
     8    4    5 1   
     9    5   26 1   
    10    6   22 1   
    11    6   27 1   
    12    7    8 1   
    13    7   12 1   
    14    8   28 1   
    15    8   48 1   
    16    9   10 1   
    17   10   11 1   
    18   10   42 1   
    19   11   12 1   
    20   11   29 1   
    21   12   41 1   
    22   13   30 1   
    23   13   31 1   
    24   13   41 1   
    25   14   15 1   
    26   14   20 1   
    27   14   39 1   
    28   15   16 1   
    29   15   17 1   
    30   15   32 1   
    31   16   40 1   
    32   16   45 1   
    33   17   18 1   
    34   18   19 1   
    35   18   47 1   
    36   19   20 1   
    37   19   33 1   
    38   20   21 1   
    39   21   34 1   
    40   21   35 1   
    41   21   36 1   
    42   22   23 1   
    43   23   37 1   
    44   23   38 1   
    45   23   46 1   
    46   41   43 1   
    47   41   44 1   
    48   42   50 1   
    49   42   51 1   
    50   42   52 1   
    51   47   49 1   
    52   47   53 1   
    53   47   54 1   
@<TRIPOS>SUBSTRUCTURE
     1 S7K         1 TEMP              0 ****  ****    0 ROOT
