@<TRIPOS>MOLECULE
S7K
   53    51     1     0     0
SMALL
bcc


@<TRIPOS>ATOM
      1 C1          0.3370   -0.0290   -2.1060 c2        1 S7K     -0.034000
      2 C2          1.0830    1.0430   -2.7280 c2        1 S7K     -0.199000
      3 C3          2.2800   -1.1680    1.7250 c1        1 S7K      0.039000
      4 C4          1.1500   -0.7640    1.5880 c1        1 S7K     -0.264000
      5 C5         -0.1480   -0.3020    1.4870 c2        1 S7K      0.256000
      6 C6         -0.1840    0.0230   -0.9130 c1        1 S7K      0.043000
      7 N11         4.4630    0.6490   -4.4300 n2        1 S7K     -0.159000
      8 C12         5.1210   -0.3380   -4.9140 c2        1 S7K     -0.101000
      9 C13         6.0530    0.7320   -6.9850 c1        1 S7K      0.186000
     10 C14         5.3450    1.8580   -7.0650 c2        1 S7K     -0.362000
     11 C15         4.0920    2.1000   -6.3860 c2        1 S7K     -0.094000
     12 C16         3.6970    1.5260   -5.2180 c2        1 S7K     -0.083000
     13 C19         1.6480    0.9070   -3.9400 c2        1 S7K     -0.028000
     14 N21        -4.9860    0.9810    3.9190 n2        1 S7K     -0.195000
     15 C22        -5.0310    1.3900    2.5110 c3        1 S7K     -0.072000
     16 N22        -4.3140    0.4680    1.6090 n3        1 S7K     -0.311000
     17 C23        -6.3290    1.8430    1.9340 c1        1 S7K     -0.080000
     18 C24        -7.3950    2.1440    2.8410 c2        1 S7K     -0.135000
     19 C25        -7.2940    1.7780    4.1470 c2        1 S7K     -0.089000
     20 C26        -6.0390    1.1920    4.6500 c2        1 S7K      0.002000
     21 C28        -6.0570    0.8610    6.1120 c3        1 S7K     -0.189000
     22 C29        -0.7690    0.0660    0.2880 c2        1 S7K     -0.195000
     23 N29        -1.9700    0.1120    3.7280 n3        1 S7K     -0.408000
     24 H1          0.2130   -0.9670   -2.6960 ha        1 S7K      0.201000
     25 H3          3.2790   -1.5250    1.8510 ha        1 S7K      0.260000
     26 H4         -0.7610   -0.2050    2.4610 ha        1 S7K      0.273000
     27 H5         -1.8230    0.4210    0.3610 ha        1 S7K      0.203000
     28 H13         5.1110   -0.7260   -5.9580 h4        1 S7K      0.141000
     29 H15         3.4470    2.8610   -6.8620 ha        1 S7K      0.145000
     30 H19         1.1760    1.9820   -2.1560 ha        1 S7K      0.152000
     31 H19A        1.5660   -0.0330   -4.5140 ha        1 S7K      0.136000
     32 H23        -4.4140    2.3670    2.4810 h2        1 S7K      0.165000
     33 H25        -8.1170    1.9020    4.8690 ha        1 S7K      0.159000
     34 H28        -5.0930    0.4190    6.4650 hc        1 S7K      0.105000
     35 H28A       -6.2570    1.7940    6.6960 hc        1 S7K      0.105000
     36 H29        -6.8790    0.1290    6.3090 hc        1 S7K      0.105000
     37 HN29       -1.6260    0.0900    4.6670 hn        1 S7K      0.157333
     38 HN2B       -2.3480    1.0210    3.5460 hn        1 S7K      0.157333
     39 HN22       -4.6140   -0.4750    1.7740 hn        1 S7K      0.156500
     40 HN23       -4.5740    0.7170    0.6690 hn        1 S7K      0.156500
     41 C18         2.4070    1.9990   -4.5960 c3        1 S7K     -0.099000
     42 C17         5.8500    2.9680   -7.9270 c3        1 S7K     -0.147000
     43 H18         1.7520    2.4470   -5.3950 hc        1 S7K      0.119000
     44 H18A        2.6490    2.8160   -3.8600 hc        1 S7K      0.119000
     45 H293       -2.7090   -0.5590    3.6430 hn        1 S7K      0.157333
     46 C27        -8.6110    2.7790    2.2830 c3        1 S7K     -0.173000
     47 H12         5.7450   -0.9210   -4.2090 h4        1 S7K      0.141000
     48 H27        -9.4100    2.8880    3.0550 hc        1 S7K      0.098000
     49 H17         5.9960    3.8880   -7.3080 hc        1 S7K      0.094667
     50 H17A        5.1050    3.1880   -8.7320 hc        1 S7K      0.094667
     51 H17B        6.8240    2.7010   -8.4060 hc        1 S7K      0.094667
     52 H27A       -8.3570    3.7930    1.8810 hc        1 S7K      0.098000
     53 H27B       -9.0060    2.1640    1.4350 hc        1 S7K      0.098000
@<TRIPOS>BOND
     1    1    2 1   
     2    1    6 1   
     3    1   24 1   
     4    2   13 1   
     5    2   30 1   
     6    3    4 1   
     7    3   25 1   
     8    4    5 1   
     9    5   22 1   
    10    5   26 1   
    11    6   22 1   
    12    7    8 1   
    13    7   12 1   
    14    8   28 1   
    15    8   47 1   
    16    9   10 1   
    17   10   11 1   
    18   10   42 1   
    19   11   12 1   
    20   11   29 1   
    21   12   41 1   
    22   13   31 1   
    23   13   41 1   
    24   14   15 1   
    25   14   20 1   
    26   15   16 1   
    27   15   17 1   
    28   15   32 1   
    29   16   39 1   
    30   16   40 1   
    31   17   18 1   
    32   18   19 1   
    33   18   46 1   
    34   19   20 1   
    35   19   33 1   
    36   20   21 1   
    37   21   34 1   
    38   21   35 1   
    39   21   36 1   
    40   22   27 1   
    41   23   37 1   
    42   23   38 1   
    43   23   45 1   
    44   41   43 1   
    45   41   44 1   
    46   42   49 1   
    47   42   50 1   
    48   42   51 1   
    49   46   48 1   
    50   46   52 1   
    51   46   53 1   
@<TRIPOS>SUBSTRUCTURE
     1 S7K         1 TEMP              0 ****  ****    0 ROOT
