@<TRIPOS>MOLECULE
S7M
   52    55     1     0     0
SMALL
bcc


@<TRIPOS>ATOM
      1 C1         -1.1400   -0.0290    1.7470 c3        1 S7M     -0.073600
      2 S2         -2.2780   -0.1440    0.4330 s6        1 S7M     -0.057700
      3 C3         -3.2990    1.2730    0.5720 c3        1 S7M     -0.051600
      4 C4         -4.5920    0.9170    1.2660 c3        1 S7M     -0.057400
      5 C5         -5.3520   -0.1970    0.5260 c3        1 S7M      0.064500
      6 C6         -4.6360   -1.5420    0.7290 c         1 S7M      0.700600
      7 O7         -3.3160   -1.6010    0.5980 os        1 S7M     -0.445800
      8 O8         -5.2280   -2.5990    0.9820 o         1 S7M     -0.637500
      9 N9         -6.7580   -0.2210    0.8780 n3        1 S7M     -0.881800
     10 C10        -1.3260    0.0820   -1.0290 c3        1 S7M     -0.117600
     11 C11        -0.7230    1.4400   -1.2930 c3        1 S7M      0.132100
     12 C12        -0.1910    1.5760   -2.7400 c3        1 S7M      0.127100
     13 C13         1.2930    1.9790   -2.5940 c3        1 S7M      0.076100
     14 C14         1.6220    1.7540   -1.0830 c3        1 S7M      0.220800
     15 O15         0.3650    1.6940   -0.3920 os        1 S7M     -0.420600
     16 N16         2.4210    0.5810   -0.8400 na        1 S7M     -0.292000
     17 C17         2.2020   -0.7380   -1.3260 cc        1 S7M      0.396700
     18 N18         3.0020   -1.6570   -0.7740 nd        1 S7M     -0.529100
     19 C19         3.7840   -0.9510    0.1550 ca        1 S7M     -0.240200
     20 C20         3.4200    0.4600    0.1450 ca        1 S7M      0.472800
     21 N21         4.0110    1.4020    0.9370 nb        1 S7M     -0.741000
     22 C22         4.9690    0.8770    1.7410 ca        1 S7M      0.692900
     23 N23         5.4080   -0.4010    1.8620 nb        1 S7M     -0.792000
     24 C24         4.8230   -1.3560    1.0590 ca        1 S7M      0.767200
     25 N25         5.2290   -2.6610    1.1060 nh        1 S7M     -0.956500
     26 O26         1.3990    3.3560   -2.8870 oh        1 S7M     -0.588800
     27 O27        -0.9500    2.4820   -3.4980 oh        1 S7M     -0.573800
     28 C28        -1.7820    0.0120    3.1030 c3        1 S7M     -0.070100
     29 H1         -0.4840   -0.9380    1.6820 h1        1 S7M      0.102200
     30 H2         -0.4640    0.8560    1.6150 h1        1 S7M      0.102200
     31 H3         -2.7960    2.0980    1.1350 h1        1 S7M      0.094200
     32 H4         -3.5260    1.6700   -0.4500 h1        1 S7M      0.094200
     33 H5         -4.3860    0.5910    2.3200 hc        1 S7M      0.063700
     34 H6         -5.2370    1.8350    1.3190 hc        1 S7M      0.063700
     35 H7         -5.3080    0.0170   -0.5860 h1        1 S7M      0.074700
     36 H9         -7.1940   -1.0150    0.4450 hn        1 S7M      0.359800
     37 H10        -6.8640   -0.3080    1.8720 hn        1 S7M      0.359800
     38 H12        -0.5120   -0.6860   -1.0060 h1        1 S7M      0.092200
     39 H13        -2.0040   -0.1720   -1.8840 h1        1 S7M      0.092200
     40 H14        -1.4710    2.2590   -1.0850 h1        1 S7M      0.074700
     41 H15        -0.2760    0.6010   -3.2940 h1        1 S7M      0.092700
     42 H16         1.9480    1.3750   -3.2740 h1        1 S7M      0.075700
     43 H17         2.1530    2.6490   -0.6350 h2        1 S7M      0.128700
     44 H18         1.4530   -0.9330   -2.1040 h5        1 S7M      0.070800
     45 H19         5.4750    1.6070    2.4110 h5        1 S7M      0.055100
     46 H20         5.9190   -2.9540    1.7520 hn        1 S7M      0.451800
     47 H21         4.7540   -3.3310    0.5540 hn        1 S7M      0.451800
     48 H22         2.3350    3.5480   -3.0250 ho        1 S7M      0.425000
     49 H23        -0.7600    3.3780   -3.1830 ho        1 S7M      0.426000
     50 H24        -2.3290    0.9750    3.2570 hc        1 S7M      0.042033
     51 H25        -2.5020   -0.8350    3.2270 hc        1 S7M      0.042033
     52 H26        -1.0050   -0.0720    3.9020 hc        1 S7M      0.042033
@<TRIPOS>BOND
     1    1    2 1   
     2    1   28 1   
     3    1   29 1   
     4    1   30 1   
     5    2    3 1   
     6    2    7 1   
     7    2   10 1   
     8    3    4 1   
     9    3   31 1   
    10    3   32 1   
    11    4    5 1   
    12    4   33 1   
    13    4   34 1   
    14    5    6 1   
    15    5    9 1   
    16    5   35 1   
    17    6    7 1   
    18    6    8 2   
    19    9   36 1   
    20    9   37 1   
    21   10   11 1   
    22   10   38 1   
    23   10   39 1   
    24   11   12 1   
    25   11   15 1   
    26   11   40 1   
    27   12   13 1   
    28   12   27 1   
    29   12   41 1   
    30   13   14 1   
    31   13   26 1   
    32   13   42 1   
    33   14   15 1   
    34   14   16 1   
    35   14   43 1   
    36   16   17 1   
    37   16   20 1   
    38   17   18 2   
    39   17   44 1   
    40   18   19 1   
    41   19   20 ar  
    42   19   24 ar  
    43   20   21 ar  
    44   21   22 ar  
    45   22   23 ar  
    46   22   45 1   
    47   23   24 ar  
    48   24   25 1   
    49   25   46 1   
    50   25   47 1   
    51   26   48 1   
    52   27   49 1   
    53   28   50 1   
    54   28   51 1   
    55   28   52 1   
@<TRIPOS>SUBSTRUCTURE
     1 S7M         1 TEMP              0 ****  ****    0 ROOT
