@<TRIPOS>MOLECULE
S7M
   52    50     1     0     0
SMALL
bcc


@<TRIPOS>ATOM
      1 C1          2.1020    1.5020    2.4250 c3        1 S7M     -0.114100
      2 S2          0.7200    0.4630    2.1940 s4        1 S7M      0.246100
      3 C3         -0.0660    0.1870    3.7500 c3        1 S7M     -0.080100
      4 C4          0.0920   -1.2730    4.1500 c3        1 S7M     -0.059400
      5 C5         -0.6850   -1.5360    5.5010 c3        1 S7M      0.070500
      6 C6         -1.2160   -2.9250    5.5000 c         1 S7M      0.863600
      7 O7         -2.3950   -3.1270    5.7190 o         1 S7M     -0.746800
      8 O8         -0.4160   -3.9280    5.2580 o         1 S7M     -0.746800
      9 N9          0.1760   -1.3710    6.5700 n3        1 S7M     -0.882800
     10 C10        -0.4540    1.2550    1.0560 c3        1 S7M     -0.126100
     11 C11         0.1720    1.3720   -0.3360 c3        1 S7M      0.148100
     12 C12        -0.5380    2.5010   -1.1540 c3        1 S7M      0.080100
     13 C13        -0.8740    1.8840   -2.4820 c3        1 S7M      0.077100
     14 C14        -0.2080    0.7360   -2.5040 c3        1 S7M      0.258800
     15 O15        -0.0290    0.2990   -0.9990 os        1 S7M     -0.435600
     16 N16        -0.9650   -0.2630   -3.2240 n3        1 S7M     -0.127400
     17 C17        -2.0580   -1.0450   -3.0650 c1        1 S7M      0.174400
     18 N18        -2.1200   -1.9090   -4.1300 ne        1 S7M     -0.391400
     19 C19        -1.0600   -1.6510   -4.9410 cg        1 S7M     -0.189000
     20 C20        -0.3430   -0.6350   -4.3850 c1        1 S7M      0.347500
     21 N21         0.7790   -0.1780   -5.0020 n1        1 S7M     -0.531800
     22 C22         1.1930   -0.7420   -6.1920 c1        1 S7M      0.404300
     23 N23         0.4810   -1.7550   -6.7490 n1        1 S7M     -0.591800
     24 C24        -0.6430   -2.2160   -6.1360 c1        1 S7M      0.287800
     25 N25        -0.9440   -3.3250   -6.9910 n3        1 S7M     -0.815400
     26 O26        -0.4140    2.7630   -3.5810 oh        1 S7M     -0.591800
     27 O27         0.3110    3.5780   -1.3260 oh        1 S7M     -0.584800
     28 C28         3.3380    0.6440    2.7120 c3        1 S7M     -0.074100
     29 H1          2.2520    2.0270    1.6200 h1        1 S7M      0.097200
     30 H2          1.9370    2.1030    3.1840 h1        1 S7M      0.097200
     31 H3          0.3560    0.7690    4.4440 h1        1 S7M      0.093200
     32 H4         -0.9790    0.3960    3.6810 h1        1 S7M      0.093200
     33 H5         -0.2740   -1.8430    3.4490 hc        1 S7M      0.066200
     34 H6          1.0480   -1.4770    4.2750 hc        1 S7M      0.066200
     35 H7         -1.4410   -0.8910    5.5830 h1        1 S7M      0.075700
     36 H9          0.1550   -0.4600    6.8570 hn        1 S7M      0.361300
     37 H10         1.0740   -1.6020    6.2990 hn        1 S7M      0.361300
     38 H12        -1.2480    0.7240    1.0010 h1        1 S7M      0.092700
     39 H13        -0.6880    2.1750    1.3980 h1        1 S7M      0.092700
     40 H14         1.1350    1.5550   -0.2660 h1        1 S7M      0.063700
     41 H15        -1.3600    2.7870   -0.6940 h1        1 S7M      0.110700
     42 H16        -1.8670    1.7180   -2.5550 h1        1 S7M      0.088700
     43 H17         0.6730    0.8650   -2.9250 h2        1 S7M      0.129700
     44 H18        -2.6520   -1.0170   -2.3480 DU        1 S7M      0.243000
     45 H19         2.0160   -0.4060   -6.6420 ha        1 S7M      0.131500
     46 H20        -1.8090   -3.4360   -7.3230 hn        1 S7M      0.443800
     47 H21        -0.3090   -3.9450   -7.1700 hn        1 S7M      0.443800
     48 H22        -1.1460    3.2320   -3.9340 ho        1 S7M      0.424000
     49 H23        -0.0650    4.2950   -1.0150 ho        1 S7M      0.417000
     50 H24         3.1970   -0.2500    2.3580 hc        1 S7M      0.046033
     51 H25         3.4920    0.5910    3.7180 hc        1 S7M      0.046033
     52 H26         4.1270    1.0470    2.2810 hc        1 S7M      0.046033
@<TRIPOS>BOND
     1    1    2 1   
     2    1   28 1   
     3    1   29 1   
     4    1   30 1   
     5    2    3 1   
     6    2   10 1   
     7    3    4 1   
     8    3   31 1   
     9    3   32 1   
    10    4    5 1   
    11    4   33 1   
    12    4   34 1   
    13    5    6 1   
    14    5    9 1   
    15    5   35 1   
    16    6    7 1   
    17    6    8 1   
    18    9   36 1   
    19    9   37 1   
    20   10   11 1   
    21   10   38 1   
    22   10   39 1   
    23   11   12 1   
    24   11   15 1   
    25   11   40 1   
    26   12   13 1   
    27   12   27 1   
    28   12   41 1   
    29   13   14 1   
    30   13   26 1   
    31   13   42 1   
    32   14   15 1   
    33   14   16 1   
    34   14   43 1   
    35   16   17 2   
    36   16   20 1   
    37   17   18 2   
    38   18   19 1   
    39   19   24 3   
    40   20   21 3   
    41   22   23 3   
    42   22   45 1   
    43   24   25 1   
    44   25   46 1   
    45   25   47 1   
    46   26   48 1   
    47   27   49 1   
    48   28   50 1   
    49   28   51 1   
    50   28   52 1   
@<TRIPOS>SUBSTRUCTURE
     1 S7M         1 TEMP              0 ****  ****    0 ROOT
