@<TRIPOS>MOLECULE
S80
   68    68     1     0     0
SMALL
bcc


@<TRIPOS>ATOM
      1 C10        -0.3550    0.0810    0.1450 c         1 S80      0.694500
      2 O4         -1.2520    0.2170   -0.7230 o         1 S80     -0.689500
      3 N3          0.9810    0.1830   -0.1220 n         1 S80     -0.394800
      4 C9          1.9820    0.0320    0.9170 c3        1 S80      0.069000
      5 C8          2.0620   -1.3470    1.5670 c3        1 S80     -0.120400
      6 C7          1.0030   -1.5600    2.6220 c3        1 S80     -0.082400
      7 C6         -0.4080   -1.5510    2.0680 c3        1 S80     -0.098400
      8 C5         -0.8120   -0.1410    1.6160 c3        1 S80      0.042500
      9 N2         -2.3090    0.0460    1.7010 ny        1 S80     -0.664800
     10 C4         -2.7510    1.4690    1.8520 c         1 S80      0.569100
     11 C3         -4.1310    1.7750    1.2910 c3        1 S80     -0.136700
     12 C2         -4.6830    3.0220    2.0000 c3        1 S80     -0.116700
     13 C1         -6.0240    3.3790    1.4040 c         1 S80      0.546100
     14 O1         -6.9410    2.6670    1.0420 o         1 S80     -0.377100
     15 N1         -6.3080    4.8890    1.2850 ny        1 S80     -0.465300
     16 O2         -7.6250    5.1920    1.2960 oh        1 S80     -0.340300
     17 C11        -4.8630    2.8340    3.5100 c3        1 S80     -0.095400
     18 C12        -5.7680    1.6950    3.9340 c3        1 S80     -0.133400
     19 C13        -5.0210    0.4630    4.4260 c3        1 S80      0.127400
     20 O5         -4.6380   -0.3640    3.3330 oh        1 S80     -0.686800
     21 C14        -4.0150    1.9570   -0.2240 c3        1 S80     -0.110400
     22 C15        -4.9790    1.0660   -1.0020 c3        1 S80     -0.068700
     23 C17        -5.0070    1.5090   -2.4530 c3        1 S80     -0.106600
     24 C16        -4.5790   -0.3920   -0.9160 c3        1 S80     -0.106600
     25 O3         -1.9980    2.2640    2.3970 o         1 S80     -0.431100
     26 C18         1.4300    0.0840   -1.5040 c3        1 S80      0.071000
     27 C19         2.1180   -1.2350   -1.8770 c3        1 S80      0.102400
     28 O6          1.2120   -2.2980   -1.6050 os        1 S80     -0.447600
     29 C20         1.5920   -3.5160   -2.2340 c3        1 S80      0.112700
     30 H91         2.9830    0.2650    0.4500 h1        1 S80      0.072700
     31 H92         1.7900    0.8120    1.7090 h1        1 S80      0.072700
     32 H81         1.9960   -2.1500    0.7830 hc        1 S80      0.087200
     33 H82         3.0720   -1.4350    2.0530 hc        1 S80      0.087200
     34 H71         1.1750   -2.5620    3.1040 hc        1 S80      0.071200
     35 H72         1.1020   -0.7850    3.4290 hc        1 S80      0.071200
     36 H61        -0.4800   -2.2610    1.2000 hc        1 S80      0.079200
     37 H62        -1.0970   -1.9250    2.8740 hc        1 S80      0.079200
     38 H5         -0.3390    0.6360    2.2900 hx        1 S80      0.136700
     39 HN2        -2.6820   -0.4910    2.5020 hn        1 S80      0.489800
     40 H3         -4.8270    0.9100    1.5240 hc        1 S80      0.138700
     41 H2         -3.9430    3.8620    1.8420 hc        1 S80      0.112700
     42 HN1        -5.8680    5.2650    0.4220 hn        1 S80      0.489800
     43 HO2        -8.1140    4.5560    0.7150 ho        1 S80      0.490000
     44 H111       -5.2610    3.7970    3.9330 hc        1 S80      0.083700
     45 H112       -3.8350    2.6980    3.9500 hc        1 S80      0.083700
     46 H121       -6.4580    1.4000    3.1000 hc        1 S80      0.079200
     47 H122       -6.4110    2.0550    4.7850 hc        1 S80      0.079200
     48 H131       -4.0620    0.7410    4.9430 h1        1 S80      0.077200
     49 H132       -5.6650   -0.1110    5.1460 h1        1 S80      0.077200
     50 HO5        -5.3010   -1.0600    3.2410 ho        1 S80      0.444000
     51 H141       -2.9690    1.7340   -0.5790 hc        1 S80      0.076200
     52 H142       -4.2140    3.0310   -0.4820 hc        1 S80      0.076200
     53 H15        -6.0130    1.1830   -0.5690 hc        1 S80      0.047700
     54 H171       -5.3240    2.5760   -2.5350 hc        1 S80      0.054033
     55 H172       -5.7290    0.8810   -3.0290 hc        1 S80      0.054033
     56 H173       -3.9970    1.4000   -2.9170 hc        1 S80      0.054033
     57 H161       -4.6950   -0.7770    0.1270 hc        1 S80      0.054033
     58 H162       -3.5210   -0.5330   -1.2520 hc        1 S80      0.054033
     59 H163       -5.2370   -1.0060   -1.5810 hc        1 S80      0.054033
     60 H181        2.1670    0.9200   -1.6780 h1        1 S80      0.089700
     61 H182        0.5420    0.2320   -2.1840 h1        1 S80      0.089700
     62 H191        2.3730   -1.2000   -2.9700 h1        1 S80      0.054200
     63 H192        3.0560   -1.3940   -1.2810 h1        1 S80      0.054200
     64 H201        1.6030   -3.3960   -3.3450 h1        1 S80      0.048033
     65 H202        0.8020   -4.2450   -1.9250 h1        1 S80      0.048033
     66 H203        2.5970   -3.8450   -1.8710 h1        1 S80      0.048033
     67 H22        -2.7250   -0.3250    0.8230 hn        1 S80      0.489800
     68 H12        -5.9090    5.3910    2.1070 hn        1 S80      0.489800
@<TRIPOS>BOND
     1    1    2 2   
     2    1    3 1   
     3    1    8 1   
     4    3    4 1   
     5    3   26 1   
     6    4    5 1   
     7    4   30 1   
     8    4   31 1   
     9    5    6 1   
    10    5   32 1   
    11    5   33 1   
    12    6    7 1   
    13    6   34 1   
    14    6   35 1   
    15    7    8 1   
    16    7   36 1   
    17    7   37 1   
    18    8    9 1   
    19    8   38 1   
    20    9   10 1   
    21    9   39 1   
    22    9   67 1   
    23   10   11 1   
    24   10   25 2   
    25   11   12 1   
    26   11   21 1   
    27   11   40 1   
    28   12   13 1   
    29   12   17 1   
    30   12   41 1   
    31   13   14 2   
    32   13   15 1   
    33   15   16 1   
    34   15   42 1   
    35   15   68 1   
    36   16   43 1   
    37   17   18 1   
    38   17   44 1   
    39   17   45 1   
    40   18   19 1   
    41   18   46 1   
    42   18   47 1   
    43   19   20 1   
    44   19   48 1   
    45   19   49 1   
    46   20   50 1   
    47   21   22 1   
    48   21   51 1   
    49   21   52 1   
    50   22   23 1   
    51   22   24 1   
    52   22   53 1   
    53   23   54 1   
    54   23   55 1   
    55   23   56 1   
    56   24   57 1   
    57   24   58 1   
    58   24   59 1   
    59   26   27 1   
    60   26   60 1   
    61   26   61 1   
    62   27   28 1   
    63   27   62 1   
    64   27   63 1   
    65   28   29 1   
    66   29   64 1   
    67   29   65 1   
    68   29   66 1   
@<TRIPOS>SUBSTRUCTURE
     1 S80         1 TEMP              0 ****  ****    0 ROOT
