@<TRIPOS>MOLECULE
S80
   68    68     1     0     0
SMALL
bcc


@<TRIPOS>ATOM
      1 C10        -0.3700    0.0670    0.1680 c         1 S80      0.694500
      2 O4         -1.2490    0.1990   -0.7190 o         1 S80     -0.689500
      3 N3          0.9700    0.1790   -0.0710 n         1 S80     -0.394800
      4 C9          1.9500    0.0300    0.9880 c3        1 S80      0.069000
      5 C8          2.0270   -1.3500    1.6350 c3        1 S80     -0.120400
      6 C7          0.9470   -1.5740    2.6670 c3        1 S80     -0.082400
      7 C6         -0.4520   -1.5710    2.0840 c3        1 S80     -0.098400
      8 C5         -0.8560   -0.1620    1.6290 c3        1 S80      0.042500
      9 N2         -2.3540    0.0180    1.6850 n4        1 S80     -0.665800
     10 C4         -2.8060    1.4380    1.8460 c         1 S80      0.569100
     11 C3         -4.1690    1.7450    1.2480 c3        1 S80     -0.139700
     12 C2         -4.7520    2.9770    1.9570 c3        1 S80     -0.108700
     13 C1         -6.0640    3.3420    1.3060 c         1 S80      0.555100
     14 O1         -7.0190    2.6570    1.0010 o         1 S80     -0.368100
     15 N1         -6.2690    4.8480    0.9930 n4        1 S80     -0.471300
     16 O2         -5.9600    5.6270    2.0540 oh        1 S80     -0.348300
     17 C11        -4.9940    2.7650    3.4540 c3        1 S80     -0.092400
     18 C12        -5.8940    1.6060    3.8300 c3        1 S80     -0.134400
     19 C13        -5.1450    0.3760    4.3250 c3        1 S80      0.127400
     20 O5         -4.7300   -0.4360    3.2320 oh        1 S80     -0.685800
     21 C14        -4.0130    1.9500   -0.2600 c3        1 S80     -0.110400
     22 C15        -4.9670    1.0810   -1.0740 c3        1 S80     -0.069700
     23 C17        -4.9630    1.5490   -2.5170 c3        1 S80     -0.106100
     24 C16        -4.5780   -0.3810   -1.0040 c3        1 S80     -0.106100
     25 O3         -2.0720    2.2240    2.4270 o         1 S80     -0.427100
     26 C18         1.4490    0.0880   -1.4430 c3        1 S80      0.071000
     27 C19         2.1550   -1.2240   -1.8070 c3        1 S80      0.102400
     28 O6          1.2510   -2.2950   -1.5590 os        1 S80     -0.447600
     29 C20         1.6570   -3.5080   -2.1810 c3        1 S80      0.112700
     30 H91         1.7370    0.8070    1.7780 h1        1 S80      0.072700
     31 H92         2.9600    0.2720    0.5430 h1        1 S80      0.072700
     32 H81         3.0270   -1.4340    2.1410 hc        1 S80      0.087200
     33 H82         1.9810   -2.1510    0.8460 hc        1 S80      0.087200
     34 H71         1.0250   -0.8020    3.4780 hc        1 S80      0.070700
     35 H72         1.1150   -2.5770    3.1480 hc        1 S80      0.070700
     36 H61        -1.1560   -1.9510    2.8740 hc        1 S80      0.079200
     37 H62        -0.5030   -2.2790    1.2120 hc        1 S80      0.079200
     38 H5         -0.3990    0.6150    2.3150 hx        1 S80      0.136700
     39 HN2        -2.7510   -0.3430    0.7940 hn        1 S80      0.489300
     40 H3         -4.8650    0.8730    1.4490 hc        1 S80      0.136700
     41 H2         -4.0130    3.8290    1.8540 hc        1 S80      0.123700
     42 HN1        -5.6000    5.1280    0.2440 hn        1 S80      0.487800
     43 HO2        -6.7450    5.6970    2.6460 ho        1 S80      0.484000
     44 H111       -5.4260    3.7210    3.8620 hc        1 S80      0.084200
     45 H112       -3.9830    2.6460    3.9360 hc        1 S80      0.084200
     46 H121       -6.5680    1.9430    4.6670 hc        1 S80      0.077700
     47 H122       -6.5540    1.3160    2.9700 hc        1 S80      0.077700
     48 H131       -5.7980   -0.2120    5.0240 h1        1 S80      0.076700
     49 H132       -4.2000    0.6580    4.8650 h1        1 S80      0.076700
     50 HO5        -5.3930   -1.1260    3.1070 ho        1 S80      0.443000
     51 H141       -4.1910    3.0300   -0.5060 hc        1 S80      0.075200
     52 H142       -2.9600    1.7190   -0.5920 hc        1 S80      0.075200
     53 H15        -6.0090    1.1980   -0.6590 hc        1 S80      0.044700
     54 H171       -5.6770    0.9350   -3.1180 hc        1 S80      0.054033
     55 H172       -3.9440    1.4400   -2.9630 hc        1 S80      0.054033
     56 H173       -5.2710    2.6190   -2.5870 hc        1 S80      0.054033
     57 H161       -5.2260   -0.9800   -1.6920 hc        1 S80      0.054033
     58 H162       -3.5140   -0.5230   -1.3210 hc        1 S80      0.054033
     59 H163       -4.7160   -0.7820    0.0300 hc        1 S80      0.054033
     60 H181        2.1830    0.9310   -1.5990 h1        1 S80      0.089700
     61 H182        0.5740    0.2320   -2.1410 h1        1 S80      0.089700
     62 H191        2.4340   -1.1830   -2.8940 h1        1 S80      0.054200
     63 H192        3.0820   -1.3780   -1.1920 h1        1 S80      0.054200
     64 H201        0.8650   -4.2440   -1.8930 h1        1 S80      0.048033
     65 H202        2.6550   -3.8290   -1.7950 h1        1 S80      0.048033
     66 H203        1.6930   -3.3860   -3.2920 h1        1 S80      0.048033
     67 H22        -2.7410   -0.5300    2.4710 hn        1 S80      0.489300
     68 H12        -7.2350    5.0170    0.6470 hn        1 S80      0.487800
@<TRIPOS>BOND
     1    1    2 2   
     2    1    3 1   
     3    1    8 1   
     4    3    4 1   
     5    3   26 1   
     6    4    5 1   
     7    4   30 1   
     8    4   31 1   
     9    5    6 1   
    10    5   32 1   
    11    5   33 1   
    12    6    7 1   
    13    6   34 1   
    14    6   35 1   
    15    7    8 1   
    16    7   36 1   
    17    7   37 1   
    18    8    9 1   
    19    8   38 1   
    20    9   10 1   
    21    9   39 1   
    22    9   67 1   
    23   10   11 1   
    24   10   25 2   
    25   11   12 1   
    26   11   21 1   
    27   11   40 1   
    28   12   13 1   
    29   12   17 1   
    30   12   41 1   
    31   13   14 2   
    32   13   15 1   
    33   15   16 1   
    34   15   42 1   
    35   15   68 1   
    36   16   43 1   
    37   17   18 1   
    38   17   44 1   
    39   17   45 1   
    40   18   19 1   
    41   18   46 1   
    42   18   47 1   
    43   19   20 1   
    44   19   48 1   
    45   19   49 1   
    46   20   50 1   
    47   21   22 1   
    48   21   51 1   
    49   21   52 1   
    50   22   23 1   
    51   22   24 1   
    52   22   53 1   
    53   23   54 1   
    54   23   55 1   
    55   23   56 1   
    56   24   57 1   
    57   24   58 1   
    58   24   59 1   
    59   26   27 1   
    60   26   60 1   
    61   26   61 1   
    62   27   28 1   
    63   27   62 1   
    64   27   63 1   
    65   28   29 1   
    66   29   64 1   
    67   29   65 1   
    68   29   66 1   
@<TRIPOS>SUBSTRUCTURE
     1 S80         1 TEMP              0 ****  ****    0 ROOT
