@<TRIPOS>MOLECULE
S80
   66    66     1     0     0
SMALL
bcc


@<TRIPOS>ATOM
      1 C10        -0.5370    0.2770   -2.6100 c         1 S80      0.678500
      2 O4         -1.6130   -0.2340   -2.2360 o         1 S80     -0.651500
      3 N3         -0.4570    0.9710   -3.8110 n         1 S80     -0.449800
      4 C9          0.8030    1.4890   -4.2890 c3        1 S80      0.089000
      5 C8          1.8700    0.4440   -4.6230 c3        1 S80     -0.112400
      6 C7          2.6040   -0.0490   -3.3970 c3        1 S80     -0.078400
      7 C6          1.7190   -0.7700   -2.4060 c3        1 S80     -0.084400
      8 C5          0.7300    0.1920   -1.7200 c3        1 S80      0.027700
      9 N2          0.4030   -0.2300   -0.3760 n         1 S80     -0.536900
     10 C4          0.4270    0.6680    0.6830 c         1 S80      0.659100
     11 C3         -0.2520    0.2090    1.9760 c3        1 S80     -0.128700
     12 C2          0.3860    0.9180    3.1710 c3        1 S80     -0.116700
     13 C1         -0.3340    0.5180    4.4520 c         1 S80      0.593100
     14 O1         -0.6750   -0.6470    4.7110 o         1 S80     -0.562100
     15 N1         -0.4610    1.5300    5.4560 n         1 S80     -0.354400
     16 O2         -1.3690    1.2700    6.4010 oh        1 S80     -0.439100
     17 C11         1.8750    0.6270    3.3180 c3        1 S80     -0.079400
     18 C12         2.2150   -0.8440    3.3980 c3        1 S80     -0.095400
     19 C13         3.6600   -1.0250    3.8300 c3        1 S80      0.134400
     20 O5          3.9550   -2.4090    3.7260 oh        1 S80     -0.599800
     21 C14        -1.7460    0.5140    1.8570 c3        1 S80     -0.075400
     22 C15        -2.6230   -0.7150    2.0570 c3        1 S80     -0.075700
     23 C17        -4.0720   -0.2860    2.1750 c3        1 S80     -0.096600
     24 C16        -2.4650   -1.7090    0.9250 c3        1 S80     -0.096600
     25 O3          0.9970    1.7740    0.5870 o         1 S80     -0.617100
     26 C18        -1.5360    0.8590   -4.7660 c3        1 S80      0.084000
     27 C19        -1.2230    0.0910   -6.0570 c3        1 S80      0.101400
     28 O6         -0.9640   -1.2640   -5.7070 os        1 S80     -0.414600
     29 C20        -0.7360   -2.0850   -6.8400 c3        1 S80      0.113700
     30 H91         0.5950    2.0940   -5.2180 h1        1 S80      0.052200
     31 H92         1.2130    2.1990   -3.5140 h1        1 S80      0.052200
     32 H81         1.4020   -0.4220   -5.1640 hc        1 S80      0.055700
     33 H82         2.6090    0.9210   -5.3200 hc        1 S80      0.055700
     34 H71         3.4120   -0.7570   -3.7270 hc        1 S80      0.046700
     35 H72         3.1110    0.8150   -2.8890 hc        1 S80      0.046700
     36 H61         1.1520   -1.5900   -2.9190 hc        1 S80      0.062700
     37 H62         2.3760   -1.2510   -1.6320 hc        1 S80      0.062700
     38 H5          1.2010    1.2210   -1.6480 h1        1 S80      0.105700
     39 HN2        -0.2510   -0.9830   -0.3190 hn        1 S80      0.323500
     40 H3         -0.1040   -0.9000    2.1200 hc        1 S80      0.097700
     41 H2          0.2810    2.0290    2.9960 hc        1 S80      0.081700
     42 HN1        -0.6770    2.4430    5.0700 hn        1 S80      0.298500
     43 HO2        -0.9970    0.5400    6.9350 ho        1 S80      0.435000
     44 H111        2.4040    1.0870    2.4380 hc        1 S80      0.061200
     45 H112        2.2440    1.1490    4.2420 hc        1 S80      0.061200
     46 H121        1.5380   -1.3670    4.1250 hc        1 S80      0.066200
     47 H122        2.0700   -1.3340    2.4000 hc        1 S80      0.066200
     48 H131        4.3490   -0.4390    3.1630 h1        1 S80      0.020200
     49 H132        3.8030   -0.6790    4.8890 h1        1 S80      0.020200
     50 HO5         4.8560   -2.5230    4.0490 ho        1 S80      0.398000
     51 H141       -2.0280    1.2840    2.6230 hc        1 S80      0.050700
     52 H142       -1.9740    0.9610    0.8520 hc        1 S80      0.050700
     53 H15        -2.3170   -1.2130    3.0230 hc        1 S80      0.070700
     54 H171       -4.7230   -1.1750    2.3560 hc        1 S80      0.037867
     55 H172       -4.2030    0.4260    3.0250 hc        1 S80      0.037867
     56 H173       -4.4100    0.2140    1.2360 hc        1 S80      0.037867
     57 H161       -2.5580   -1.2040   -0.0690 hc        1 S80      0.037867
     58 H162       -1.4700   -2.2140    0.9810 hc        1 S80      0.037867
     59 H163       -3.2530   -2.4970    0.9940 hc        1 S80      0.037867
     60 H181       -1.8340    1.9040   -5.0720 h1        1 S80      0.074200
     61 H182       -2.4160    0.3630   -4.2630 h1        1 S80      0.074200
     62 H191       -0.3320    0.5160   -6.5910 h1        1 S80      0.030700
     63 H192       -2.1180    0.1450   -6.7340 h1        1 S80      0.030700
     64 H201       -0.5730   -3.1070   -6.4150 h1        1 S80      0.033700
     65 H202       -1.6240   -2.0790   -7.5190 h1        1 S80      0.033700
     66 H203        0.1710   -1.7420   -7.3970 h1        1 S80      0.033700
@<TRIPOS>BOND
     1    1    2 2   
     2    1    3 1   
     3    1    8 1   
     4    3    4 1   
     5    3   26 1   
     6    4    5 1   
     7    4   30 1   
     8    4   31 1   
     9    5    6 1   
    10    5   32 1   
    11    5   33 1   
    12    6    7 1   
    13    6   34 1   
    14    6   35 1   
    15    7    8 1   
    16    7   36 1   
    17    7   37 1   
    18    8    9 1   
    19    8   38 1   
    20    9   10 1   
    21    9   39 1   
    22   10   11 1   
    23   10   25 2   
    24   11   12 1   
    25   11   21 1   
    26   11   40 1   
    27   12   13 1   
    28   12   17 1   
    29   12   41 1   
    30   13   14 2   
    31   13   15 1   
    32   15   16 1   
    33   15   42 1   
    34   16   43 1   
    35   17   18 1   
    36   17   44 1   
    37   17   45 1   
    38   18   19 1   
    39   18   46 1   
    40   18   47 1   
    41   19   20 1   
    42   19   48 1   
    43   19   49 1   
    44   20   50 1   
    45   21   22 1   
    46   21   51 1   
    47   21   52 1   
    48   22   23 1   
    49   22   24 1   
    50   22   53 1   
    51   23   54 1   
    52   23   55 1   
    53   23   56 1   
    54   24   57 1   
    55   24   58 1   
    56   24   59 1   
    57   26   27 1   
    58   26   60 1   
    59   26   61 1   
    60   27   28 1   
    61   27   62 1   
    62   27   63 1   
    63   28   29 1   
    64   29   64 1   
    65   29   65 1   
    66   29   66 1   
@<TRIPOS>SUBSTRUCTURE
     1 S80         1 TEMP              0 ****  ****    0 ROOT
