@<TRIPOS>MOLECULE
S80
   68    68     1     0     0
SMALL
bcc


@<TRIPOS>ATOM
      1 C10        -0.3500    0.0700    0.1530 c         1 S80      0.694500
      2 O4         -1.2420    0.2130   -0.7190 o         1 S80     -0.689500
      3 N3          0.9870    0.1670   -0.1070 n         1 S80     -0.394800
      4 C9          1.9820    0.0070    0.9360 c3        1 S80      0.069000
      5 C8          2.0520   -1.3740    1.5830 c3        1 S80     -0.120400
      6 C7          0.9860   -1.5850    2.6310 c3        1 S80     -0.082400
      7 C6         -0.4210   -1.5670    2.0710 c3        1 S80     -0.098400
      8 C5         -0.8160   -0.1540    1.6210 c3        1 S80      0.042500
      9 N2         -2.3120    0.0410    1.7000 n4        1 S80     -0.664800
     10 C4         -2.7480    1.4660    1.8520 c         1 S80      0.569100
     11 C3         -4.1230    1.7800    1.2860 c3        1 S80     -0.136700
     12 C2         -4.6730    3.0280    1.9950 c3        1 S80     -0.116700
     13 C1         -6.0090    3.3940    1.3930 c         1 S80      0.546100
     14 O1         -6.9280    2.6870    1.0250 o         1 S80     -0.377100
     15 N1         -6.2840    4.9060    1.2760 n4        1 S80     -0.465300
     16 O2         -7.6000    5.2150    1.2800 oh        1 S80     -0.340300
     17 C11        -4.8600    2.8380    3.5030 c3        1 S80     -0.095400
     18 C12        -5.7730    1.7030    3.9210 c3        1 S80     -0.133400
     19 C13        -5.0340    0.4650    4.4140 c3        1 S80      0.127400
     20 O5         -4.6510   -0.3610    3.3200 oh        1 S80     -0.686800
     21 C14        -4.0000    1.9650   -0.2280 c3        1 S80     -0.110400
     22 C15        -4.9640    1.0820   -1.0140 c3        1 S80     -0.068700
     23 C17        -4.9830    1.5280   -2.4630 c3        1 S80     -0.106600
     24 C16        -4.5720   -0.3790   -0.9290 c3        1 S80     -0.106600
     25 O3         -1.9930    2.2560    2.4020 o         1 S80     -0.431100
     26 C18         1.4420    0.0700   -1.4870 c3        1 S80      0.071000
     27 C19         2.1250   -1.2510   -1.8610 c3        1 S80      0.102400
     28 O6          1.2120   -2.3110   -1.5970 os        1 S80     -0.447600
     29 C20         1.5900   -3.5280   -2.2280 c3        1 S80      0.112700
     30 H91         2.9870    0.2360    0.4750 h1        1 S80      0.072700
     31 H92         1.7900    0.7860    1.7300 h1        1 S80      0.072700
     32 H81         1.9850   -2.1740    0.7950 hc        1 S80      0.087200
     33 H82         3.0600   -1.4690    2.0730 hc        1 S80      0.087200
     34 H71         1.0860   -0.8140    3.4410 hc        1 S80      0.071200
     35 H72         1.1510   -2.5900    3.1110 hc        1 S80      0.071200
     36 H61        -0.4930   -2.2740    1.2000 hc        1 S80      0.079200
     37 H62        -1.1170   -1.9400    2.8720 hc        1 S80      0.079200
     38 H5         -0.3420    0.6190    2.3000 hx        1 S80      0.136700
     39 HN2        -2.6920   -0.4960    2.4980 hn        1 S80      0.489800
     40 H3         -4.8250    0.9190    1.5140 hc        1 S80      0.138700
     41 H2         -3.9270    3.8660    1.8420 hc        1 S80      0.112700
     42 HN1        -5.8870    5.4040    2.1010 hn        1 S80      0.489800
     43 HO2        -8.0880    4.5830    0.6950 ho        1 S80      0.490000
     44 H111       -5.2550    3.8030    3.9260 hc        1 S80      0.083700
     45 H112       -3.8350    2.6960    3.9480 hc        1 S80      0.083700
     46 H121       -6.4180    2.0650    4.7690 hc        1 S80      0.079200
     47 H122       -6.4600    1.4130    3.0820 hc        1 S80      0.079200
     48 H131       -4.0770    0.7380    4.9350 h1        1 S80      0.077200
     49 H132       -5.6850   -0.1060    5.1290 h1        1 S80      0.077200
     50 HO5        -5.3170   -1.0530    3.2230 ho        1 S80      0.444000
     51 H141       -4.1920    3.0410   -0.4850 hc        1 S80      0.076200
     52 H142       -2.9530    1.7380   -0.5790 hc        1 S80      0.076200
     53 H15        -6.0000    1.2030   -0.5850 hc        1 S80      0.047700
     54 H171       -5.2940    2.5970   -2.5440 hc        1 S80      0.054033
     55 H172       -5.7060    0.9050   -3.0440 hc        1 S80      0.054033
     56 H173       -3.9720    1.4150   -2.9230 hc        1 S80      0.054033
     57 H161       -4.6950   -0.7660    0.1120 hc        1 S80      0.054033
     58 H162       -5.2300   -0.9880   -1.5990 hc        1 S80      0.054033
     59 H163       -3.5130   -0.5240   -1.2610 hc        1 S80      0.054033
     60 H181        2.1840    0.9030   -1.6540 h1        1 S80      0.089700
     61 H182        0.5580    0.2250   -2.1710 h1        1 S80      0.089700
     62 H191        3.0600   -1.4170   -1.2610 h1        1 S80      0.054200
     63 H192        2.3860   -1.2140   -2.9530 h1        1 S80      0.054200
     64 H201        2.5910   -3.8630   -1.8630 h1        1 S80      0.048033
     65 H202        0.7950   -4.2540   -1.9250 h1        1 S80      0.048033
     66 H203        1.6050   -3.4050   -3.3390 h1        1 S80      0.048033
     67 H22        -2.7260   -0.3260    0.8180 hn        1 S80      0.489800
     68 H12        -5.8380    5.2810    0.4160 hn        1 S80      0.489800
@<TRIPOS>BOND
     1    1    2 2   
     2    1    3 1   
     3    1    8 1   
     4    3    4 1   
     5    3   26 1   
     6    4    5 1   
     7    4   30 1   
     8    4   31 1   
     9    5    6 1   
    10    5   32 1   
    11    5   33 1   
    12    6    7 1   
    13    6   34 1   
    14    6   35 1   
    15    7    8 1   
    16    7   36 1   
    17    7   37 1   
    18    8    9 1   
    19    8   38 1   
    20    9   10 1   
    21    9   39 1   
    22    9   67 1   
    23   10   11 1   
    24   10   25 2   
    25   11   12 1   
    26   11   21 1   
    27   11   40 1   
    28   12   13 1   
    29   12   17 1   
    30   12   41 1   
    31   13   14 2   
    32   13   15 1   
    33   15   16 1   
    34   15   42 1   
    35   15   68 1   
    36   16   43 1   
    37   17   18 1   
    38   17   44 1   
    39   17   45 1   
    40   18   19 1   
    41   18   46 1   
    42   18   47 1   
    43   19   20 1   
    44   19   48 1   
    45   19   49 1   
    46   20   50 1   
    47   21   22 1   
    48   21   51 1   
    49   21   52 1   
    50   22   23 1   
    51   22   24 1   
    52   22   53 1   
    53   23   54 1   
    54   23   55 1   
    55   23   56 1   
    56   24   57 1   
    57   24   58 1   
    58   24   59 1   
    59   26   27 1   
    60   26   60 1   
    61   26   61 1   
    62   27   28 1   
    63   27   62 1   
    64   27   63 1   
    65   28   29 1   
    66   29   64 1   
    67   29   65 1   
    68   29   66 1   
@<TRIPOS>SUBSTRUCTURE
     1 S80         1 TEMP              0 ****  ****    0 ROOT
