@<TRIPOS>MOLECULE
S82
   52    55     1     0     0
SMALL
bcc


@<TRIPOS>ATOM
      1 N1         -0.2470    0.9800    1.3780 n         1 S82     -0.423800
      2 C2         -1.1880    0.4110    0.4560 c         1 S82      0.736100
      3 N3         -1.9930   -0.6640    0.8760 n         1 S82     -0.511900
      4 C4         -3.1420   -1.0040    0.1080 cx        1 S82      0.053700
      5 C5         -4.5470   -1.0080    0.7130 cx        1 S82     -0.110400
      6 C6         -3.8670   -2.3070    0.3520 cx        1 S82     -0.128400
      7 C7         -5.6830   -0.4980   -0.0630 ca        1 S82     -0.047300
      8 C8         -6.6910    0.2250    0.5910 ca        1 S82     -0.125000
      9 C9         -7.7800    0.7210   -0.1230 ca        1 S82     -0.126500
     10 C10        -7.8770    0.5020   -1.4970 ca        1 S82     -0.131000
     11 C11        -6.8790   -0.2160   -2.1550 ca        1 S82     -0.126500
     12 C12        -5.7880   -0.7140   -1.4440 ca        1 S82     -0.125000
     13 O13        -1.3160    0.8860   -0.6960 o         1 S82     -0.619100
     14 C14         0.5500    2.0760    0.8450 c3        1 S82      0.067000
     15 C15         1.8610    1.6560    0.1810 c3        1 S82     -0.111400
     16 C16         2.6750    0.7790    1.1260 c3        1 S82     -0.090000
     17 C17         1.8410   -0.4000    1.6120 c3        1 S82     -0.111400
     18 C18         0.5310    0.0970    2.2280 c3        1 S82      0.067000
     19 C19         3.9070    0.2990    0.4470 cc        1 S82      0.500700
     20 N20         5.1970    0.5760    0.6150 nd        1 S82     -0.684000
     21 C21         5.8530   -0.2190   -0.3710 cd        1 S82      0.532300
     22 N22         4.9480   -0.9360   -1.0860 nc        1 S82     -0.369300
     23 O23         3.7570   -0.6440   -0.6150 os        1 S82     -0.140100
     24 C24         7.3400   -0.2280   -0.5560 c3        1 S82     -0.084000
     25 C25         7.8880   -1.6230   -0.3290 c3        1 S82     -0.093600
     26 C26         7.6970    0.2770   -1.9410 c3        1 S82     -0.093600
     27 HN3        -2.0650   -0.8380    1.8530 hn        1 S82      0.298500
     28 H4         -3.0430   -0.6510   -0.9470 h1        1 S82      0.131700
     29 H5         -4.6400   -0.7870    1.7980 hc        1 S82      0.080700
     30 H6         -4.2160   -2.8740   -0.5290 hc        1 S82      0.078700
     31 H6A        -3.5500   -2.9750    1.1730 hc        1 S82      0.078700
     32 H8         -6.6210    0.4040    1.6740 ha        1 S82      0.130500
     33 H9         -8.5640    1.2880    0.4000 ha        1 S82      0.131500
     34 H10        -8.7360    0.8940   -2.0590 ha        1 S82      0.131000
     35 H11        -6.9490   -0.3890   -3.2390 ha        1 S82      0.131500
     36 H12        -5.0050   -1.2760   -1.9730 ha        1 S82      0.130500
     37 H14        -0.0660    2.6540    0.0980 h1        1 S82      0.065700
     38 H14A        0.7770    2.7500    1.7200 h1        1 S82      0.065700
     39 H15         1.6470    1.0960   -0.7670 hc        1 S82      0.069700
     40 H15A        2.4420    2.5760   -0.0840 hc        1 S82      0.069700
     41 H16         2.9860    1.3970    2.0180 hc        1 S82      0.084700
     42 H17         1.6310   -1.0920    0.7540 hc        1 S82      0.069700
     43 H17A        2.4080   -0.9760    2.3880 hc        1 S82      0.069700
     44 H18         0.7750    0.6930    3.1570 h1        1 S82      0.065700
     45 H18A       -0.0690   -0.7960    2.5510 h1        1 S82      0.065700
     46 H24         7.7960    0.4660    0.2080 hc        1 S82      0.076700
     47 H25         9.0020   -1.6050   -0.4160 hc        1 S82      0.044533
     48 H25A        7.6150   -1.9900    0.6890 hc        1 S82      0.044533
     49 H25B        7.4850   -2.3370   -1.0870 hc        1 S82      0.044533
     50 H26         7.2860    1.3020   -2.1020 hc        1 S82      0.044533
     51 H26A        8.8080    0.3160   -2.0490 hc        1 S82      0.044533
     52 H26B        7.2870   -0.4000   -2.7290 hc        1 S82      0.044533
@<TRIPOS>BOND
     1    1    2 1   
     2    1   14 1   
     3    1   18 1   
     4    2    3 1   
     5    2   13 2   
     6    3    4 1   
     7    3   27 1   
     8    4    5 1   
     9    4    6 1   
    10    4   28 1   
    11    5    6 1   
    12    5    7 1   
    13    5   29 1   
    14    6   30 1   
    15    6   31 1   
    16    7    8 ar  
    17    7   12 ar  
    18    8    9 ar  
    19    8   32 1   
    20    9   10 ar  
    21    9   33 1   
    22   10   11 ar  
    23   10   34 1   
    24   11   12 ar  
    25   11   35 1   
    26   12   36 1   
    27   14   15 1   
    28   14   37 1   
    29   14   38 1   
    30   15   16 1   
    31   15   39 1   
    32   15   40 1   
    33   16   17 1   
    34   16   19 1   
    35   16   41 1   
    36   17   18 1   
    37   17   42 1   
    38   17   43 1   
    39   18   44 1   
    40   18   45 1   
    41   19   20 2   
    42   19   23 1   
    43   20   21 1   
    44   21   22 2   
    45   21   24 1   
    46   22   23 1   
    47   24   25 1   
    48   24   26 1   
    49   24   46 1   
    50   25   47 1   
    51   25   48 1   
    52   25   49 1   
    53   26   50 1   
    54   26   51 1   
    55   26   52 1   
@<TRIPOS>SUBSTRUCTURE
     1 S82         1 TEMP              0 ****  ****    0 ROOT
