@<TRIPOS>MOLECULE
S82
   53    56     1     0     0
SMALL
bcc


@<TRIPOS>ATOM
      1 N1          1.2000    0.9390   -1.4920 n         1 S82     -0.384800
      2 C2          0.6420   -0.0810   -2.2340 c         1 S82      0.627100
      3 N3         -0.8190    0.0060   -2.7040 n4        1 S82     -0.625800
      4 C4         -1.7650   -0.3400   -1.6350 cx        1 S82     -0.018500
      5 C5         -3.2490   -0.5490   -1.9510 cx        1 S82     -0.002400
      6 C6         -2.8050    0.6420   -1.1460 cx        1 S82     -0.108400
      7 C7         -3.9410   -1.6900   -1.3430 ca        1 S82     -0.116300
      8 C8         -4.8430   -2.4300   -2.1230 ca        1 S82     -0.109000
      9 C9         -5.5200   -3.5160   -1.5710 ca        1 S82     -0.117500
     10 C10        -5.3030   -3.8740   -0.2390 ca        1 S82     -0.094000
     11 C11        -4.4080   -3.1410    0.5410 ca        1 S82     -0.117500
     12 C12        -3.7300   -2.0540   -0.0070 ca        1 S82     -0.109000
     13 O13         1.2240   -1.0560   -2.7230 o         1 S82     -0.488100
     14 C14         2.4920    0.6390   -0.8600 c3        1 S82      0.062000
     15 C15         2.3700    0.2390    0.6060 c3        1 S82     -0.112900
     16 C16         1.5660    1.2650    1.3970 c3        1 S82     -0.085000
     17 C17         0.2340    1.5770    0.7230 c3        1 S82     -0.112900
     18 C18         0.4280    1.9240   -0.7520 c3        1 S82      0.062000
     19 C19         1.3220    0.7520    2.7690 cc        1 S82      0.473700
     20 N20         1.8130    1.0730    3.9590 nd        1 S82     -0.651000
     21 C21         1.1580    0.1750    4.8600 cd        1 S82      0.552300
     22 N22         0.3090   -0.6400    4.1830 nc        1 S82     -0.359300
     23 O23         0.3840   -0.3190    2.9100 os        1 S82     -0.166100
     24 C24         1.4120    0.1720    6.3380 c3        1 S82     -0.089000
     25 C25         0.1230    0.4350    7.0910 c3        1 S82     -0.096100
     26 C26         2.0270   -1.1500    6.7560 c3        1 S82     -0.096100
     27 HN3        -0.9150   -0.6910   -3.4610 hn        1 S82      0.461800
     28 H4         -1.2910   -1.0350   -0.9000 hx        1 S82      0.153700
     29 H5         -3.5880   -0.3450   -2.9920 hc        1 S82      0.101700
     30 H6         -3.0000    0.6750   -0.0550 hc        1 S82      0.108700
     31 H6A        -2.8850    1.6450   -1.6070 hc        1 S82      0.108700
     32 H8         -5.0250   -2.1520   -3.1720 ha        1 S82      0.130500
     33 H9         -6.2290   -4.0900   -2.1880 ha        1 S82      0.152500
     34 H10        -5.8400   -4.7320    0.1960 ha        1 S82      0.154000
     35 H11        -4.2380   -3.4200    1.5930 ha        1 S82      0.152500
     36 H12        -3.0320   -1.4810    0.6230 ha        1 S82      0.130500
     37 H14         3.0160   -0.1770   -1.4350 h1        1 S82      0.088450
     38 H14A        3.0990    1.5870   -0.9540 h1        1 S82      0.088450
     39 H15         3.4060    0.1600    1.0320 hc        1 S82      0.082200
     40 H15A        1.8910   -0.7710    0.6970 hc        1 S82      0.082200
     41 H16         2.1680    2.2180    1.4740 hc        1 S82      0.101700
     42 H17        -0.2480    2.4540    1.2310 hc        1 S82      0.082200
     43 H17A       -0.4600    0.7000    0.8260 hc        1 S82      0.082200
     44 H18        -0.5780    2.1000   -1.2220 h1        1 S82      0.088450
     45 H18A        1.0140    2.8890   -0.8330 h1        1 S82      0.088450
     46 H24         2.1420    1.0000    6.5720 hc        1 S82      0.084700
     47 H25        -0.3300    1.4030    6.7700 hc        1 S82      0.049533
     48 H25A       -0.6170   -0.3830    6.9160 hc        1 S82      0.049533
     49 H25B        0.3380    0.4880    8.1860 hc        1 S82      0.049533
     50 H26         2.2590   -1.1210    7.8480 hc        1 S82      0.049533
     51 H26A        2.9740   -1.3370    6.1960 hc        1 S82      0.049533
     52 H26B        1.3230   -1.9950    6.5660 hc        1 S82      0.049533
     53 H32        -1.0260    0.9340   -3.0830 hn        1 S82      0.461800
@<TRIPOS>BOND
     1    1    2 1   
     2    1   14 1   
     3    1   18 1   
     4    2    3 1   
     5    2   13 2   
     6    3    4 1   
     7    3   27 1   
     8    3   53 1   
     9    4    5 1   
    10    4    6 1   
    11    4   28 1   
    12    5    6 1   
    13    5    7 1   
    14    5   29 1   
    15    6   30 1   
    16    6   31 1   
    17    7    8 ar  
    18    7   12 ar  
    19    8    9 ar  
    20    8   32 1   
    21    9   10 ar  
    22    9   33 1   
    23   10   11 ar  
    24   10   34 1   
    25   11   12 ar  
    26   11   35 1   
    27   12   36 1   
    28   14   15 1   
    29   14   37 1   
    30   14   38 1   
    31   15   16 1   
    32   15   39 1   
    33   15   40 1   
    34   16   17 1   
    35   16   19 1   
    36   16   41 1   
    37   17   18 1   
    38   17   42 1   
    39   17   43 1   
    40   18   44 1   
    41   18   45 1   
    42   19   20 2   
    43   19   23 1   
    44   20   21 1   
    45   21   22 2   
    46   21   24 1   
    47   22   23 1   
    48   24   25 1   
    49   24   26 1   
    50   24   46 1   
    51   25   47 1   
    52   25   48 1   
    53   25   49 1   
    54   26   50 1   
    55   26   51 1   
    56   26   52 1   
@<TRIPOS>SUBSTRUCTURE
     1 S82         1 TEMP              0 ****  ****    0 ROOT
