@<TRIPOS>MOLECULE
S82
   53    56     1     0     0
SMALL
bcc


@<TRIPOS>ATOM
      1 N1          1.1380    0.9020   -1.4660 n         1 S82     -0.383800
      2 C2          0.5160   -0.1330   -2.1320 c         1 S82      0.628100
      3 N3         -0.9650   -0.0350   -2.5280 ny        1 S82     -0.625800
      4 C4         -1.8240   -0.6510   -1.5070 cx        1 S82     -0.014500
      5 C5         -3.3480   -0.5750   -1.6240 cx        1 S82     -0.005400
      6 C6         -2.6320    0.1720   -0.5320 cx        1 S82     -0.106400
      7 C7         -4.1340   -1.7850   -1.3620 ca        1 S82     -0.115300
      8 C8         -5.2160   -2.0870   -2.2010 ca        1 S82     -0.109000
      9 C9         -5.9850   -3.2270   -1.9720 ca        1 S82     -0.118000
     10 C10        -5.6820   -4.0740   -0.9050 ca        1 S82     -0.094000
     11 C11        -4.6070   -3.7770   -0.0660 ca        1 S82     -0.118000
     12 C12        -3.8360   -2.6390   -0.2910 ca        1 S82     -0.109000
     13 O13         1.0540   -1.1420   -2.6030 o         1 S82     -0.489100
     14 C14         2.4330    0.5800   -0.8500 c3        1 S82      0.062000
     15 C15         2.3310    0.2570    0.6370 c3        1 S82     -0.114400
     16 C16         1.5890    1.3530    1.3960 c3        1 S82     -0.084000
     17 C17         0.2580    1.6970    0.7350 c3        1 S82     -0.114400
     18 C18         0.4370    1.9620   -0.7590 c3        1 S82      0.062000
     19 C19         1.3490    0.9100    2.7930 cc        1 S82      0.473700
     20 N20         1.8520    1.2810    3.9630 nd        1 S82     -0.652000
     21 C21         1.1880    0.4370    4.9110 cd        1 S82      0.552300
     22 N22         0.3230   -0.3960    4.2790 nc        1 S82     -0.358300
     23 O23         0.3940   -0.1370    2.9910 os        1 S82     -0.167100
     24 C24         1.4730    0.5070    6.3810 c3        1 S82     -0.088000
     25 C25         0.3100   -0.0160    7.1980 c3        1 S82     -0.095600
     26 C26         2.7420   -0.2650    6.6880 c3        1 S82     -0.095600
     27 HN3        -1.2510    0.9290   -2.7110 hn        1 S82      0.460300
     28 H4         -1.3730   -1.6130   -1.1590 hx        1 S82      0.157700
     29 H5         -3.7720    0.0410   -2.4500 hc        1 S82      0.099700
     30 H6         -2.6070    1.2770   -0.5810 hc        1 S82      0.108700
     31 H6A        -2.6900   -0.1900    0.5150 hc        1 S82      0.108700
     32 H8         -5.4680   -1.4220   -3.0420 ha        1 S82      0.131000
     33 H9         -6.8350   -3.4560   -2.6340 ha        1 S82      0.152000
     34 H10        -6.2920   -4.9730   -0.7240 ha        1 S82      0.154000
     35 H11        -4.3690   -4.4420    0.7790 ha        1 S82      0.152000
     36 H12        -2.9970   -2.4130    0.3830 ha        1 S82      0.131000
     37 H14         3.0770    1.4940   -1.0050 h1        1 S82      0.087700
     38 H14A        2.9080   -0.2860   -1.3950 h1        1 S82      0.087700
     39 H15         3.3720    0.1550    1.0440 hc        1 S82      0.082700
     40 H15A        1.8120   -0.7270    0.7890 hc        1 S82      0.082700
     41 H16         2.2350    2.2790    1.4200 hc        1 S82      0.101700
     42 H17        -0.1670    2.6220    1.2080 hc        1 S82      0.082700
     43 H17A       -0.4760    0.8640    0.8970 hc        1 S82      0.082700
     44 H18         1.0730    2.8870   -0.8970 h1        1 S82      0.087700
     45 H18A       -0.5660    2.1780   -1.2170 h1        1 S82      0.087700
     46 H24         1.6380    1.5940    6.6430 hc        1 S82      0.082700
     47 H25         0.5260    0.1320    8.2850 hc        1 S82      0.049867
     48 H25A       -0.6290    0.5310    6.9450 hc        1 S82      0.049867
     49 H25B        0.1490   -1.1060    7.0170 hc        1 S82      0.049867
     50 H26         3.6030    0.1450    6.1060 hc        1 S82      0.049867
     51 H26A        2.6190   -1.3460    6.4360 hc        1 S82      0.049867
     52 H26B        2.9740   -0.1790    7.7770 hc        1 S82      0.049867
     53 H32        -1.0680   -0.5830   -3.3970 hn        1 S82      0.460300
@<TRIPOS>BOND
     1    1    2 1   
     2    1   14 1   
     3    1   18 1   
     4    2    3 1   
     5    2   13 2   
     6    3    4 1   
     7    3   27 1   
     8    3   53 1   
     9    4    5 1   
    10    4    6 1   
    11    4   28 1   
    12    5    6 1   
    13    5    7 1   
    14    5   29 1   
    15    6   30 1   
    16    6   31 1   
    17    7    8 ar  
    18    7   12 ar  
    19    8    9 ar  
    20    8   32 1   
    21    9   10 ar  
    22    9   33 1   
    23   10   11 ar  
    24   10   34 1   
    25   11   12 ar  
    26   11   35 1   
    27   12   36 1   
    28   14   15 1   
    29   14   37 1   
    30   14   38 1   
    31   15   16 1   
    32   15   39 1   
    33   15   40 1   
    34   16   17 1   
    35   16   19 1   
    36   16   41 1   
    37   17   18 1   
    38   17   42 1   
    39   17   43 1   
    40   18   44 1   
    41   18   45 1   
    42   19   20 2   
    43   19   23 1   
    44   20   21 1   
    45   21   22 2   
    46   21   24 1   
    47   22   23 1   
    48   24   25 1   
    49   24   26 1   
    50   24   46 1   
    51   25   47 1   
    52   25   48 1   
    53   25   49 1   
    54   26   50 1   
    55   26   51 1   
    56   26   52 1   
@<TRIPOS>SUBSTRUCTURE
     1 S82         1 TEMP              0 ****  ****    0 ROOT
