@<TRIPOS>MOLECULE
S84
   52    53     1     0     0
SMALL
bcc


@<TRIPOS>ATOM
      1 F20        -0.4860    0.5370    0.2900 f         1 S84     -0.231633
      2 C17         0.6300    0.0970   -0.3950 c3        1 S84      0.685200
      3 F18         1.3390   -0.6190    0.5310 f         1 S84     -0.231633
      4 F19         0.1370   -0.8350   -1.2700 f         1 S84     -0.231633
      5 C13         1.3910    1.2480   -1.0490 ca        1 S84     -0.130300
      6 C14         0.6270    2.2200   -1.7020 ca        1 S84     -0.236000
      7 C15         1.2460    3.3720   -2.2270 ca        1 S84      0.133600
      8 N22         0.4970    4.4760   -2.6920 nh        1 S84     -0.687000
      9 C21         1.1150    5.3060   -3.7040 c3        1 S84      0.180100
     10 C23        -0.9380    4.3700   -2.7250 c3        1 S84      0.179800
     11 C24        -1.6050    4.8150   -1.3990 c3        1 S84      0.086800
     12 N25        -1.0520    4.1470   -0.1850 ny        1 S84     -0.755000
     13 C26        -1.7030    4.6210    1.0560 c3        1 S84      0.078100
     14 C12         2.7730    1.3380   -0.9750 ca        1 S84     -0.098000
     15 C11         3.4140    2.4380   -1.5700 ca        1 S84     -0.019300
     16 C16         2.6620    3.4430   -2.1760 ca        1 S84     -0.143000
     17 C09         4.9000    2.5490   -1.5310 c3        1 S84     -0.051100
     18 C08         5.5100    2.2920   -2.9000 c3        1 S84     -0.120700
     19 C06         6.9990    2.5140   -2.8770 ca        1 S84      0.435600
     20 N01         7.4470    3.7780   -2.6960 nb        1 S84     -0.746000
     21 C02         8.8030    3.9720   -2.6690 ca        1 S84      0.644200
     22 N02         9.2990    5.2480   -2.3750 nv        1 S84     -0.929500
     23 C03         9.7260    2.8960   -2.8600 ca        1 S84     -0.294300
     24 C04         9.2330    1.6090   -3.0530 ca        1 S84      0.003700
     25 C07        10.1530    0.4630   -3.2390 c3        1 S84     -0.065800
     26 C05         7.8450    1.4070   -3.0600 ca        1 S84     -0.290300
     27 H14        -0.4420    2.0020   -1.8490 ha        1 S84      0.135000
     28 H12         3.3600    0.5590   -0.4610 ha        1 S84      0.174000
     29 H16         3.1980    4.3000   -2.6190 ha        1 S84      0.164000
     30 H211        1.9240    5.9160   -3.2190 h1        1 S84      0.059033
     31 H212        1.5670    4.6910   -4.5290 h1        1 S84      0.059033
     32 H213        0.3640    6.0110   -4.1490 h1        1 S84      0.059033
     33 H231       -1.2950    3.3330   -2.9860 h1        1 S84      0.085700
     34 H232       -1.3640    5.0640   -3.5100 h1        1 S84      0.085700
     35 H241       -1.4740    5.9260   -1.2630 hx        1 S84      0.106700
     36 H242       -2.7060    4.5800   -1.4600 hx        1 S84      0.106700
     37 H25        -0.0380    4.3290   -0.1360 hn        1 S84      0.465800
     38 H261       -1.5360    5.7250    1.1720 hx        1 S84      0.108367
     39 H262       -2.8060    4.4130    1.0070 hx        1 S84      0.108367
     40 H263       -1.2580    4.0790    1.9350 hx        1 S84      0.108367
     41 H091        5.1820    3.5790   -1.1800 hc        1 S84      0.075700
     42 H092        5.3230    1.8170   -0.7920 hc        1 S84      0.075700
     43 H081        5.0380    2.9730   -3.6580 hc        1 S84      0.057700
     44 H082        5.3000    1.2370   -3.2160 hc        1 S84      0.057700
     45 H05         7.4310    0.4020   -3.2120 ha        1 S84      0.143000
     46 H021       10.2060    5.4290   -2.7400 hn        1 S84      0.408800
     47 H022        8.6600    6.0060   -2.4620 hn        1 S84      0.408800
     48 H03        10.8080    3.0810   -2.8440 ha        1 S84      0.149000
     49 H071        9.7710   -0.2240   -4.0330 hc        1 S84      0.055033
     50 H072       11.1770    0.8070   -3.5280 hc        1 S84      0.055033
     51 H073       10.2330   -0.1160   -2.2840 hc        1 S84      0.055033
     52 H252       -1.1710    3.1260   -0.2690 hn        1 S84      0.465800
@<TRIPOS>BOND
     1    1    2 1   
     2    2    3 1   
     3    2    4 1   
     4    2    5 1   
     5    5    6 ar  
     6    5   14 ar  
     7    6    7 ar  
     8    6   27 1   
     9    7    8 1   
    10    7   16 ar  
    11    8    9 1   
    12    8   10 1   
    13    9   30 1   
    14    9   31 1   
    15    9   32 1   
    16   10   11 1   
    17   10   33 1   
    18   10   34 1   
    19   11   12 1   
    20   11   35 1   
    21   11   36 1   
    22   12   13 1   
    23   12   37 1   
    24   12   52 1   
    25   13   38 1   
    26   13   39 1   
    27   13   40 1   
    28   14   15 ar  
    29   14   28 1   
    30   15   16 ar  
    31   15   17 1   
    32   16   29 1   
    33   17   18 1   
    34   17   41 1   
    35   17   42 1   
    36   18   19 1   
    37   18   43 1   
    38   18   44 1   
    39   19   20 ar  
    40   19   26 ar  
    41   20   21 ar  
    42   21   22 1   
    43   21   23 ar  
    44   22   46 1   
    45   22   47 1   
    46   23   24 ar  
    47   23   48 1   
    48   24   25 1   
    49   24   26 ar  
    50   25   49 1   
    51   25   50 1   
    52   25   51 1   
    53   26   45 1   
@<TRIPOS>SUBSTRUCTURE
     1 S84         1 TEMP              0 ****  ****    0 ROOT
