@<TRIPOS>MOLECULE
S84
   52    53     1     0     0
SMALL
bcc


@<TRIPOS>ATOM
      1 F20        -0.4320    0.6480    0.5270 f         1 S84     -0.231633
      2 C17         0.7000    0.1810   -0.1130 c3        1 S84      0.685200
      3 F18         1.4200   -0.4360    0.8740 f         1 S84     -0.231633
      4 F19         0.2380   -0.8340   -0.9090 f         1 S84     -0.231633
      5 C13         1.4380    1.2920   -0.8590 ca        1 S84     -0.130300
      6 C14         0.6550    2.1900   -1.5890 ca        1 S84     -0.235000
      7 C15         1.2500    3.3070   -2.2070 ca        1 S84      0.133600
      8 N22         0.4790    4.3530   -2.7630 nh        1 S84     -0.687000
      9 C21         1.0890    5.1250   -3.8240 c3        1 S84      0.179100
     10 C23        -0.9520    4.2000   -2.8130 c3        1 S84      0.178800
     11 C24        -1.6600    4.7370   -1.5440 c3        1 S84      0.086800
     12 N25        -1.1050    4.2030   -0.2660 n4        1 S84     -0.755000
     13 C26        -1.7960    4.7610    0.9170 c3        1 S84      0.078100
     14 C12         2.8170    1.4150   -0.7930 ca        1 S84     -0.098000
     15 C11         3.4360    2.4760   -1.4760 ca        1 S84     -0.019300
     16 C16         2.6640    3.4130   -2.1610 ca        1 S84     -0.144000
     17 C09         4.9200    2.6180   -1.4510 c3        1 S84     -0.049100
     18 C08         5.5250    2.3130   -2.8110 c3        1 S84     -0.120700
     19 C06         7.0140    2.5300   -2.8280 ca        1 S84      0.437600
     20 N01         7.4830    3.7570   -2.5060 nb        1 S84     -0.748000
     21 C02         8.8370    3.9580   -2.5740 ca        1 S84      0.648200
     22 N02         9.3430    5.2440   -2.3560 nh        1 S84     -0.932500
     23 C03         9.7400    2.9080   -2.9340 ca        1 S84     -0.296300
     24 C04         9.2280    1.6540   -3.2490 ca        1 S84      0.004700
     25 C07        10.1260    0.5450   -3.6470 c3        1 S84     -0.065800
     26 C05         7.8400    1.4550   -3.1980 ca        1 S84     -0.291300
     27 H14        -0.4090    1.9380   -1.7170 ha        1 S84      0.134000
     28 H12         3.4190    0.6930   -0.2170 ha        1 S84      0.174000
     29 H16         3.1830    4.2420   -2.6720 ha        1 S84      0.163000
     30 H211        1.8800    5.7840   -3.3740 h1        1 S84      0.059700
     31 H212        0.3280    5.7810   -4.3220 h1        1 S84      0.059700
     32 H213        1.5620    4.4660   -4.6010 h1        1 S84      0.059700
     33 H231       -1.3820    4.8090   -3.6640 h1        1 S84      0.086200
     34 H232       -1.2730    3.1330   -2.9900 h1        1 S84      0.086200
     35 H241       -1.5700    5.8610   -1.5070 hx        1 S84      0.106700
     36 H242       -2.7500    4.4570   -1.6000 hx        1 S84      0.106700
     37 H25        -1.1850    3.1740   -0.2590 hn        1 S84      0.465800
     38 H261       -1.6720    5.8770    0.9350 hx        1 S84      0.108367
     39 H262       -1.3470    4.3170    1.8480 hx        1 S84      0.108367
     40 H263       -2.8890    4.5070    0.8710 hx        1 S84      0.108367
     41 H091        5.3630    1.9290   -0.6840 hc        1 S84      0.075700
     42 H092        5.1790    3.6690   -1.1460 hc        1 S84      0.075700
     43 H081        5.0520    2.9700   -3.5900 hc        1 S84      0.056700
     44 H082        5.3060    1.2480   -3.0890 hc        1 S84      0.056700
     45 H05         7.4110    0.4760   -3.4460 ha        1 S84      0.143000
     46 H021        8.7370    5.8970   -1.9140 hn        1 S84      0.410800
     47 H022       10.2860    5.2690   -2.0400 hn        1 S84      0.410800
     48 H03        10.8220    3.0930   -2.9720 ha        1 S84      0.149000
     49 H071       11.1720    0.7270   -3.3000 hc        1 S84      0.055367
     50 H072       10.1370    0.4500   -4.7620 hc        1 S84      0.055367
     51 H073        9.7710   -0.4240   -3.2160 hc        1 S84      0.055367
     52 H252       -0.0990    4.4270   -0.2180 hn        1 S84      0.465800
@<TRIPOS>BOND
     1    1    2 1   
     2    2    3 1   
     3    2    4 1   
     4    2    5 1   
     5    5    6 ar  
     6    5   14 ar  
     7    6    7 ar  
     8    6   27 1   
     9    7    8 1   
    10    7   16 ar  
    11    8    9 1   
    12    8   10 1   
    13    9   30 1   
    14    9   31 1   
    15    9   32 1   
    16   10   11 1   
    17   10   33 1   
    18   10   34 1   
    19   11   12 1   
    20   11   35 1   
    21   11   36 1   
    22   12   13 1   
    23   12   37 1   
    24   12   52 1   
    25   13   38 1   
    26   13   39 1   
    27   13   40 1   
    28   14   15 ar  
    29   14   28 1   
    30   15   16 ar  
    31   15   17 1   
    32   16   29 1   
    33   17   18 1   
    34   17   41 1   
    35   17   42 1   
    36   18   19 1   
    37   18   43 1   
    38   18   44 1   
    39   19   20 ar  
    40   19   26 ar  
    41   20   21 ar  
    42   21   22 1   
    43   21   23 ar  
    44   22   46 1   
    45   22   47 1   
    46   23   24 ar  
    47   23   48 1   
    48   24   25 1   
    49   24   26 ar  
    50   25   49 1   
    51   25   50 1   
    52   25   51 1   
    53   26   45 1   
@<TRIPOS>SUBSTRUCTURE
     1 S84         1 TEMP              0 ****  ****    0 ROOT
