@<TRIPOS>MOLECULE
S85
   49    50     1     0     0
SMALL
bcc


@<TRIPOS>ATOM
      1 F17        -0.4850    1.4590    0.4640 f         1 S85     -0.125900
      2 C13         0.8440    1.2060    0.4030 ca        1 S85      0.151900
      3 C14         1.5980    1.2180    1.5870 ca        1 S85     -0.193000
      4 C15         2.9790    0.9460    1.5300 ca        1 S85      0.104600
      5 N18         3.7400    1.0110    2.7390 nh        1 S85     -0.625000
      6 C19         5.1490    1.2900    2.6050 c3        1 S85      0.163100
      7 C20         3.3860    0.0420    3.7370 c3        1 S85      0.186800
      8 C21         3.7210   -1.4290    3.3600 c3        1 S85      0.035800
      9 N22         3.1470   -2.4030    4.3330 ny        1 S85     -0.748000
     10 C23         3.4660   -3.8040    3.9750 c3        1 S85      0.078100
     11 C12         1.4470    0.9340   -0.8380 ca        1 S85     -0.164000
     12 C11         2.8160    0.6760   -0.8890 ca        1 S85     -0.022300
     13 C16         3.5770    0.6740    0.2860 ca        1 S85     -0.186000
     14 C09         3.4790    0.3780   -2.1910 c3        1 S85     -0.045100
     15 C08         4.3590    1.5320   -2.6430 c3        1 S85     -0.121700
     16 C06         5.1320    1.1630   -3.8810 ca        1 S85      0.437600
     17 N01         6.1570    0.2890   -3.7510 nb        1 S85     -0.745000
     18 C02         6.8490   -0.0500   -4.8830 ca        1 S85      0.638200
     19 N02         7.8470   -1.0330   -4.8000 nv        1 S85     -0.926500
     20 C03         6.5360    0.5130   -6.1590 ca        1 S85     -0.294300
     21 C04         5.4820    1.4160   -6.2600 ca        1 S85      0.002700
     22 C07         5.1140    2.0130   -7.5640 c3        1 S85     -0.065800
     23 C05         4.7620    1.7500   -5.1030 ca        1 S85     -0.288300
     24 H14         1.1010    1.4740    2.5350 ha        1 S85      0.155000
     25 H12         0.8360    0.9370   -1.7530 ha        1 S85      0.167000
     26 H16         4.6590    0.4770    0.2080 ha        1 S85      0.147000
     27 H191        5.5430    1.6160    3.6040 h1        1 S85      0.052700
     28 H192        5.7440    0.4040    2.2520 h1        1 S85      0.052700
     29 H193        5.2830    2.1310    1.8730 h1        1 S85      0.052700
     30 H201        3.9320    0.3020    4.6880 h1        1 S85      0.072200
     31 H202        2.2760    0.1250    3.9210 h1        1 S85      0.072200
     32 H211        3.3020   -1.6670    2.3400 hx        1 S85      0.112200
     33 H212        4.8370   -1.5760    3.3340 hx        1 S85      0.112200
     34 H22         3.5150   -2.1960    5.2690 hn        1 S85      0.453300
     35 H231        3.0080   -4.4940    4.7350 hx        1 S85      0.111033
     36 H232        3.0480   -4.0360    2.9570 hx        1 S85      0.111033
     37 H233        4.5800   -3.9450    3.9600 hx        1 S85      0.111033
     38 H091        2.7070    0.1680   -2.9790 hc        1 S85      0.067700
     39 H092        4.1040   -0.5500   -2.0800 hc        1 S85      0.067700
     40 H081        5.0670    1.8130   -1.8180 hc        1 S85      0.058700
     41 H082        3.7230    2.4300   -2.8610 hc        1 S85      0.058700
     42 H05         3.9280    2.4610   -5.1540 ha        1 S85      0.144000
     43 H021        8.1950   -1.2300   -3.8890 hn        1 S85      0.404300
     44 H022        8.5530   -0.9490   -5.4960 hn        1 S85      0.404300
     45 H03         7.1140    0.2300   -7.0500 ha        1 S85      0.148000
     46 H071        4.8800    3.1000   -7.4480 hc        1 S85      0.054367
     47 H072        5.9410    1.9050   -8.3080 hc        1 S85      0.054367
     48 H073        4.2050    1.5010   -7.9710 hc        1 S85      0.054367
     49 H222        2.1270   -2.2800    4.3620 hn        1 S85      0.453300
@<TRIPOS>BOND
     1    1    2 1   
     2    2    3 ar  
     3    2   11 ar  
     4    3    4 ar  
     5    3   24 1   
     6    4    5 1   
     7    4   13 ar  
     8    5    6 1   
     9    5    7 1   
    10    6   27 1   
    11    6   28 1   
    12    6   29 1   
    13    7    8 1   
    14    7   30 1   
    15    7   31 1   
    16    8    9 1   
    17    8   32 1   
    18    8   33 1   
    19    9   10 1   
    20    9   34 1   
    21    9   49 1   
    22   10   35 1   
    23   10   36 1   
    24   10   37 1   
    25   11   12 ar  
    26   11   25 1   
    27   12   13 ar  
    28   12   14 1   
    29   13   26 1   
    30   14   15 1   
    31   14   38 1   
    32   14   39 1   
    33   15   16 1   
    34   15   40 1   
    35   15   41 1   
    36   16   17 ar  
    37   16   23 ar  
    38   17   18 ar  
    39   18   19 1   
    40   18   20 ar  
    41   19   43 1   
    42   19   44 1   
    43   20   21 ar  
    44   20   45 1   
    45   21   22 1   
    46   21   23 ar  
    47   22   46 1   
    48   22   47 1   
    49   22   48 1   
    50   23   42 1   
@<TRIPOS>SUBSTRUCTURE
     1 S85         1 TEMP              0 ****  ****    0 ROOT
