@<TRIPOS>MOLECULE
S85
   49    50     1     0     0
SMALL
bcc


@<TRIPOS>ATOM
      1 F17        -0.4740    1.4910    0.4720 f         1 S85     -0.125900
      2 C13         0.8530    1.2280    0.4100 ca        1 S85      0.151900
      3 C14         1.6070    1.2300    1.5940 ca        1 S85     -0.193000
      4 C15         2.9870    0.9490    1.5350 ca        1 S85      0.104600
      5 N18         3.7480    1.0030    2.7440 nh        1 S85     -0.625000
      6 C19         5.1590    1.2720    2.6110 c3        1 S85      0.163100
      7 C20         3.3880    0.0330    3.7380 c3        1 S85      0.186800
      8 C21         3.7120   -1.4390    3.3550 c3        1 S85      0.035800
      9 N22         3.1310   -2.4130    4.3250 n4        1 S85     -0.748000
     10 C23         3.4390   -3.8150    3.9610 c3        1 S85      0.078100
     11 C12         1.4540    0.9570   -0.8320 ca        1 S85     -0.164000
     12 C11         2.8210    0.6890   -0.8850 ca        1 S85     -0.022300
     13 C16         3.5820    0.6770    0.2900 ca        1 S85     -0.186000
     14 C09         3.4810    0.3910   -2.1880 c3        1 S85     -0.045100
     15 C08         4.3680    1.5410   -2.6370 c3        1 S85     -0.121700
     16 C06         5.1390    1.1700   -3.8760 ca        1 S85      0.437600
     17 N01         6.1580    0.2900   -3.7490 nb        1 S85     -0.745000
     18 C02         6.8480   -0.0500   -4.8820 ca        1 S85      0.638200
     19 N02         7.8400   -1.0390   -4.8020 nh        1 S85     -0.926500
     20 C03         6.5380    0.5190   -6.1570 ca        1 S85     -0.294300
     21 C04         5.4900    1.4290   -6.2540 ca        1 S85      0.002700
     22 C07         5.1260    2.0320   -7.5570 c3        1 S85     -0.065800
     23 C05         4.7730    1.7630   -5.0960 ca        1 S85     -0.288300
     24 H14         1.1130    1.4870    2.5430 ha        1 S85      0.155000
     25 H12         0.8420    0.9680   -1.7470 ha        1 S85      0.167000
     26 H16         4.6620    0.4720    0.2100 ha        1 S85      0.147000
     27 H191        5.5560    1.5920    3.6110 h1        1 S85      0.052700
     28 H192        5.2990    2.1150    1.8820 h1        1 S85      0.052700
     29 H193        5.7480    0.3830    2.2540 h1        1 S85      0.052700
     30 H201        2.2780    0.1230    3.9240 h1        1 S85      0.072200
     31 H202        3.9360    0.2850    4.6900 h1        1 S85      0.072200
     32 H211        3.2900   -1.6700    2.3340 hx        1 S85      0.112200
     33 H212        4.8270   -1.5940    3.3290 hx        1 S85      0.112200
     34 H22         3.5020   -2.2120    5.2620 hn        1 S85      0.453300
     35 H231        2.9770   -4.5040    4.7190 hx        1 S85      0.111033
     36 H232        3.0190   -4.0390    2.9430 hx        1 S85      0.111033
     37 H233        4.5520   -3.9640    3.9450 hx        1 S85      0.111033
     38 H091        4.0990   -0.5410   -2.0810 hc        1 S85      0.067700
     39 H092        2.7070    0.1890   -2.9760 hc        1 S85      0.067700
     40 H081        5.0790    1.8140   -1.8110 hc        1 S85      0.059200
     41 H082        3.7380    2.4440   -2.8520 hc        1 S85      0.059200
     42 H05         3.9430    2.4800   -5.1440 ha        1 S85      0.144000
     43 H021        8.5470   -0.9570   -5.4980 hn        1 S85      0.404300
     44 H022        8.1870   -1.2410   -3.8920 hn        1 S85      0.404300
     45 H03         7.1140    0.2360   -7.0480 ha        1 S85      0.148000
     46 H071        5.9560    1.9290   -8.2980 hc        1 S85      0.054367
     47 H072        4.8890    3.1180   -7.4360 hc        1 S85      0.054367
     48 H073        4.2200    1.5200   -7.9700 hc        1 S85      0.054367
     49 H222        2.1120   -2.2830    4.3550 hn        1 S85      0.453300
@<TRIPOS>BOND
     1    1    2 1   
     2    2    3 ar  
     3    2   11 ar  
     4    3    4 ar  
     5    3   24 1   
     6    4    5 1   
     7    4   13 ar  
     8    5    6 1   
     9    5    7 1   
    10    6   27 1   
    11    6   28 1   
    12    6   29 1   
    13    7    8 1   
    14    7   30 1   
    15    7   31 1   
    16    8    9 1   
    17    8   32 1   
    18    8   33 1   
    19    9   10 1   
    20    9   34 1   
    21    9   49 1   
    22   10   35 1   
    23   10   36 1   
    24   10   37 1   
    25   11   12 ar  
    26   11   25 1   
    27   12   13 ar  
    28   12   14 1   
    29   13   26 1   
    30   14   15 1   
    31   14   38 1   
    32   14   39 1   
    33   15   16 1   
    34   15   40 1   
    35   15   41 1   
    36   16   17 ar  
    37   16   23 ar  
    38   17   18 ar  
    39   18   19 1   
    40   18   20 ar  
    41   19   43 1   
    42   19   44 1   
    43   20   21 ar  
    44   20   45 1   
    45   21   22 1   
    46   21   23 ar  
    47   22   46 1   
    48   22   47 1   
    49   22   48 1   
    50   23   42 1   
@<TRIPOS>SUBSTRUCTURE
     1 S85         1 TEMP              0 ****  ****    0 ROOT
