@<TRIPOS>MOLECULE
S88
   57    60     1     0     0
SMALL
bcc


@<TRIPOS>ATOM
      1 F29         2.0610   -1.9760   -4.4140 f         1 S88     -0.111900
      2 C27         2.3580   -1.3740   -3.2420 ca        1 S88      0.148900
      3 C26         1.5260   -1.5640   -2.1180 ca        1 S88     -0.118000
      4 C25         1.8450   -0.9390   -0.9180 ca        1 S88     -0.092000
      5 C24         2.9750   -0.1230   -0.8180 ca        1 S88     -0.110000
      6 C28         3.5010   -0.5600   -3.1480 ca        1 S88     -0.161000
      7 C23         3.7990    0.0610   -1.9310 ca        1 S88     -0.158300
      8 C22         5.0320    0.8910   -1.8190 c3        1 S88      0.170100
      9 N21         4.8330    2.2360   -2.4520 n4        1 S88     -0.683800
     10 C19         6.0530    3.1330   -2.3740 c         1 S88      0.546100
     11 O20         6.8920    2.8390   -1.5400 o         1 S88     -0.404100
     12 C16         6.0820    4.2880   -3.3450 c3        1 S88     -0.141700
     13 C15         4.8410    5.1600   -3.2420 c3        1 S88     -0.085400
     14 C14         4.9270    6.3100   -4.2530 c3        1 S88      0.164800
     15 N13         5.1320    5.8370   -5.6130 n3        1 S88     -0.736600
     16 C18         6.3210    5.0000   -5.7210 c3        1 S88      0.164800
     17 C17         6.2810    3.7990   -4.7740 c3        1 S88     -0.085400
     18 C11         5.1440    6.9260   -6.6120 c3        1 S88      0.231800
     19 C12         3.9440    7.8710   -6.4910 c3        1 S88     -0.097100
     20 C10         5.1620    6.3650   -8.0190 ca        1 S88     -0.096300
     21 C2          6.2170    6.6580   -8.9370 ca        1 S88     -0.022000
     22 C1          7.3480    7.4620   -8.6180 ca        1 S88     -0.139000
     23 C6          8.3290    7.7140   -9.5460 ca        1 S88     -0.112000
     24 C5          8.2410    7.1770  -10.8510 ca        1 S88     -0.124000
     25 C4          7.1660    6.3970  -11.1950 ca        1 S88     -0.110000
     26 C3          6.1360    6.1210  -10.2530 ca        1 S88     -0.043000
     27 C7          5.0270    5.3150  -10.6260 ca        1 S88     -0.100000
     28 C8          4.0290    5.0480   -9.7240 ca        1 S88     -0.140000
     29 C9          4.1000    5.5780   -8.4170 ca        1 S88     -0.104000
     30 H1          0.6370   -2.2100   -2.2040 ha        1 S88      0.177000
     31 H2          1.2030   -1.0920   -0.0350 ha        1 S88      0.167000
     32 H3          3.2190    0.3530    0.1440 ha        1 S88      0.149000
     33 H4          4.1560   -0.4460   -4.0240 ha        1 S88      0.151000
     34 H5          5.9010    0.3960   -2.3420 hx        1 S88      0.117700
     35 H6          5.3200    1.0570   -0.7400 hx        1 S88      0.117700
     36 H7          4.0520    2.7160   -1.9880 hn        1 S88      0.460800
     37 H8          6.9840    4.9090   -3.0510 hc        1 S88      0.129700
     38 H9          4.7560    5.5990   -2.2140 hc        1 S88      0.056200
     39 H10         3.9140    4.5660   -3.4520 hc        1 S88      0.056200
     40 H11         3.9460    6.8650   -4.2160 h1        1 S88      0.060700
     41 H12         5.7410    7.0190   -3.9200 h1        1 S88      0.060700
     42 H14         7.2680    5.5820   -5.5150 h1        1 S88      0.060700
     43 H15         6.3780    4.6140   -6.7800 h1        1 S88      0.060700
     44 H16         5.4490    3.1150   -5.0820 hc        1 S88      0.056200
     45 H17         7.2490    3.2420   -4.8640 hc        1 S88      0.056200
     46 H18         6.0690    7.5580   -6.4380 h1        1 S88      0.037700
     47 H19         4.0300    8.5070   -5.5780 hc        1 S88      0.050367
     48 H20         2.9810    7.3080   -6.4580 hc        1 S88      0.050367
     49 H21         3.9310    8.5420   -7.3850 hc        1 S88      0.050367
     50 H22         7.4470    7.9030   -7.6160 ha        1 S88      0.126000
     51 H23         9.1950    8.3420   -9.2850 ha        1 S88      0.139000
     52 H24         9.0380    7.3950  -11.5780 ha        1 S88      0.144000
     53 H25         7.0780    5.9730  -12.2070 ha        1 S88      0.141000
     54 H26         4.9860    4.9150  -11.6510 ha        1 S88      0.142000
     55 H27         3.1630    4.4310  -10.0060 ha        1 S88      0.139000
     56 H28         3.2820    5.3570   -7.7130 ha        1 S88      0.135000
     57 H212        4.5750    2.1110   -3.4400 hn        1 S88      0.460800
@<TRIPOS>BOND
     1    1    2 1   
     2    2    3 ar  
     3    2    6 ar  
     4    3    4 ar  
     5    3   30 1   
     6    4    5 ar  
     7    4   31 1   
     8    5    7 ar  
     9    5   32 1   
    10    6    7 ar  
    11    6   33 1   
    12    7    8 1   
    13    8    9 1   
    14    8   34 1   
    15    8   35 1   
    16    9   10 1   
    17    9   36 1   
    18    9   57 1   
    19   10   11 2   
    20   10   12 1   
    21   12   13 1   
    22   12   17 1   
    23   12   37 1   
    24   13   14 1   
    25   13   38 1   
    26   13   39 1   
    27   14   15 1   
    28   14   40 1   
    29   14   41 1   
    30   15   16 1   
    31   15   18 1   
    32   16   17 1   
    33   16   42 1   
    34   16   43 1   
    35   17   44 1   
    36   17   45 1   
    37   18   19 1   
    38   18   20 1   
    39   18   46 1   
    40   19   47 1   
    41   19   48 1   
    42   19   49 1   
    43   20   21 ar  
    44   20   29 ar  
    45   21   22 ar  
    46   21   26 ar  
    47   22   23 ar  
    48   22   50 1   
    49   23   24 ar  
    50   23   51 1   
    51   24   25 ar  
    52   24   52 1   
    53   25   26 ar  
    54   25   53 1   
    55   26   27 ar  
    56   27   28 ar  
    57   27   54 1   
    58   28   29 ar  
    59   28   55 1   
    60   29   56 1   
@<TRIPOS>SUBSTRUCTURE
     1 S88         1 TEMP              0 ****  ****    0 ROOT
