@<TRIPOS>MOLECULE
S88
   57    60     1     0     0
SMALL
bcc


@<TRIPOS>ATOM
      1 F29         1.8990   -1.8890   -4.3850 f         1 S88     -0.111900
      2 C27         2.2630   -1.3190   -3.2160 ca        1 S88      0.148900
      3 C26         1.4730   -1.5040   -2.0620 ca        1 S88     -0.118000
      4 C25         1.8610   -0.9110   -0.8650 ca        1 S88     -0.092000
      5 C24         3.0190   -0.1330   -0.7990 ca        1 S88     -0.110000
      6 C28         3.4340   -0.5420   -3.1560 ca        1 S88     -0.161000
      7 C23         3.8010    0.0470   -1.9420 ca        1 S88     -0.158300
      8 C22         5.0640    0.8360   -1.8680 c3        1 S88      0.170100
      9 N21         4.8820    2.1970   -2.4710 n4        1 S88     -0.683800
     10 C19         6.1310    3.0550   -2.4260 c         1 S88      0.546100
     11 O20         6.9910    2.7240   -1.6280 o         1 S88     -0.404100
     12 C16         6.1610    4.2220   -3.3820 c3        1 S88     -0.141700
     13 C15         4.9520    5.1310   -3.2220 c3        1 S88     -0.085400
     14 C14         5.0370    6.2920   -4.2200 c3        1 S88      0.164800
     15 N13         5.1780    5.8320   -5.5930 n3        1 S88     -0.736600
     16 C18         6.3360    4.9620   -5.7550 c3        1 S88      0.164800
     17 C17         6.2930    3.7480   -4.8230 c3        1 S88     -0.085400
     18 C11         5.1870    6.9350   -6.5770 c3        1 S88      0.231800
     19 C12         4.0210    7.9130   -6.4000 c3        1 S88     -0.097100
     20 C10         5.1380    6.3940   -7.9910 ca        1 S88     -0.096300
     21 C2          6.1680    6.6700   -8.9430 ca        1 S88     -0.022000
     22 C1          7.3330    7.4360   -8.6540 ca        1 S88     -0.139000
     23 C6          8.2870    7.6730   -9.6130 ca        1 S88     -0.112000
     24 C5          8.1370    7.1570  -10.9210 ca        1 S88     -0.124000
     25 C4          7.0290    6.4140  -11.2360 ca        1 S88     -0.110000
     26 C3          6.0250    6.1550  -10.2610 ca        1 S88     -0.043000
     27 C7          4.8800    5.3860  -10.6050 ca        1 S88     -0.100000
     28 C8          3.9060    5.1360   -9.6720 ca        1 S88     -0.140000
     29 C9          4.0400    5.6440   -8.3610 ca        1 S88     -0.104000
     30 H1          0.5610   -2.1210   -2.1210 ha        1 S88      0.177000
     31 H2          1.2500   -1.0610    0.0410 ha        1 S88      0.167000
     32 H3          3.3170    0.3180    0.1600 ha        1 S88      0.149000
     33 H4          4.0550   -0.4320   -4.0570 ha        1 S88      0.151000
     34 H5          5.8940    0.3230   -2.4340 hx        1 S88      0.117200
     35 H6          5.4000    0.9750   -0.7980 hx        1 S88      0.117200
     36 H7          4.5820    2.0980   -3.4490 hn        1 S88      0.460800
     37 H8          7.0910    4.8110   -3.1120 hc        1 S88      0.129700
     38 H9          4.0000    4.5680   -3.4050 hc        1 S88      0.056200
     39 H10         4.9180    5.5560   -2.1860 hc        1 S88      0.056200
     40 H11         5.8830    6.9710   -3.9070 h1        1 S88      0.060700
     41 H12         4.0760    6.8750   -4.1400 h1        1 S88      0.060700
     42 H14         6.3410    4.5890   -6.8200 h1        1 S88      0.060700
     43 H15         7.3070    5.5120   -5.5770 h1        1 S88      0.060700
     44 H16         5.4300    3.0940   -5.1100 hc        1 S88      0.056200
     45 H17         7.2390    3.1640   -4.9560 hc        1 S88      0.056200
     46 H18         6.1360    7.5370   -6.4280 h1        1 S88      0.037700
     47 H19         3.0440    7.3790   -6.3400 hc        1 S88      0.050367
     48 H20         3.9970    8.5970   -7.2840 hc        1 S88      0.050367
     49 H21         4.1580    8.5330   -5.4820 hc        1 S88      0.050367
     50 H22         7.4810    7.8590   -7.6500 ha        1 S88      0.126000
     51 H23         9.1800    8.2720   -9.3750 ha        1 S88      0.139000
     52 H24         8.9140    7.3630  -11.6730 ha        1 S88      0.144000
     53 H25         6.8920    6.0070  -12.2500 ha        1 S88      0.141000
     54 H26         4.7900    5.0030  -11.6340 ha        1 S88      0.142000
     55 H27         3.0130    4.5480   -9.9310 ha        1 S88      0.139000
     56 H28         3.2420    5.4370   -7.6310 ha        1 S88      0.135000
     57 H212        4.1350    2.6920   -1.9680 hn        1 S88      0.460800
@<TRIPOS>BOND
     1    1    2 1   
     2    2    3 ar  
     3    2    6 ar  
     4    3    4 ar  
     5    3   30 1   
     6    4    5 ar  
     7    4   31 1   
     8    5    7 ar  
     9    5   32 1   
    10    6    7 ar  
    11    6   33 1   
    12    7    8 1   
    13    8    9 1   
    14    8   34 1   
    15    8   35 1   
    16    9   10 1   
    17    9   36 1   
    18    9   57 1   
    19   10   11 2   
    20   10   12 1   
    21   12   13 1   
    22   12   17 1   
    23   12   37 1   
    24   13   14 1   
    25   13   38 1   
    26   13   39 1   
    27   14   15 1   
    28   14   40 1   
    29   14   41 1   
    30   15   16 1   
    31   15   18 1   
    32   16   17 1   
    33   16   42 1   
    34   16   43 1   
    35   17   44 1   
    36   17   45 1   
    37   18   19 1   
    38   18   20 1   
    39   18   46 1   
    40   19   47 1   
    41   19   48 1   
    42   19   49 1   
    43   20   21 ar  
    44   20   29 ar  
    45   21   22 ar  
    46   21   26 ar  
    47   22   23 ar  
    48   22   50 1   
    49   23   24 ar  
    50   23   51 1   
    51   24   25 ar  
    52   24   52 1   
    53   25   26 ar  
    54   25   53 1   
    55   26   27 ar  
    56   27   28 ar  
    57   27   54 1   
    58   28   29 ar  
    59   28   55 1   
    60   29   56 1   
@<TRIPOS>SUBSTRUCTURE
     1 S88         1 TEMP              0 ****  ****    0 ROOT
