@<TRIPOS>MOLECULE
S88
   57    60     1     0     0
SMALL
bcc


@<TRIPOS>ATOM
      1 F29         2.1310   -1.9990   -4.3650 f         1 S88     -0.111900
      2 C27         2.4000   -1.3720   -3.1990 ca        1 S88      0.148900
      3 C26         1.5540   -1.5550   -2.0850 ca        1 S88     -0.118000
      4 C25         1.8440   -0.9030   -0.8920 ca        1 S88     -0.092000
      5 C24         2.9590   -0.0680   -0.7890 ca        1 S88     -0.110000
      6 C28         3.5280   -0.5390   -3.1020 ca        1 S88     -0.161000
      7 C23         3.7970    0.1100   -1.8930 ca        1 S88     -0.158300
      8 C22         5.0160    0.9610   -1.7760 c3        1 S88      0.170100
      9 N21         4.8060    2.2900   -2.4380 ny        1 S88     -0.683800
     10 C19         6.0100    3.2080   -2.3560 c         1 S88      0.546100
     11 O20         6.8390    2.9430   -1.5010 o         1 S88     -0.404100
     12 C16         6.0390    4.3440   -3.3470 c3        1 S88     -0.142700
     13 C15         4.7820    5.1980   -3.2840 c3        1 S88     -0.085400
     14 C14         4.8690    6.3300   -4.3150 c3        1 S88      0.164800
     15 N13         5.1070    5.8350   -5.6620 n3        1 S88     -0.736600
     16 C18         6.3110    5.0160   -5.7320 c3        1 S88      0.164800
     17 C17         6.2720    3.8320   -4.7630 c3        1 S88     -0.085400
     18 C11         5.1200    6.9050   -6.6810 c3        1 S88      0.231800
     19 C12         3.9020    7.8320   -6.6000 c3        1 S88     -0.097100
     20 C10         5.1740    6.3190   -8.0760 ca        1 S88     -0.096300
     21 C2          6.2410    6.6140   -8.9800 ca        1 S88     -0.022000
     22 C1          7.3510    7.4440   -8.6550 ca        1 S88     -0.138000
     23 C6          8.3450    7.6960   -9.5690 ca        1 S88     -0.112000
     24 C5          8.2920    7.1330  -10.8650 ca        1 S88     -0.124000
     25 C4          7.2380    6.3270  -11.2140 ca        1 S88     -0.110000
     26 C3          6.1950    6.0510  -10.2860 ca        1 S88     -0.043000
     27 C7          5.1070    5.2180  -10.6650 ca        1 S88     -0.100000
     28 C8          4.0960    4.9510   -9.7770 ca        1 S88     -0.140000
     29 C9          4.1330    5.5060   -8.4790 ca        1 S88     -0.104000
     30 H1          0.6760   -2.2170   -2.1730 ha        1 S88      0.177000
     31 H2          1.1900   -1.0510   -0.0160 ha        1 S88      0.167000
     32 H3          3.1800    0.4290    0.1680 ha        1 S88      0.149000
     33 H4          4.1950   -0.4300   -3.9700 ha        1 S88      0.151000
     34 H5          5.9000    0.4690   -2.2770 hx        1 S88      0.117700
     35 H6          5.2830    1.1510   -0.6960 hx        1 S88      0.117700
     36 H7          4.5680    2.1430   -3.4270 hn        1 S88      0.460800
     37 H8          6.9250    4.9850   -3.0490 hc        1 S88      0.129700
     38 H9          4.6720    5.6540   -2.2660 hc        1 S88      0.056200
     39 H10         3.8690    4.5850   -3.4990 hc        1 S88      0.056200
     40 H11         5.6650    7.0590   -3.9800 h1        1 S88      0.060700
     41 H12         3.8790    6.8700   -4.3060 h1        1 S88      0.060700
     42 H14         7.2440    5.6170   -5.5200 h1        1 S88      0.060700
     43 H15         6.3920    4.6110   -6.7820 h1        1 S88      0.060700
     44 H16         5.4570    3.1290   -5.0730 hc        1 S88      0.056200
     45 H17         7.2500    3.2890   -4.8240 hc        1 S88      0.056200
     46 H18         6.0300    7.5560   -6.5010 h1        1 S88      0.037700
     47 H19         3.9590    8.4860   -5.6980 hc        1 S88      0.050367
     48 H20         2.9480    7.2540   -6.5740 hc        1 S88      0.050367
     49 H21         3.8950    8.4860   -7.5070 hc        1 S88      0.050367
     50 H22         7.4230    7.9050   -7.6600 ha        1 S88      0.126000
     51 H23         9.1940    8.3450   -9.3040 ha        1 S88      0.139000
     52 H24         9.0980    7.3510  -11.5810 ha        1 S88      0.144000
     53 H25         7.1770    5.8830  -12.2200 ha        1 S88      0.141000
     54 H26         5.0930    4.7990  -11.6830 ha        1 S88      0.142000
     55 H27         3.2470    4.3130  -10.0630 ha        1 S88      0.139000
     56 H28         3.3070    5.2840   -7.7860 ha        1 S88      0.135000
     57 H212        4.0100    2.7650   -1.9960 hn        1 S88      0.460800
@<TRIPOS>BOND
     1    1    2 1   
     2    2    3 ar  
     3    2    6 ar  
     4    3    4 ar  
     5    3   30 1   
     6    4    5 ar  
     7    4   31 1   
     8    5    7 ar  
     9    5   32 1   
    10    6    7 ar  
    11    6   33 1   
    12    7    8 1   
    13    8    9 1   
    14    8   34 1   
    15    8   35 1   
    16    9   10 1   
    17    9   36 1   
    18    9   57 1   
    19   10   11 2   
    20   10   12 1   
    21   12   13 1   
    22   12   17 1   
    23   12   37 1   
    24   13   14 1   
    25   13   38 1   
    26   13   39 1   
    27   14   15 1   
    28   14   40 1   
    29   14   41 1   
    30   15   16 1   
    31   15   18 1   
    32   16   17 1   
    33   16   42 1   
    34   16   43 1   
    35   17   44 1   
    36   17   45 1   
    37   18   19 1   
    38   18   20 1   
    39   18   46 1   
    40   19   47 1   
    41   19   48 1   
    42   19   49 1   
    43   20   21 ar  
    44   20   29 ar  
    45   21   22 ar  
    46   21   26 ar  
    47   22   23 ar  
    48   22   50 1   
    49   23   24 ar  
    50   23   51 1   
    51   24   25 ar  
    52   24   52 1   
    53   25   26 ar  
    54   25   53 1   
    55   26   27 ar  
    56   27   28 ar  
    57   27   54 1   
    58   28   29 ar  
    59   28   55 1   
    60   29   56 1   
@<TRIPOS>SUBSTRUCTURE
     1 S88         1 TEMP              0 ****  ****    0 ROOT
