@<TRIPOS>MOLECULE
S89
   60    62     1     0     0
SMALL
bcc


@<TRIPOS>ATOM
      1 CAZ        -0.4890    0.5770   -0.6180 c         1 S89      0.668300
      2 OAB         0.2250    0.9020   -1.5950 o         1 S89     -0.635100
      3 CAE        -1.6670   -0.3140   -0.7570 ce        1 S89     -0.237200
      4 CAF        -2.0420   -0.7530   -1.9690 cf        1 S89     -0.022200
      5 CBB        -3.1760   -1.6240   -2.2250 ca        1 S89     -0.082800
      6 CAP        -3.7600   -2.4050   -1.2180 ca        1 S89     -0.105500
      7 CAJ        -4.8460   -3.2300   -1.5060 ca        1 S89     -0.134500
      8 CAG        -5.3620   -3.2850   -2.8010 ca        1 S89     -0.114000
      9 CAK        -4.7850   -2.5140   -3.8110 ca        1 S89     -0.134500
     10 CAQ        -3.6970   -1.6920   -3.5290 ca        1 S89     -0.105500
     11 NAY        -0.1880    1.0400    0.6480 n         1 S89     -0.558900
     12 CBF         0.8660    1.9910    0.8860 c3        1 S89      0.047700
     13 CBA         2.2370    1.2950    1.1090 c         1 S89      0.641100
     14 OAC         2.8380    1.4020    2.1980 o         1 S89     -0.629100
     15 CAW         0.5950    2.8950    2.1010 c3        1 S89     -0.044100
     16 CBD        -0.6680    3.6660    1.9610 ca        1 S89     -0.085300
     17 CAU        -1.7650    3.3820    2.7830 ca        1 S89     -0.126500
     18 CAT        -0.7660    4.6980    1.0190 ca        1 S89     -0.126500
     19 CAO        -2.9430    4.1190    2.6630 ca        1 S89     -0.126500
     20 CAN        -1.9450    5.4310    0.9000 ca        1 S89     -0.126500
     21 CAI        -3.0350    5.1430    1.7210 ca        1 S89     -0.129000
     22 N           2.7420    0.5800    0.0540 n         1 S89     -0.547900
     23 CA          4.0210   -0.0850    0.1150 c3        1 S89      0.109700
     24 C           5.1420    0.7190   -0.5850 c3        1 S89      0.107400
     25 O           4.8540    0.7640   -1.9720 oh        1 S89     -0.601800
     26 CB          3.9890   -1.4960   -0.4980 c3        1 S89     -0.047100
     27 CG          3.0910   -2.4310    0.2270 ca        1 S89     -0.074300
     28 CD1         1.9890   -3.0000   -0.4230 ca        1 S89     -0.123500
     29 CD2         3.3520   -2.7790    1.5590 ca        1 S89     -0.123500
     30 CE1         1.1630   -3.9010    0.2480 ca        1 S89     -0.130500
     31 CE2         2.5240   -3.6780    2.2280 ca        1 S89     -0.130500
     32 CZ          1.4290   -4.2420    1.5730 ca        1 S89     -0.136000
     33 HAE        -2.2100   -0.5860    0.1610 ha        1 S89      0.136000
     34 HAF        -1.4680   -0.4360   -2.8630 ha        1 S89      0.154000
     35 HAP        -3.3560   -2.3760   -0.1950 ha        1 S89      0.136000
     36 HAJ        -5.2950   -3.8410   -0.7090 ha        1 S89      0.135500
     37 HAG        -6.2200   -3.9350   -3.0260 ha        1 S89      0.135000
     38 HAK        -5.1890   -2.5560   -4.8330 ha        1 S89      0.135500
     39 HAQ        -3.2440   -1.0870   -4.3290 ha        1 S89      0.136000
     40 HNAY       -0.7590    0.7890    1.4190 hn        1 S89      0.320500
     41 HBF         0.9670    2.6460   -0.0360 h1        1 S89      0.088700
     42 HAW         1.4660    3.5990    2.1920 hc        1 S89      0.076200
     43 HAWA        0.5830    2.2720    3.0360 hc        1 S89      0.076200
     44 HAU        -1.6940    2.5800    3.5320 ha        1 S89      0.131500
     45 HAT         0.0930    4.9280    0.3710 ha        1 S89      0.131500
     46 HAO        -3.7990    3.8910    3.3150 ha        1 S89      0.132000
     47 HAN        -2.0150    6.2390    0.1570 ha        1 S89      0.132000
     48 HAI        -3.9650    5.7230    1.6270 ha        1 S89      0.132000
     49 HN          2.2660    0.5780   -0.8220 hn        1 S89      0.346500
     50 HA          4.3170   -0.1680    1.2060 h1        1 S89      0.085700
     51 H           6.1230    0.1960   -0.4200 h1        1 S89      0.031200
     52 H1          5.2030    1.7560   -0.1610 h1        1 S89      0.031200
     53 HO          5.4760    1.3870   -2.3640 ho        1 S89      0.401000
     54 HB          3.6950   -1.4210   -1.5800 hc        1 S89      0.064200
     55 HBA         5.0380   -1.8980   -0.4660 hc        1 S89      0.064200
     56 HD1         1.7740   -2.7330   -1.4690 ha        1 S89      0.133500
     57 HD2         4.2150   -2.3360    2.0790 ha        1 S89      0.133500
     58 HE1         0.3020   -4.3450   -0.2730 ha        1 S89      0.129500
     59 HE2         2.7360   -3.9430    3.2740 ha        1 S89      0.129500
     60 HZ          0.7780   -4.9540    2.1010 ha        1 S89      0.128000
@<TRIPOS>BOND
     1    1    2 2   
     2    1    3 1   
     3    1   11 1   
     4    3    4 2   
     5    3   33 1   
     6    4    5 1   
     7    4   34 1   
     8    5    6 ar  
     9    5   10 ar  
    10    6    7 ar  
    11    6   35 1   
    12    7    8 ar  
    13    7   36 1   
    14    8    9 ar  
    15    8   37 1   
    16    9   10 ar  
    17    9   38 1   
    18   10   39 1   
    19   11   12 1   
    20   11   40 1   
    21   12   13 1   
    22   12   15 1   
    23   12   41 1   
    24   13   14 2   
    25   13   22 1   
    26   15   16 1   
    27   15   42 1   
    28   15   43 1   
    29   16   17 ar  
    30   16   18 ar  
    31   17   19 ar  
    32   17   44 1   
    33   18   20 ar  
    34   18   45 1   
    35   19   21 ar  
    36   19   46 1   
    37   20   21 ar  
    38   20   47 1   
    39   21   48 1   
    40   22   23 1   
    41   22   49 1   
    42   23   24 1   
    43   23   26 1   
    44   23   50 1   
    45   24   25 1   
    46   24   51 1   
    47   24   52 1   
    48   25   53 1   
    49   26   27 1   
    50   26   54 1   
    51   26   55 1   
    52   27   28 ar  
    53   27   29 ar  
    54   28   30 ar  
    55   28   56 1   
    56   29   31 ar  
    57   29   57 1   
    58   30   32 ar  
    59   30   58 1   
    60   31   32 ar  
    61   31   59 1   
    62   32   60 1   
@<TRIPOS>SUBSTRUCTURE
     1 S89         1 TEMP              0 ****  ****    0 ROOT
