@<TRIPOS>MOLECULE
S8A
   22    23     1     0     0
SMALL
bcc


@<TRIPOS>ATOM
      1 O4         -0.1640    0.2630    0.0520 o         1 S8A     -0.575500
      2 C7          1.0660    0.1410    0.0410 c         1 S8A      0.733100
      3 C3          1.9250    0.0660    1.2750 ca        1 S8A     -0.083600
      4 C2          1.4790    0.0080    2.5820 ca        1 S8A     -0.086000
      5 C8          2.4360   -0.0710    3.6060 ca        1 S8A     -0.101000
      6 C1          3.7930   -0.0920    3.3050 ca        1 S8A     -0.148000
      7 C9          4.2310   -0.0350    1.9730 ca        1 S8A     -0.003000
      8 C5          3.3000    0.0460    0.9530 ca        1 S8A     -0.299500
      9 S1          3.5150    0.1170   -0.7630 sy        1 S8A      1.501900
     10 O1          4.0950    1.3590   -1.0830 o         1 S8A     -0.644300
     11 O5          4.2700   -0.9730   -1.1870 o         1 S8A     -0.644300
     12 N1          1.8970    0.1230   -1.0890 n         1 S8A     -0.530200
     13 C4          1.3410   -0.0910   -2.4050 c3        1 S8A     -0.053000
     14 C6          1.1460   -1.5780   -2.8510 c         1 S8A      0.911600
     15 O3          1.1450   -2.4850   -1.9810 o         1 S8A     -0.818300
     16 O2          0.9760   -1.7300   -4.0900 o         1 S8A     -0.818300
     17 H1          0.4020    0.0170    2.8050 ha        1 S8A      0.155000
     18 H2          2.1030   -0.1220    4.6530 ha        1 S8A      0.127000
     19 H3          4.5340   -0.1580    4.1150 ha        1 S8A      0.127000
     20 H4          5.3080   -0.0590    1.7470 ha        1 S8A      0.140000
     21 H5          2.0100    0.4280   -3.1460 h1        1 S8A      0.054200
     22 H6          0.3250    0.3910   -2.4440 h1        1 S8A      0.054200
@<TRIPOS>BOND
     1    1    2 2   
     2    2    3 1   
     3    2   12 1   
     4    3    4 ar  
     5    3    8 ar  
     6    4    5 ar  
     7    4   17 1   
     8    5    6 ar  
     9    5   18 1   
    10    6    7 ar  
    11    6   19 1   
    12    7    8 ar  
    13    7   20 1   
    14    8    9 1   
    15    9   10 2   
    16    9   11 2   
    17    9   12 1   
    18   12   13 1   
    19   13   14 1   
    20   13   21 1   
    21   13   22 1   
    22   14   15 1   
    23   14   16 1   
@<TRIPOS>SUBSTRUCTURE
     1 S8A         1 TEMP              0 ****  ****    0 ROOT
