@<TRIPOS>MOLECULE
S8A
   22    23     1     0     0
SMALL
bcc


@<TRIPOS>ATOM
      1 O4         -0.1600    0.2790    0.0430 o         1 S8A     -0.575500
      2 C7          1.0690    0.1490    0.0360 c         1 S8A      0.733100
      3 C3          1.9240    0.0740    1.2720 ca        1 S8A     -0.083600
      4 C2          1.4740    0.0250    2.5790 ca        1 S8A     -0.086000
      5 C8          2.4270   -0.0560    3.6050 ca        1 S8A     -0.101000
      6 C1          3.7850   -0.0870    3.3090 ca        1 S8A     -0.148000
      7 C9          4.2270   -0.0400    1.9770 ca        1 S8A     -0.003000
      8 C5          3.2990    0.0420    0.9550 ca        1 S8A     -0.299500
      9 S1          3.5200    0.1030   -0.7610 sy        1 S8A      1.501900
     10 O1          4.1100    1.3400   -1.0860 o         1 S8A     -0.644300
     11 O5          4.2680   -0.9940   -1.1780 o         1 S8A     -0.644300
     12 N1          1.9030    0.1190   -1.0920 n         1 S8A     -0.530200
     13 C4          1.3490   -0.0980   -2.4080 c3        1 S8A     -0.053000
     14 C6          1.1450   -1.5850   -2.8470 c         1 S8A      0.911600
     15 O3          1.1350   -2.4880   -1.9730 o         1 S8A     -0.818300
     16 O2          0.9780   -1.7420   -4.0860 o         1 S8A     -0.818300
     17 H1          0.3960    0.0430    2.7990 ha        1 S8A      0.155000
     18 H2          2.0910   -0.0990    4.6520 ha        1 S8A      0.127000
     19 H3          4.5240   -0.1550    4.1210 ha        1 S8A      0.127000
     20 H4          5.3050   -0.0730    1.7540 ha        1 S8A      0.140000
     21 H5          0.3360    0.3910   -2.4530 h1        1 S8A      0.054200
     22 H6          2.0240    0.4130   -3.1500 h1        1 S8A      0.054200
@<TRIPOS>BOND
     1    1    2 2   
     2    2    3 1   
     3    2   12 1   
     4    3    4 ar  
     5    3    8 ar  
     6    4    5 ar  
     7    4   17 1   
     8    5    6 ar  
     9    5   18 1   
    10    6    7 ar  
    11    6   19 1   
    12    7    8 ar  
    13    7   20 1   
    14    8    9 1   
    15    9   10 2   
    16    9   11 2   
    17    9   12 1   
    18   12   13 1   
    19   13   14 1   
    20   13   21 1   
    21   13   22 1   
    22   14   15 1   
    23   14   16 1   
@<TRIPOS>SUBSTRUCTURE
     1 S8A         1 TEMP              0 ****  ****    0 ROOT
