@<TRIPOS>MOLECULE
S8F
   42    44     1     0     0
SMALL
bcc


@<TRIPOS>ATOM
      1 N01         0.5590   -2.2000    0.5470 nc        1 S8F     -0.626000
      2 C02         1.8270   -1.7920    0.5790 cd        1 S8F      0.429400
      3 N03         1.9670   -0.6210    1.3820 na        1 S8F     -0.274700
      4 C04         0.6680   -0.3150    1.8640 cd        1 S8F     -0.198600
      5 C05        -0.1740   -1.2940    1.3390 cc        1 S8F      0.319200
      6 C1'         9.2840   -4.3920   -3.0230 ca        1 S8F     -0.085300
      7 N11         3.0590    1.2140    2.4680 nb        1 S8F     -0.680000
      8 C12         3.1440    0.0880    1.6460 ca        1 S8F      0.805500
      9 N13         4.3190   -0.3730    1.0770 nb        1 S8F     -0.791000
     10 C14         5.4400    0.3360    1.3530 ca        1 S8F      0.410600
     11 C15         5.4480    1.4770    2.1650 ca        1 S8F     -0.371600
     12 C16         4.1970    1.8690    2.7030 ca        1 S8F      0.491200
     13 C17         6.7640   -0.1070    0.7700 c3        1 S8F      0.060500
     14 N18         6.6800   -1.3050   -0.1140 n4        1 S8F     -0.753000
     15 C19         8.0190   -1.6870   -0.6600 c3        1 S8F      0.101800
     16 C2'         8.7760   -4.2130   -4.3120 ca        1 S8F     -0.170000
     17 C20         7.9420   -2.9070   -1.5690 c3        1 S8F     -0.110400
     18 C21         9.3340   -3.2360   -2.0860 c3        1 S8F     -0.026100
     19 C3'         8.7420   -5.3000   -5.2020 ca        1 S8F      0.140900
     20 C4'         9.2200   -6.5640   -4.8010 ca        1 S8F     -0.146000
     21 C5'         9.7260   -6.7210   -3.5160 ca        1 S8F     -0.094000
     22 C6'         9.7600   -5.6460   -2.6270 ca        1 S8F     -0.135000
     23 F7'         8.2470   -5.1290   -6.4500 f         1 S8F     -0.126900
     24 H02         2.6740   -2.2640    0.0720 h5        1 S8F      0.065100
     25 H04         0.4730    0.5410    2.5110 h4        1 S8F      0.210000
     26 H05        -1.2510   -1.4130    1.4740 h4        1 S8F      0.068100
     27 H15         6.3610    2.0440    2.3830 ha        1 S8F      0.175000
     28 H16         4.1140    2.7620    3.3570 h4        1 S8F      0.064100
     29 H17         7.4690   -0.3460    1.6200 hx        1 S8F      0.118700
     30 H17A        7.1940    0.7450    0.1660 hx        1 S8F      0.118700
     31 HN18        6.0360   -1.1120   -0.8920 hn        1 S8F      0.463800
     32 H19         8.4250   -0.8030   -1.2310 hx        1 S8F      0.105200
     33 H19A        8.7020   -1.8970    0.2130 hx        1 S8F      0.105200
     34 H2'         8.4140   -3.2300   -4.6460 ha        1 S8F      0.142000
     35 H20         7.5340   -3.7910   -1.0110 hc        1 S8F      0.074700
     36 H20A        7.2630   -2.7080   -2.4420 hc        1 S8F      0.074700
     37 H21         9.7610   -2.3420   -2.6180 hc        1 S8F      0.062700
     38 H21A       10.0110   -3.4690   -1.2210 hc        1 S8F      0.062700
     39 H4'         9.1920   -7.4060   -5.5080 ha        1 S8F      0.165000
     40 H5'        10.1080   -7.7050   -3.1980 ha        1 S8F      0.153000
     41 H6'        10.1710   -5.7870   -1.6160 ha        1 S8F      0.138000
     42 H182        6.2900   -2.0950    0.4170 hn        1 S8F      0.463800
@<TRIPOS>BOND
     1    1    2 2   
     2    1    5 1   
     3    2    3 1   
     4    2   24 1   
     5    3    4 1   
     6    3    8 1   
     7    4    5 2   
     8    4   25 1   
     9    5   26 1   
    10    6   16 ar  
    11    6   18 1   
    12    6   22 ar  
    13    7    8 ar  
    14    7   12 ar  
    15    8    9 ar  
    16    9   10 ar  
    17   10   11 ar  
    18   10   13 1   
    19   11   12 ar  
    20   11   27 1   
    21   12   28 1   
    22   13   14 1   
    23   13   29 1   
    24   13   30 1   
    25   14   15 1   
    26   14   31 1   
    27   14   42 1   
    28   15   17 1   
    29   15   32 1   
    30   15   33 1   
    31   16   19 ar  
    32   16   34 1   
    33   17   18 1   
    34   17   35 1   
    35   17   36 1   
    36   18   37 1   
    37   18   38 1   
    38   19   20 ar  
    39   19   23 1   
    40   20   21 ar  
    41   20   39 1   
    42   21   22 ar  
    43   21   40 1   
    44   22   41 1   
@<TRIPOS>SUBSTRUCTURE
     1 S8F         1 TEMP              0 ****  ****    0 ROOT
