@<TRIPOS>MOLECULE
S8F
   42    44     1     0     0
SMALL
bcc


@<TRIPOS>ATOM
      1 N01         0.5580   -2.1930    0.5470 nc        1 S8F     -0.626000
      2 C02         1.8290   -1.7940    0.5880 cd        1 S8F      0.429400
      3 N03         1.9730   -0.6310    1.4030 na        1 S8F     -0.274700
      4 C04         0.6750   -0.3210    1.8830 cd        1 S8F     -0.198600
      5 C05        -0.1720   -1.2900    1.3460 cc        1 S8F      0.319200
      6 C1'         9.2740   -4.3710   -3.0570 ca        1 S8F     -0.085300
      7 N11         3.0740    1.1850    2.5140 nb        1 S8F     -0.680000
      8 C12         3.1540    0.0670    1.6790 ca        1 S8F      0.805500
      9 N13         4.3270   -0.3950    1.1070 nb        1 S8F     -0.791000
     10 C14         5.4530    0.3040    1.3950 ca        1 S8F      0.410600
     11 C15         5.4660    1.4350    2.2210 ca        1 S8F     -0.371600
     12 C16         4.2150    1.8300    2.7590 ca        1 S8F      0.491200
     13 C17         6.7750   -0.1410    0.8120 c3        1 S8F      0.060500
     14 N18         6.6850   -1.3210   -0.0960 ny        1 S8F     -0.753000
     15 C19         8.0230   -1.7050   -0.6430 c3        1 S8F      0.101800
     16 C2'         8.7770   -4.1560   -4.3460 ca        1 S8F     -0.170000
     17 C20         7.9380   -2.9040   -1.5790 c3        1 S8F     -0.110400
     18 C21         9.3300   -3.2370   -2.0940 c3        1 S8F     -0.026100
     19 C3'         8.7360   -5.2230   -5.2600 ca        1 S8F      0.140900
     20 C4'         9.1960   -6.5010   -4.8850 ca        1 S8F     -0.146000
     21 C5'         9.6910   -6.6930   -3.5990 ca        1 S8F     -0.094000
     22 C6'         9.7310   -5.6390   -2.6860 ca        1 S8F     -0.135000
     23 F7'         8.2530   -5.0180   -6.5070 f         1 S8F     -0.126900
     24 H02         2.6750   -2.2660    0.0800 h5        1 S8F      0.065100
     25 H04         0.4830    0.5300    2.5380 h4        1 S8F      0.210000
     26 H05        -1.2500   -1.4030    1.4750 h4        1 S8F      0.068100
     27 H15         6.3810    1.9940    2.4470 ha        1 S8F      0.175000
     28 H16         4.1360    2.7150    3.4230 h4        1 S8F      0.064100
     29 H17         7.4720   -0.4050    1.6620 hx        1 S8F      0.118700
     30 H17A        7.2200    0.7180    0.2280 hx        1 S8F      0.118700
     31 HN18        6.2840   -2.1170    0.4170 hn        1 S8F      0.463800
     32 H19         8.6990   -1.9400    0.2290 hx        1 S8F      0.105200
     33 H19A        8.4410   -0.8130   -1.1930 hx        1 S8F      0.105200
     34 H2'         8.4290   -3.1620   -4.6590 ha        1 S8F      0.142000
     35 H20         7.2670   -2.6790   -2.4500 hc        1 S8F      0.074700
     36 H20A        7.5180   -3.7950   -1.0420 hc        1 S8F      0.074700
     37 H21         9.9990   -3.4970   -1.2300 hc        1 S8F      0.062700
     38 H21A        9.7700   -2.3360   -2.6030 hc        1 S8F      0.062700
     39 H4'         9.1630   -7.3270   -5.6110 ha        1 S8F      0.165000
     40 H5'        10.0590   -7.6880   -3.3010 ha        1 S8F      0.153000
     41 H6'        10.1330   -5.8080   -1.6760 ha        1 S8F      0.138000
     42 H182        6.0460   -1.1050   -0.8730 hn        1 S8F      0.463800
@<TRIPOS>BOND
     1    1    2 2   
     2    1    5 1   
     3    2    3 1   
     4    2   24 1   
     5    3    4 1   
     6    3    8 1   
     7    4    5 2   
     8    4   25 1   
     9    5   26 1   
    10    6   16 ar  
    11    6   18 1   
    12    6   22 ar  
    13    7    8 ar  
    14    7   12 ar  
    15    8    9 ar  
    16    9   10 ar  
    17   10   11 ar  
    18   10   13 1   
    19   11   12 ar  
    20   11   27 1   
    21   12   28 1   
    22   13   14 1   
    23   13   29 1   
    24   13   30 1   
    25   14   15 1   
    26   14   31 1   
    27   14   42 1   
    28   15   17 1   
    29   15   32 1   
    30   15   33 1   
    31   16   19 ar  
    32   16   34 1   
    33   17   18 1   
    34   17   35 1   
    35   17   36 1   
    36   18   37 1   
    37   18   38 1   
    38   19   20 ar  
    39   19   23 1   
    40   20   21 ar  
    41   20   39 1   
    42   21   22 ar  
    43   21   40 1   
    44   22   41 1   
@<TRIPOS>SUBSTRUCTURE
     1 S8F         1 TEMP              0 ****  ****    0 ROOT
