@<TRIPOS>MOLECULE
S8Y
   58    59     1     0     0
SMALL
bcc


@<TRIPOS>ATOM
      1 C1         -2.0280   -0.0900    1.5040 cx        1 S8Y     -0.230000
      2 C2         -0.9310   -0.8630    0.7900 c3        1 S8Y     -0.205000
      3 C3         -1.9050    1.3450    1.9940 cx        1 S8Y     -0.091000
      4 C4          0.0880   -1.2050    1.8330 c1        1 S8Y     -0.040000
      5 C5         -1.3860    0.2620    2.8190 cu        1 S8Y     -0.334000
      6 C6          0.4650    4.6480    1.3100 ca        1 S8Y     -0.099000
      7 C7          1.4410    5.6000    1.0320 ca        1 S8Y     -0.149000
      8 C8          0.0140    5.6730    3.4650 ca        1 S8Y     -0.085000
      9 C9         -0.2020   -0.4230    3.0430 c2        1 S8Y      0.019000
     10 C10        -0.2470    4.6850    2.5090 ca        1 S8Y     -0.114000
     11 C11         1.7040    6.6000    1.9790 ca        1 S8Y      0.088000
     12 C12         0.9950    6.6300    3.1960 ca        1 S8Y     -0.127000
     13 C14         1.7620   -1.2130    4.4910 c2        1 S8Y      0.390000
     14 C16         1.3880    7.7320    5.3010 c1        1 S8Y     -0.050000
     15 C17         3.3050   -3.8870    4.8630 c3        1 S8Y     -0.224000
     16 C18         4.6470   -2.0470    3.8700 c3        1 S8Y     -0.224000
     17 C19         3.6060   -3.7570    2.4000 c3        1 S8Y     -0.224000
     18 C20        -0.0020    2.4000    7.1840 c1        1 S8Y     -0.223000
     19 C21         0.7600    4.3410    5.9390 c2        1 S8Y     -0.344000
     20 C22         0.6040   -0.3580    4.1820 c2        1 S8Y     -0.384000
     21 C23         3.3900   -2.9140    3.6730 c3        1 S8Y      0.099000
     22 N24         2.1800   -2.1160    3.5380 n         1 S8Y     -0.373000
     23 N25         0.2510    0.6020    5.2020 n4        1 S8Y      0.042000
     24 N26         0.4790    2.9580    6.0890 n         1 S8Y     -0.075000
     25 O27        -1.9000    6.2720    4.7920 o         1 S8Y     -0.345000
     26 O28        -0.3640    5.1480    5.8740 os        1 S8Y     -0.177000
     27 O29         2.3220   -1.1370    5.6230 o         1 S8Y     -0.479000
     28 O30         1.3590    2.3080    3.9680 o         1 S8Y     -0.258000
     29 O31         2.6680    7.5270    1.6590 oh        1 S8Y     -0.260000
     30 O32         1.3160    7.7390    4.0330 os        1 S8Y     -0.039000
     31 H1         -1.1770    2.0390    1.5270 hc        1 S8Y      0.100000
     32 H2         -0.4180   -0.2320    0.0170 hc        1 S8Y      0.118500
     33 H3         -3.0400   -0.5100    1.4120 hc        1 S8Y      0.119000
     34 H4         -1.3150   -1.7860    0.2910 hc        1 S8Y      0.118500
     35 H5         -2.8430    1.8620    2.2710 hc        1 S8Y      0.100000
     36 H6          0.2570    3.8510    0.5810 ha        1 S8Y      0.134000
     37 H7          2.0100    5.5820    0.0930 ha        1 S8Y      0.144000
     38 H22        -0.7740    0.6530    5.2650 hn        1 S8Y      0.258000
     39 H211       -1.0150    3.9220    2.7140 ha        1 S8Y      0.147000
     40 H212        1.5480    4.5750    5.1980 h5        1 S8Y      0.086000
     41 H24         1.7600   -2.0770    2.6270 hn        1 S8Y      0.269000
     42 H25         0.6320    0.2870    6.1130 hn        1 S8Y      0.258000
     43 H161        2.7200    8.1690    2.3840 ho        1 S8Y      0.233000
     44 H162        1.1730    6.8460    5.9290 ha        1 S8Y      0.109000
     45 H171        2.4450   -4.5860    4.7380 hc        1 S8Y      0.077333
     46 H172        3.1740   -3.3160    5.8140 hc        1 S8Y      0.077333
     47 H173        4.2470   -4.4820    4.9200 hc        1 S8Y      0.077333
     48 H181        4.5430   -1.4310    4.7970 hc        1 S8Y      0.077333
     49 H182        4.7970   -1.3670    2.9990 hc        1 S8Y      0.077333
     50 H183        5.5410   -2.7060    3.9690 hc        1 S8Y      0.077333
     51 H191        4.5310   -4.3680    2.5240 hc        1 S8Y      0.077333
     52 H192        3.7280   -3.1010    1.5060 hc        1 S8Y      0.077333
     53 H193        2.7430   -4.4440    2.2280 hc        1 S8Y      0.077333
     54 H201        1.6410    0.5880    7.9430 ha        1 S8Y      0.002500
     55 H202        2.0010    0.0370    7.7740 ha        1 S8Y      0.002500
     56 H203       -0.1630    3.0840    8.0380 ha        1 S8Y      0.081000
     57 C15         0.7410    2.0320    4.9950 c2        1 S8Y      0.265000
     58 C13        -0.8080    5.6960    4.7030 c2        1 S8Y      0.272000
@<TRIPOS>BOND
     1    1    2 1   
     2    1    3 1   
     3    1    5 1   
     4    1   33 1   
     5    2    4 1   
     6    2   32 1   
     7    2   34 1   
     8    3    5 1   
     9    3   31 1   
    10    3   35 1   
    11    4    9 1   
    12    5    9 1   
    13    6    7 1   
    14    6   10 1   
    15    6   36 1   
    16    7   11 1   
    17    7   37 1   
    18    8   10 1   
    19    8   12 1   
    20    8   58 1   
    21    9   20 1   
    22   10   39 1   
    23   11   12 1   
    24   11   29 1   
    25   12   30 1   
    26   13   20 1   
    27   13   22 1   
    28   13   27 1   
    29   14   30 1   
    30   14   44 1   
    31   15   21 1   
    32   15   45 1   
    33   15   46 1   
    34   15   47 1   
    35   16   21 1   
    36   16   48 1   
    37   16   49 1   
    38   16   50 1   
    39   17   21 1   
    40   17   51 1   
    41   17   52 1   
    42   17   53 1   
    43   18   24 1   
    44   18   56 1   
    45   19   24 1   
    46   19   26 1   
    47   19   40 1   
    48   20   23 1   
    49   21   22 1   
    50   22   41 1   
    51   23   38 1   
    52   23   42 1   
    53   23   57 1   
    54   24   57 1   
    55   25   58 1   
    56   26   58 1   
    57   28   57 1   
    58   29   43 1   
    59   54   55 1   
@<TRIPOS>SUBSTRUCTURE
     1 S8Y         1 TEMP              0 ****  ****    0 ROOT
