@<TRIPOS>MOLECULE
S8Y
   58    52     1     0     0
SMALL
bcc


@<TRIPOS>ATOM
      1 C1         -2.6420    0.6880   -6.0400 c1        1 S8Y     -0.076333
      2 C2         -1.2570    0.8770   -6.0280 c1        1 S8Y     -0.076333
      3 C3         -3.3260    0.4640   -4.8430 c1        1 S8Y     -0.076333
      4 C4         -0.5540    0.8410   -4.8070 c1        1 S8Y     -0.076333
      5 C5         -2.6250    0.4290   -3.6280 c1        1 S8Y     -0.028500
      6 C6         -0.3420    0.5290    2.1500 c1        1 S8Y     -0.076333
      7 C7         -0.7840   -0.4810    2.9830 c1        1 S8Y     -0.076333
      8 C8          1.1820    1.3020    3.8730 cg        1 S8Y     -0.010200
      9 C9         -1.2370    0.6190   -3.6160 cg        1 S8Y     -0.116200
     10 C10         0.6490    1.4290    2.5940 c1        1 S8Y     -0.083100
     11 C11        -0.2410   -0.6140    4.2900 c1        1 S8Y      0.034100
     12 C12         0.7290    0.2670    4.7290 c1        1 S8Y      0.034100
     13 C13         2.2380    1.9490    4.8570 c         1 S8Y      0.868800
     14 C14        -0.2640   -0.7850   -1.8700 c1        1 S8Y      0.530500
     15 C15         0.3990    2.3590   -0.7820 c1        1 S8Y      0.616500
     16 C16         0.4070   -1.2910    6.4060 c3        1 S8Y      0.319200
     17 C17        -0.0370   -3.6700   -1.4220 c3        1 S8Y     -0.108433
     18 C18         0.7330   -2.2940    0.4900 c3        1 S8Y     -0.108433
     19 C19         2.3870   -3.2780   -1.0410 c3        1 S8Y     -0.108433
     20 C20        -1.0340    3.5900    0.9220 c3        1 S8Y     -0.027400
     21 C21         1.1480    2.5950    1.6300 c3        1 S8Y      0.038400
     22 C22        -0.2680    0.5930   -2.5010 ce        1 S8Y      0.505100
     23 C23         1.0090   -2.6630   -0.9430 c3        1 S8Y      0.068700
     24 N24         0.9490   -1.5010   -1.7520 n3        1 S8Y     -0.395400
     25 N25        -0.6490    1.5860   -1.5030 n2        1 S8Y     -0.920100
     26 N26         0.1570    2.8260    0.6130 n3        1 S8Y     -0.241400
     27 O27         3.4420    1.5990    4.8010 o         1 S8Y     -0.813800
     28 O28         1.8830    2.8660    5.6540 o         1 S8Y     -0.813800
     29 O29        -1.3130   -1.2410   -1.3560 o         1 S8Y     -0.627500
     30 O30         1.4080    2.6600   -1.3440 o         1 S8Y     -0.689500
     31 O31        -0.4310   -1.6170    5.3180 os        1 S8Y     -0.318900
     32 O32         1.1090   -0.1210    6.0800 os        1 S8Y     -0.318900
     33 H1         -3.1330    0.5900   -6.9300 ha        1 S8Y      0.072500
     34 H2         -0.8040    1.0240   -6.8190 ha        1 S8Y      0.072500
     35 H3         -4.2890    0.3330   -4.8510 ha        1 S8Y      0.072500
     36 H4          0.4010    0.9820   -4.7960 ha        1 S8Y      0.072500
     37 H5         -3.1260    0.3890   -2.7700 ha        1 S8Y      0.094500
     38 H6         -0.6830    0.5850    1.2020 ha        1 S8Y      0.072500
     39 H7         -1.5000   -1.1290    2.6590 ha        1 S8Y      0.072500
     40 H22         0.6640    0.8060   -2.8560 h4        1 S8Y      0.004800
     41 H211        1.9970    2.3330    1.2080 h1        1 S8Y      0.088200
     42 H212        1.2850    3.4290    2.1580 h1        1 S8Y      0.088200
     43 H24         1.6960   -1.2070   -2.1850 hn        1 S8Y      0.306700
     44 H25        -1.5380    1.7710   -1.3570 hn        1 S8Y      0.478400
     45 H161        1.0390   -2.0220    6.5690 h2        1 S8Y      0.051700
     46 H162       -0.1540   -1.1340    7.2350 h2        1 S8Y      0.051700
     47 H171        0.2620   -4.6110   -1.1820 hc        1 S8Y      0.043589
     48 H172       -0.9270   -3.4710   -0.9730 hc        1 S8Y      0.043589
     49 H173       -0.1390   -3.5980   -2.4010 hc        1 S8Y      0.043589
     50 H181        0.8440   -3.0750    1.0530 hc        1 S8Y      0.043589
     51 H182       -0.2150   -1.9510    0.5740 hc        1 S8Y      0.043589
     52 H183        1.3720   -1.5840    0.7780 hc        1 S8Y      0.043589
     53 H191        2.5260   -3.6350   -1.9520 hc        1 S8Y      0.043589
     54 H192        3.0330   -2.6250   -0.8590 hc        1 S8Y      0.043589
     55 H193        2.4690   -4.0250   -0.3690 hc        1 S8Y      0.043589
     56 H201       -1.0790    3.7490    1.8810 h1        1 S8Y      0.061367
     57 H202       -1.8250    3.0890    0.6360 h1        1 S8Y      0.061367
     58 H203       -1.0000    4.4770    0.4330 h1        1 S8Y      0.061367
@<TRIPOS>BOND
     1    1    3 3   
     2    1   33 1   
     3    2    4 3   
     4    2   34 1   
     5    3   35 1   
     6    4   36 1   
     7    5    9 3   
     8    5   37 1   
     9    6    7 3   
    10    6   38 1   
    11    7   39 1   
    12    8   10 3   
    13    8   13 1   
    14    9   22 1   
    15   10   21 1   
    16   11   12 3   
    17   11   31 1   
    18   12   32 1   
    19   13   27 1   
    20   13   28 1   
    21   14   24 2   
    22   14   29 2   
    23   15   26 2   
    24   15   30 2   
    25   16   31 1   
    26   16   32 1   
    27   16   45 1   
    28   16   46 1   
    29   17   23 1   
    30   17   47 1   
    31   17   48 1   
    32   17   49 1   
    33   18   23 1   
    34   18   50 1   
    35   18   51 1   
    36   18   52 1   
    37   19   23 1   
    38   19   53 1   
    39   19   54 1   
    40   19   55 1   
    41   20   26 1   
    42   20   56 1   
    43   20   57 1   
    44   20   58 1   
    45   21   26 1   
    46   21   41 1   
    47   21   42 1   
    48   22   25 2   
    49   22   40 1   
    50   23   24 1   
    51   24   43 1   
    52   25   44 1   
@<TRIPOS>SUBSTRUCTURE
     1 S8Y         1 TEMP              0 ****  ****    0 ROOT
