@<TRIPOS>MOLECULE
S8Y
   58    60     1     0     0
SMALL
bcc


@<TRIPOS>ATOM
      1 C1          3.4570   -4.9060    2.6910 ca        1 S8Y     -0.127000
      2 C2          3.0740   -4.9640    1.3510 ca        1 S8Y     -0.139500
      3 C3          3.6140   -3.6690    3.3150 ca        1 S8Y     -0.139500
      4 C4          2.8440   -3.7890    0.6370 ca        1 S8Y     -0.098500
      5 C5          3.3870   -2.4910    2.6040 ca        1 S8Y     -0.098500
      6 C6         -2.1550   -0.0960   -1.6180 ca        1 S8Y     -0.129000
      7 C7         -3.2550   -0.8440   -2.0660 ca        1 S8Y     -0.150000
      8 C8         -3.5480    1.3230   -0.1670 ca        1 S8Y     -0.061600
      9 C9          3.0030   -2.5470    1.2600 ca        1 S8Y     -0.084300
     10 C10        -2.2930    0.9510   -0.7040 ca        1 S8Y     -0.119300
     11 C11        -4.4820   -0.4800   -1.5480 ca        1 S8Y      0.042100
     12 C12        -4.6260    0.5810   -0.6190 ca        1 S8Y      0.057100
     13 C14         3.9820   -0.3610    0.4680 c         1 S8Y      0.635100
     14 C16        -6.6880   -0.3020   -1.0220 c3        1 S8Y      0.319200
     15 C17         6.4930    0.9230   -0.8240 c3        1 S8Y     -0.107433
     16 C18         5.0790    2.5190    0.4540 c3        1 S8Y     -0.107433
     17 C19         4.8410    2.3510   -2.0130 c3        1 S8Y     -0.107433
     18 C20        -0.6830    0.8330    1.9590 c3        1 S8Y      0.030300
     19 C21        -1.0670    1.7280   -0.3090 c3        1 S8Y      0.132300
     20 C22         2.7270   -1.2910    0.4720 c3        1 S8Y      0.095000
     21 C23         5.0850    1.5360   -0.7300 c3        1 S8Y      0.123400
     22 N24         4.0600    0.5050   -0.5950 n         1 S8Y     -0.556900
     23 N25         1.5650   -0.6000    0.9650 n         1 S8Y     -0.570900
     24 N26        -0.1780    1.0620    0.6310 n         1 S8Y     -0.425800
     25 O27        -3.5910    2.1770    2.0610 o         1 S8Y     -0.814300
     26 O28        -3.8090    3.6320    0.3780 o         1 S8Y     -0.814300
     27 O29         4.8470   -0.4220    1.3660 o         1 S8Y     -0.632100
     28 O30         1.1430    0.2700   -1.1170 o         1 S8Y     -0.698100
     29 O31        -5.7320   -1.0410   -1.8140 os        1 S8Y     -0.356900
     30 O32        -5.9780    0.7060   -0.2820 os        1 S8Y     -0.314900
     31 H1          3.6330   -5.8330    3.2540 ha        1 S8Y      0.123000
     32 H2          2.9470   -5.9380    0.8570 ha        1 S8Y      0.127000
     33 H3          3.9200   -3.6190    4.3700 ha        1 S8Y      0.127000
     34 H4          2.5320   -3.8420   -0.4170 ha        1 S8Y      0.142500
     35 H5          3.5430   -1.5120    3.0850 ha        1 S8Y      0.142500
     36 H6         -1.1500   -0.3400   -2.0000 ha        1 S8Y      0.141000
     37 H7         -3.1440   -1.6630   -2.7830 ha        1 S8Y      0.132000
     38 H22         2.5150   -1.5850   -0.6060 h1        1 S8Y      0.097700
     39 H211       -0.4750    1.9680   -1.2390 h1        1 S8Y      0.087200
     40 H212       -1.3810    2.6990    0.1800 h1        1 S8Y      0.087200
     41 H24         3.2600    0.5980   -1.1880 hn        1 S8Y      0.345500
     42 H25         1.4740   -0.5170    1.9500 hn        1 S8Y      0.317500
     43 H161       -7.4110    0.1980   -1.7130 h2        1 S8Y      0.050700
     44 H162       -7.1720   -1.0070   -0.3010 h2        1 S8Y      0.050700
     45 H171        6.7230    0.3410    0.1010 hc        1 S8Y      0.043033
     46 H172        6.5700    0.2470   -1.7080 hc        1 S8Y      0.043033
     47 H173        7.2410    1.7430   -0.9330 hc        1 S8Y      0.043033
     48 H181        5.8770    3.2830    0.3020 hc        1 S8Y      0.043033
     49 H182        4.0950    3.0400    0.5300 hc        1 S8Y      0.043033
     50 H183        5.2770    1.9740    1.4090 hc        1 S8Y      0.043033
     51 H191        4.8810    1.6940   -2.9140 hc        1 S8Y      0.043033
     52 H192        3.8460    2.8580   -1.9800 hc        1 S8Y      0.043033
     53 H193        5.6350    3.1300   -2.1020 hc        1 S8Y      0.043033
     54 H201        0.0940    1.1450    2.7080 h1        1 S8Y      0.061367
     55 H202       -1.6200    1.4470    2.1240 h1        1 S8Y      0.061367
     56 H203       -0.9440   -0.2450    2.1340 h1        1 S8Y      0.061367
     57 C15         0.8300    0.2410    0.1080 c         1 S8Y      0.758100
     58 C13        -3.6760    2.4670    0.8340 c         1 S8Y      0.920200
@<TRIPOS>BOND
     1    1    2 ar  
     2    1    3 ar  
     3    1   31 1   
     4    2    4 ar  
     5    2   32 1   
     6    3    5 ar  
     7    3   33 1   
     8    4    9 ar  
     9    4   34 1   
    10    5    9 ar  
    11    5   35 1   
    12    6    7 ar  
    13    6   10 ar  
    14    6   36 1   
    15    7   11 ar  
    16    7   37 1   
    17    8   10 ar  
    18    8   12 ar  
    19    8   58 1   
    20    9   20 1   
    21   10   19 1   
    22   11   12 ar  
    23   11   29 1   
    24   12   30 1   
    25   13   20 1   
    26   13   22 1   
    27   13   27 2   
    28   14   29 1   
    29   14   30 1   
    30   14   43 1   
    31   14   44 1   
    32   15   21 1   
    33   15   45 1   
    34   15   46 1   
    35   15   47 1   
    36   16   21 1   
    37   16   48 1   
    38   16   49 1   
    39   16   50 1   
    40   17   21 1   
    41   17   51 1   
    42   17   52 1   
    43   17   53 1   
    44   18   24 1   
    45   18   54 1   
    46   18   55 1   
    47   18   56 1   
    48   19   24 1   
    49   19   39 1   
    50   19   40 1   
    51   20   23 1   
    52   20   38 1   
    53   21   22 1   
    54   22   41 1   
    55   23   42 1   
    56   23   57 1   
    57   24   57 1   
    58   25   58 1   
    59   26   58 1   
    60   28   57 2   
@<TRIPOS>SUBSTRUCTURE
     1 S8Y         1 TEMP              0 ****  ****    0 ROOT
