@<TRIPOS>MOLECULE
S8Z
   54    56     1     0     0
SMALL
bcc


@<TRIPOS>ATOM
      1 C1          1.1400   -0.7700    3.6330 c3        1 S8Z      0.112700
      2 O2          2.4530   -0.6710    3.1040 os        1 S8Z     -0.419600
      3 C3          2.4440   -0.3430    1.7090 c3        1 S8Z      0.203500
      4 C4          3.8050   -0.2620    1.2520 c1        1 S8Z     -0.084100
      5 C5          4.9330   -0.1910    0.8560 cg        1 S8Z     -0.124000
      6 C6          6.2580   -0.1070    0.3890 ca        1 S8Z      0.042000
      7 C7          6.5430   -0.2280   -0.9800 ca        1 S8Z     -0.087000
      8 C8          7.8630   -0.1570   -1.4200 ca        1 S8Z     -0.129000
      9 C9          8.9090    0.0220   -0.5210 ca        1 S8Z     -0.084000
     10 C10         8.6370    0.1550    0.8610 ca        1 S8Z      0.100400
     11 C11         7.3010    0.0960    1.3020 ca        1 S8Z     -0.114000
     12 C12         9.7930    0.9580    2.8040 ce        1 S8Z      0.458600
     13 C13        11.1190    0.9140    3.5510 ce        1 S8Z      0.581900
     14 N14        11.9960    1.8390    3.4100 n2        1 S8Z     -0.521900
     15 C15        13.2590    1.8550    4.0690 c3        1 S8Z      0.059800
     16 C16        13.6460    0.5470    4.8360 c3        1 S8Z      0.388600
     17 C17        12.3460   -0.1280    5.4150 c3        1 S8Z      0.061800
     18 N18        11.3040   -0.2740    4.4130 nh        1 S8Z     -0.488400
     19 C19        10.5360   -1.3160    4.1730 c1        1 S8Z      0.150800
     20 N20         9.7420    0.2550    1.7300 nf        1 S8Z     -0.524100
     21 N21        10.6430   -2.6340    4.8480 nz        1 S8Z     -0.789200
     22 F22        14.3390   -0.3390    4.0420 f         1 S8Z     -0.208800
     23 F23        14.5270    0.7950    5.8620 f         1 S8Z     -0.208800
     24 C24         8.8380    1.8750    3.4510 ca        1 S8Z     -0.232900
     25 C25         8.8630    3.2350    3.1260 ca        1 S8Z     -0.071500
     26 C26         7.9780    4.1210    3.7380 ca        1 S8Z     -0.160500
     27 C27         7.0650    3.6360    4.6810 ca        1 S8Z      0.161100
     28 C28         7.0290    2.2660    5.0120 ca        1 S8Z     -0.160500
     29 C29         7.9170    1.3970    4.3940 ca        1 S8Z     -0.071500
     30 O30         6.1410    4.3990    5.3690 os        1 S8Z     -0.376900
     31 C31         6.0030    5.7880    5.1430 c3        1 S8Z      0.594700
     32 F32         5.7500    6.0080    3.8230 f         1 S8Z     -0.237300
     33 F33         7.1930    6.4000    5.4010 f         1 S8Z     -0.237300
     34 H11C        0.6010    0.2040    3.5350 h1        1 S8Z      0.040033
     35 H12C        0.5660   -1.5790    3.1160 h1        1 S8Z      0.040033
     36 H13C        1.2970   -1.0270    4.7100 h1        1 S8Z      0.040033
     37 H31C        1.8890   -1.1430    1.1410 h1        1 S8Z      0.056200
     38 H32C        1.9230    0.6460    1.5610 h1        1 S8Z      0.056200
     39 H7          5.7240   -0.3770   -1.7010 ha        1 S8Z      0.154000
     40 H11         7.0620    0.2020    2.3730 ha        1 S8Z      0.146000
     41 H8          8.0840   -0.2470   -2.4960 ha        1 S8Z      0.151000
     42 H9          9.9450    0.0690   -0.8920 ha        1 S8Z      0.152000
     43 H151       14.0480    2.0540    3.2840 h1        1 S8Z      0.131200
     44 H152       13.2730    2.7150    4.8020 h1        1 S8Z      0.131200
     45 H171       12.6470   -1.1170    5.8540 h1        1 S8Z      0.100200
     46 H172       11.9660    0.5350    6.2460 h1        1 S8Z      0.100200
     47 H211       11.3510   -2.7870    5.5700 hn        1 S8Z      0.453133
     48 H212        9.7110   -2.8150    5.2450 hn        1 S8Z      0.453133
     49 H25         9.5830    3.6130    2.3820 ha        1 S8Z      0.141500
     50 H29         7.8830    0.3250    4.6380 ha        1 S8Z      0.141500
     51 H26         8.0000    5.1910    3.4730 ha        1 S8Z      0.166000
     52 H28         6.2920    1.9060    5.7460 ha        1 S8Z      0.166000
     53 H31         5.1650    6.1120    5.8300 h3        1 S8Z      0.143700
     54 H213       10.7950   -3.3060    4.0820 hn        1 S8Z      0.453133
@<TRIPOS>BOND
     1    1    2 1   
     2    1   34 1   
     3    1   35 1   
     4    1   36 1   
     5    2    3 1   
     6    3    4 1   
     7    3   37 1   
     8    3   38 1   
     9    4    5 3   
    10    5    6 1   
    11    6    7 ar  
    12    6   11 ar  
    13    7    8 ar  
    14    7   39 1   
    15    8    9 ar  
    16    8   41 1   
    17    9   10 ar  
    18    9   42 1   
    19   10   11 ar  
    20   10   20 1   
    21   11   40 1   
    22   12   13 1   
    23   12   20 2   
    24   12   24 1   
    25   13   14 2   
    26   13   18 1   
    27   14   15 1   
    28   15   16 1   
    29   15   43 1   
    30   15   44 1   
    31   16   17 1   
    32   16   22 1   
    33   16   23 1   
    34   17   18 1   
    35   17   45 1   
    36   17   46 1   
    37   18   19 3   
    38   19   21 1   
    39   21   47 1   
    40   21   48 1   
    41   21   54 1   
    42   24   25 ar  
    43   24   29 ar  
    44   25   26 ar  
    45   25   49 1   
    46   26   27 ar  
    47   26   51 1   
    48   27   28 ar  
    49   27   30 1   
    50   28   29 ar  
    51   28   52 1   
    52   29   50 1   
    53   30   31 1   
    54   31   32 1   
    55   31   33 1   
    56   31   53 1   
@<TRIPOS>SUBSTRUCTURE
     1 S8Z         1 TEMP              0 ****  ****    0 ROOT
