@<TRIPOS>MOLECULE
S8Z
   54    56     1     0     0
SMALL
bcc


@<TRIPOS>ATOM
      1 C1         -0.3160    2.4740    1.1100 c3        1 S8Z     -0.180000
      2 O2          0.8860    1.6800    1.2790 os        1 S8Z     -0.083000
      3 C3          1.4910    1.5740    2.3960 c1        1 S8Z     -0.064000
      4 C4          4.1010   -0.2050    1.6950 c1        1 S8Z     -0.122000
      5 C5          5.0950   -0.8250    1.4350 c1        1 S8Z     -0.218000
      6 C6          6.2600   -1.5460    1.1230 ca        1 S8Z      0.061000
      7 C7          6.7670   -1.5500   -0.1890 ca        1 S8Z     -0.085000
      8 C8          7.9180   -2.2730   -0.4900 ca        1 S8Z     -0.128000
      9 C9          8.5800   -2.9980    0.5000 ca        1 S8Z     -0.113000
     10 C10         8.0940   -2.9850    1.8110 ca        1 S8Z     -0.114000
     11 C11         6.9310   -2.2710    2.1200 ca        1 S8Z     -0.081000
     12 C12         8.7710   -3.7620    2.9160 c3        1 S8Z      0.180000
     13 C13        10.2130   -4.2330    2.4940 c2        1 S8Z      0.020000
     14 N14        11.2780   -3.5240    2.4050 n2        1 S8Z     -0.106000
     15 C15        12.5470   -4.1260    2.1340 c3        1 S8Z     -0.144000
     16 C16        12.5920   -5.6880    1.9540 c3        1 S8Z      0.256000
     17 C17        11.3390   -6.4020    2.6090 c3        1 S8Z     -0.128000
     18 N18        10.1400   -5.6820    2.2650 n3        1 S8Z     -0.237000
     19 C19         8.8410   -6.0390    2.7670 c2        1 S8Z     -0.005000
     20 N20         8.0300   -5.0580    3.0980 n2        1 S8Z     -0.086000
     21 N21         8.4090   -7.4540    2.7400 n4        1 S8Z     -0.011000
     22 F22        12.7000   -6.0400    0.6280 f         1 S8Z     -0.141500
     23 F23        13.7380   -6.2180    2.5020 f         1 S8Z     -0.141500
     24 C24         8.8790   -2.9530    4.1860 ca        1 S8Z     -0.138000
     25 C25         8.4420   -3.4250    5.4300 ca        1 S8Z     -0.066500
     26 C26         8.5820   -2.6450    6.5720 ca        1 S8Z     -0.169000
     27 C27         9.1770   -1.3750    6.4680 ca        1 S8Z      0.109000
     28 C28         9.6140   -0.8880    5.2300 ca        1 S8Z     -0.169000
     29 C29         9.4550   -1.6770    4.0950 ca        1 S8Z     -0.066500
     30 O30         9.3370   -0.6990    7.6600 os        1 S8Z     -0.249000
     31 C31         9.4420    0.7230    7.5930 c3        1 S8Z      0.339000
     32 F32         9.1030    1.0850    8.8600 f         1 S8Z     -0.147000
     33 F33        10.7710    1.0000    7.4620 f         1 S8Z     -0.147000
     34 H11C       -0.6200    2.9570    2.0680 h1        1 S8Z      0.101667
     35 H12C       -0.0750    3.2370    0.3320 h1        1 S8Z      0.101667
     36 H13C       -1.1020    1.7710    0.7450 h1        1 S8Z      0.101667
     37 H31C        3.2110    0.3540    1.9240 ha        1 S8Z      0.275000
     38 H32C        1.1020    2.1000    3.2950 ha        1 S8Z      0.035000
     39 H7          6.2480   -0.9790   -0.9750 ha        1 S8Z      0.157000
     40 H11         6.5410   -2.2690    3.1510 ha        1 S8Z      0.154000
     41 H8          8.3110   -2.2720   -1.5180 ha        1 S8Z      0.149000
     42 H9          9.4850   -3.5640    0.2340 ha        1 S8Z      0.135000
     43 H151       12.9570   -3.6600    1.1890 h1        1 S8Z      0.164500
     44 H152       13.2370   -3.8530    2.9860 h1        1 S8Z      0.164500
     45 H171       11.5270   -6.4520    3.7190 h1        1 S8Z      0.117000
     46 H172       11.2860   -7.4460    2.1950 h1        1 S8Z      0.117000
     47 H211        8.4080   -7.7790    1.7630 hn        1 S8Z      0.278667
     48 H212        9.0600   -8.0210    3.2930 hn        1 S8Z      0.278667
     49 H25         7.9620   -4.4090    5.5380 ha        1 S8Z      0.147000
     50 H29         9.7900   -1.2920    3.1180 ha        1 S8Z      0.147000
     51 H26         8.2410   -3.0050    7.5540 ha        1 S8Z      0.163000
     52 H28        10.0980    0.0980    5.1520 ha        1 S8Z      0.163000
     53 H31         8.8020    1.1950    6.7960 h3        1 S8Z      0.144000
     54 H213        7.4580   -7.5370    3.1290 hn        1 S8Z      0.278667
@<TRIPOS>BOND
     1    1    2 1   
     2    1   34 1   
     3    1   35 1   
     4    1   36 1   
     5    2    3 1   
     6    3   38 1   
     7    4    5 1   
     8    4   37 1   
     9    5    6 1   
    10    6    7 1   
    11    6   11 1   
    12    7    8 1   
    13    7   39 1   
    14    8    9 1   
    15    8   41 1   
    16    9   10 1   
    17    9   42 1   
    18   10   11 1   
    19   10   12 1   
    20   11   40 1   
    21   12   13 1   
    22   12   20 1   
    23   12   24 1   
    24   13   14 1   
    25   13   18 1   
    26   14   15 1   
    27   15   16 1   
    28   15   43 1   
    29   15   44 1   
    30   16   17 1   
    31   16   22 1   
    32   16   23 1   
    33   17   18 1   
    34   17   45 1   
    35   17   46 1   
    36   18   19 1   
    37   19   20 1   
    38   19   21 1   
    39   21   47 1   
    40   21   48 1   
    41   21   54 1   
    42   24   25 1   
    43   24   29 1   
    44   25   26 1   
    45   25   49 1   
    46   26   27 1   
    47   26   51 1   
    48   27   28 1   
    49   27   30 1   
    50   28   29 1   
    51   28   52 1   
    52   29   50 1   
    53   30   31 1   
    54   31   32 1   
    55   31   33 1   
    56   31   53 1   
@<TRIPOS>SUBSTRUCTURE
     1 S8Z         1 TEMP              0 ****  ****    0 ROOT
