@<TRIPOS>MOLECULE
S8Z
   53    56     1     0     0
SMALL
bcc


@<TRIPOS>ATOM
      1 C1          8.4360    2.8970    0.7280 c3        1 S8Z      0.114700
      2 O2          7.3620    1.9900    0.9010 os        1 S8Z     -0.411600
      3 C3          6.2130    2.3660    0.1300 c3        1 S8Z      0.212500
      4 C4          5.1690    1.4080    0.3650 c1        1 S8Z     -0.121100
      5 C5          4.2860    0.6200    0.5490 cg        1 S8Z     -0.090000
      6 C6          3.2420   -0.3000    0.7600 ca        1 S8Z      0.017000
      7 C7          3.3720   -1.3030    1.7360 ca        1 S8Z     -0.097000
      8 C8          2.3390   -2.2140    1.9320 ca        1 S8Z     -0.139000
      9 C9          1.1720   -2.1400    1.1710 ca        1 S8Z     -0.102000
     10 C10         1.0260   -1.1340    0.2120 ca        1 S8Z     -0.077300
     11 C11         2.0670   -0.2240   -0.0020 ca        1 S8Z     -0.076000
     12 C12        -0.2090   -1.0270   -0.6570 c3        1 S8Z      0.223500
     13 C13        -1.3860   -1.9030   -0.0860 c2        1 S8Z      0.558200
     14 N14        -2.1010   -1.6730    0.9620 n2        1 S8Z     -0.586900
     15 C15        -3.2150   -2.5170    1.2730 c3        1 S8Z      0.071800
     16 C16        -3.4790   -3.7580    0.3450 c3        1 S8Z      0.373600
     17 C17        -2.8560   -3.5760   -1.0920 c3        1 S8Z      0.157800
     18 N18        -1.5380   -3.0160   -0.9930 nh        1 S8Z     -0.734600
     19 C19        -0.7240   -2.6940   -2.1530 c2        1 S8Z      0.751100
     20 N20         0.0680   -1.6360   -1.9870 n2        1 S8Z     -0.650900
     21 N21        -0.8320   -3.4600   -3.3290 nh        1 S8Z     -0.864800
     22 F22        -4.8320   -4.0030    0.2280 f         1 S8Z     -0.233300
     23 F23        -3.0280   -4.9230    0.9300 f         1 S8Z     -0.233300
     24 C24        -0.6860    0.4070   -0.7320 ca        1 S8Z     -0.111300
     25 C25        -0.9610    1.0440   -1.9480 ca        1 S8Z     -0.071000
     26 C26        -1.4110    2.3610   -1.9730 ca        1 S8Z     -0.170500
     27 C27        -1.5900    3.0500   -0.7630 ca        1 S8Z      0.130100
     28 C28        -1.3150    2.4310    0.4600 ca        1 S8Z     -0.170500
     29 C29        -0.8620    1.1140    0.4660 ca        1 S8Z     -0.071000
     30 O30        -2.0450    4.3530   -0.9200 os        1 S8Z     -0.379900
     31 C31        -2.2830    5.1910    0.1830 c3        1 S8Z      0.592700
     32 F32        -3.1940    4.6120    1.0160 f         1 S8Z     -0.243300
     33 F33        -1.1420    5.3220    0.9190 f         1 S8Z     -0.243300
     34 H11C        8.7630    2.9250   -0.3410 h1        1 S8Z      0.035033
     35 H12C        8.1470    3.9230    1.0650 h1        1 S8Z      0.035033
     36 H13C        9.2510    2.4860    1.3760 h1        1 S8Z      0.035033
     37 H31C        5.8770    3.3960    0.4440 h1        1 S8Z      0.046700
     38 H32C        6.4890    2.3840   -0.9620 h1        1 S8Z      0.046700
     39 H7          4.2920   -1.3650    2.3370 ha        1 S8Z      0.144000
     40 H11         1.9610    0.5560   -0.7730 ha        1 S8Z      0.153000
     41 H8          2.4430   -3.0030    2.6920 ha        1 S8Z      0.136000
     42 H9          0.3770   -2.8820    1.3360 ha        1 S8Z      0.141000
     43 H151       -3.0720   -2.9030    2.3230 h1        1 S8Z      0.096200
     44 H152       -4.1420   -1.8750    1.2560 h1        1 S8Z      0.096200
     45 H171       -2.7940   -4.5880   -1.5800 h1        1 S8Z      0.075200
     46 H172       -3.5630   -2.9310   -1.6860 h1        1 S8Z      0.075200
     47 H211       -0.9840   -4.4320   -3.1600 hn        1 S8Z      0.411800
     48 H212       -0.0920   -3.2880   -3.9780 hn        1 S8Z      0.411800
     49 H25        -0.8210    0.5250   -2.9090 ha        1 S8Z      0.154500
     50 H29        -0.6430    0.6240    1.4290 ha        1 S8Z      0.154500
     51 H26        -1.6270    2.8660   -2.9250 ha        1 S8Z      0.152000
     52 H28        -1.4520    2.9700    1.4090 ha        1 S8Z      0.152000
     53 H31        -2.6420    6.1680   -0.2620 h3        1 S8Z      0.125700
@<TRIPOS>BOND
     1    1    2 1   
     2    1   34 1   
     3    1   35 1   
     4    1   36 1   
     5    2    3 1   
     6    3    4 1   
     7    3   37 1   
     8    3   38 1   
     9    4    5 3   
    10    5    6 1   
    11    6    7 ar  
    12    6   11 ar  
    13    7    8 ar  
    14    7   39 1   
    15    8    9 ar  
    16    8   41 1   
    17    9   10 ar  
    18    9   42 1   
    19   10   11 ar  
    20   10   12 1   
    21   11   40 1   
    22   12   13 1   
    23   12   20 1   
    24   12   24 1   
    25   13   14 2   
    26   13   18 1   
    27   14   15 1   
    28   15   16 1   
    29   15   43 1   
    30   15   44 1   
    31   16   17 1   
    32   16   22 1   
    33   16   23 1   
    34   17   18 1   
    35   17   45 1   
    36   17   46 1   
    37   18   19 1   
    38   19   20 2   
    39   19   21 1   
    40   21   47 1   
    41   21   48 1   
    42   24   25 ar  
    43   24   29 ar  
    44   25   26 ar  
    45   25   49 1   
    46   26   27 ar  
    47   26   51 1   
    48   27   28 ar  
    49   27   30 1   
    50   28   29 ar  
    51   28   52 1   
    52   29   50 1   
    53   30   31 1   
    54   31   32 1   
    55   31   33 1   
    56   31   53 1   
@<TRIPOS>SUBSTRUCTURE
     1 S8Z         1 TEMP              0 ****  ****    0 ROOT
