@<TRIPOS>MOLECULE
S90
   53    55     1     0     0
SMALL
bcc


@<TRIPOS>ATOM
      1 F13        -0.0480   -0.0590    0.5110 f         1 S90     -0.136900
      2 C13         1.2970    0.0320    0.3810 ca        1 S90      0.166900
      3 C14         2.0790    0.1670    1.5420 ca        1 S90     -0.268000
      4 C15         3.4830    0.2590    1.4350 ca        1 S90      0.177600
      5 N17         4.2850    0.4540    2.5810 nh        1 S90     -0.639000
      6 C21         5.7080    0.3650    2.4470 cx        1 S90      0.137500
      7 C23         6.4490   -0.8740    1.9770 cx        1 S90     -0.134400
      8 C22         6.5950   -0.4170    3.3950 cx        1 S90     -0.134400
      9 C17         3.7140    0.2690    3.8760 c3        1 S90      0.210800
     10 C18         3.2300   -1.1830    4.1750 c3        1 S90      0.040800
     11 N18         2.0290   -1.2130    5.0610 n4        1 S90     -0.751000
     12 C19         1.5950   -2.5950    5.3680 c3        1 S90      0.078100
     13 C12         1.8870   -0.0190   -0.8900 ca        1 S90     -0.183000
     14 C11         3.2770    0.0740   -0.9950 ca        1 S90      0.001700
     15 C16         4.0670    0.2060    0.1490 ca        1 S90     -0.182000
     16 C09         3.9320    0.0150   -2.3330 c3        1 S90     -0.048100
     17 C08         4.4740    1.3730   -2.7450 c3        1 S90     -0.121700
     18 C06         5.2060    1.2860   -4.0580 ca        1 S90      0.439600
     19 N01         6.3830    0.6200   -4.0850 nb        1 S90     -0.743000
     20 C02         7.0380    0.5350   -5.2850 ca        1 S90      0.641200
     21 N02         8.2010   -0.2420   -5.3700 nh        1 S90     -0.928500
     22 C03         6.5290    1.1540   -6.4700 ca        1 S90     -0.296300
     23 C04         5.3220    1.8420   -6.4080 ca        1 S90      0.001700
     24 C07         4.7630    2.5050   -7.6090 c3        1 S90     -0.064800
     25 C05         4.6410    1.9100   -5.1840 ca        1 S90     -0.291300
     26 H14         1.5570    0.2410    2.5030 ha        1 S90      0.106000
     27 H12         1.2560   -0.1260   -1.7850 ha        1 S90      0.167000
     28 H16         5.1610    0.2730    0.0280 ha        1 S90      0.159000
     29 H21         6.0940    1.3500    2.0850 h1        1 S90      0.114700
     30 H171        2.8460    0.9860    3.9800 h1        1 S90      0.075700
     31 H172        4.4840    0.5450    4.6530 h1        1 S90      0.075700
     32 H231        7.2880   -0.7350    1.2710 hc        1 S90      0.083200
     33 H232        5.8910   -1.8040    1.7670 hc        1 S90      0.083200
     34 H221        7.5400    0.0560    3.7210 hc        1 S90      0.083200
     35 H222        6.1480   -1.0290    4.1980 hc        1 S90      0.083200
     36 H181        4.0520   -1.7610    4.6840 hx        1 S90      0.113700
     37 H182        2.9570   -1.7120    3.2160 hx        1 S90      0.113700
     38 H18         2.2430   -0.7170    5.9340 hn        1 S90      0.454300
     39 H191        1.3440   -3.1300    4.4120 hx        1 S90      0.111367
     40 H192        0.6880   -2.5590    6.0290 hx        1 S90      0.111367
     41 H193        2.4240   -3.1410    5.8940 hx        1 S90      0.111367
     42 H091        3.2010   -0.3440   -3.1050 hc        1 S90      0.072200
     43 H092        4.7720   -0.7310   -2.2960 hc        1 S90      0.072200
     44 H081        5.1650    1.7610   -1.9490 hc        1 S90      0.057700
     45 H082        3.6290    2.1040   -2.8430 hc        1 S90      0.057700
     46 H05         3.6860    2.4440   -5.1090 ha        1 S90      0.143000
     47 H021        8.6410   -0.4770   -4.5090 hn        1 S90      0.406800
     48 H022        8.8290    0.0440   -6.0870 hn        1 S90      0.406800
     49 H03         7.0790    1.0770   -7.4180 ha        1 S90      0.148000
     50 H071        3.6570    2.3490   -7.6650 hc        1 S90      0.053700
     51 H072        4.9600    3.6060   -7.5590 hc        1 S90      0.053700
     52 H073        5.2260    2.1070   -8.5450 hc        1 S90      0.053700
     53 H183        1.2630   -0.7100    4.5920 hn        1 S90      0.454300
@<TRIPOS>BOND
     1    1    2 1   
     2    2    3 ar  
     3    2   13 ar  
     4    3    4 ar  
     5    3   26 1   
     6    4    5 1   
     7    4   15 ar  
     8    5    6 1   
     9    5    9 1   
    10    6    7 1   
    11    6    8 1   
    12    6   29 1   
    13    7    8 1   
    14    7   32 1   
    15    7   33 1   
    16    8   34 1   
    17    8   35 1   
    18    9   10 1   
    19    9   30 1   
    20    9   31 1   
    21   10   11 1   
    22   10   36 1   
    23   10   37 1   
    24   11   12 1   
    25   11   38 1   
    26   11   53 1   
    27   12   39 1   
    28   12   40 1   
    29   12   41 1   
    30   13   14 ar  
    31   13   27 1   
    32   14   15 ar  
    33   14   16 1   
    34   15   28 1   
    35   16   17 1   
    36   16   42 1   
    37   16   43 1   
    38   17   18 1   
    39   17   44 1   
    40   17   45 1   
    41   18   19 ar  
    42   18   25 ar  
    43   19   20 ar  
    44   20   21 1   
    45   20   22 ar  
    46   21   47 1   
    47   21   48 1   
    48   22   23 ar  
    49   22   49 1   
    50   23   24 1   
    51   23   25 ar  
    52   24   50 1   
    53   24   51 1   
    54   24   52 1   
    55   25   46 1   
@<TRIPOS>SUBSTRUCTURE
     1 S90         1 TEMP              0 ****  ****    0 ROOT
