@<TRIPOS>MOLECULE
S90
   53    55     1     0     0
SMALL
bcc


@<TRIPOS>ATOM
      1 F13        -0.0470   -0.0910    0.4970 f         1 S90     -0.136900
      2 C13         1.2980    0.0110    0.3720 ca        1 S90      0.166900
      3 C14         2.0740    0.1540    1.5350 ca        1 S90     -0.268000
      4 C15         3.4780    0.2580    1.4330 ca        1 S90      0.177600
      5 N17         4.2740    0.4610    2.5820 nh        1 S90     -0.639000
      6 C21         5.6980    0.3850    2.4530 cx        1 S90      0.137500
      7 C23         6.4520   -0.8490    1.9880 cx        1 S90     -0.134400
      8 C22         6.5890   -0.3890    3.4060 cx        1 S90     -0.134400
      9 C17         3.7000    0.2730    3.8750 c3        1 S90      0.210800
     10 C18         3.2280   -1.1830    4.1740 c3        1 S90      0.040800
     11 N18         2.0240   -1.2220    5.0560 ny        1 S90     -0.751000
     12 C19         1.6010   -2.6080    5.3630 c3        1 S90      0.078100
     13 C12         1.8930   -0.0350   -0.8970 ca        1 S90     -0.183000
     14 C11         3.2830    0.0700   -0.9970 ca        1 S90      0.001700
     15 C16         4.0680    0.2090    0.1500 ca        1 S90     -0.182000
     16 C09         3.9430    0.0150   -2.3330 c3        1 S90     -0.048100
     17 C08         4.4740    1.3770   -2.7450 c3        1 S90     -0.121700
     18 C06         5.2120    1.2950   -4.0540 ca        1 S90      0.439600
     19 N01         6.3960    0.6410   -4.0750 nb        1 S90     -0.743000
     20 C02         7.0570    0.5610   -5.2730 ca        1 S90      0.641200
     21 N02         8.2280   -0.2040   -5.3510 nv        1 S90     -0.928500
     22 C03         6.5460    1.1720   -6.4610 ca        1 S90     -0.296300
     23 C04         5.3310    1.8480   -6.4050 ca        1 S90      0.001700
     24 C07         4.7700    2.5030   -7.6090 c3        1 S90     -0.064800
     25 C05         4.6450    1.9110   -5.1840 ca        1 S90     -0.291300
     26 H14         1.5490    0.2250    2.4950 ha        1 S90      0.106000
     27 H12         1.2660   -0.1480   -1.7940 ha        1 S90      0.167000
     28 H16         5.1610    0.2860    0.0320 ha        1 S90      0.159000
     29 H21         6.0770    1.3720    2.0920 h1        1 S90      0.114700
     30 H171        2.8260    0.9820    3.9750 h1        1 S90      0.075700
     31 H172        4.4650    0.5560    4.6550 h1        1 S90      0.075700
     32 H231        7.2920   -0.7040    1.2840 hc        1 S90      0.083200
     33 H232        5.9020   -1.7830    1.7770 hc        1 S90      0.083200
     34 H221        6.1440   -1.0030    4.2080 hc        1 S90      0.083200
     35 H222        7.5290    0.0930    3.7350 hc        1 S90      0.083200
     36 H181        2.9610   -1.7150    3.2140 hx        1 S90      0.113700
     37 H182        4.0530   -1.7540    4.6860 hx        1 S90      0.113700
     38 H18         1.2550   -0.7260    4.5850 hn        1 S90      0.454300
     39 H191        0.6910   -2.5790    6.0210 hx        1 S90      0.111367
     40 H192        2.4330   -3.1470    5.8910 hx        1 S90      0.111367
     41 H193        1.3570   -3.1460    4.4070 hx        1 S90      0.111367
     42 H091        4.7900   -0.7240   -2.2920 hc        1 S90      0.072200
     43 H092        3.2180   -0.3520   -3.1070 hc        1 S90      0.072200
     44 H081        3.6230    2.1000   -2.8470 hc        1 S90      0.057700
     45 H082        5.1580    1.7720   -1.9460 hc        1 S90      0.057700
     46 H05         3.6840    2.4350   -5.1130 ha        1 S90      0.143000
     47 H021        8.6670   -0.4330   -4.4880 hn        1 S90      0.406800
     48 H022        8.8550    0.0860   -6.0670 hn        1 S90      0.406800
     49 H03         7.1000    1.0990   -7.4070 ha        1 S90      0.148000
     50 H071        3.6680    2.3270   -7.6750 hc        1 S90      0.053700
     51 H072        4.9460    3.6070   -7.5560 hc        1 S90      0.053700
     52 H073        5.2480    2.1150   -8.5420 hc        1 S90      0.053700
     53 H183        2.2310   -0.7240    5.9290 hn        1 S90      0.454300
@<TRIPOS>BOND
     1    1    2 1   
     2    2    3 ar  
     3    2   13 ar  
     4    3    4 ar  
     5    3   26 1   
     6    4    5 1   
     7    4   15 ar  
     8    5    6 1   
     9    5    9 1   
    10    6    7 1   
    11    6    8 1   
    12    6   29 1   
    13    7    8 1   
    14    7   32 1   
    15    7   33 1   
    16    8   34 1   
    17    8   35 1   
    18    9   10 1   
    19    9   30 1   
    20    9   31 1   
    21   10   11 1   
    22   10   36 1   
    23   10   37 1   
    24   11   12 1   
    25   11   38 1   
    26   11   53 1   
    27   12   39 1   
    28   12   40 1   
    29   12   41 1   
    30   13   14 ar  
    31   13   27 1   
    32   14   15 ar  
    33   14   16 1   
    34   15   28 1   
    35   16   17 1   
    36   16   42 1   
    37   16   43 1   
    38   17   18 1   
    39   17   44 1   
    40   17   45 1   
    41   18   19 ar  
    42   18   25 ar  
    43   19   20 ar  
    44   20   21 1   
    45   20   22 ar  
    46   21   47 1   
    47   21   48 1   
    48   22   23 ar  
    49   22   49 1   
    50   23   24 1   
    51   23   25 ar  
    52   24   50 1   
    53   24   51 1   
    54   24   52 1   
    55   25   46 1   
@<TRIPOS>SUBSTRUCTURE
     1 S90         1 TEMP              0 ****  ****    0 ROOT
