@<TRIPOS>MOLECULE
S91
   47    68     1     0     0
SMALL
bcc


@<TRIPOS>ATOM
      1 C1          0.0000    0.0000    0.0000 DU        1 S91     -0.319000
      2 C2          1.3830    0.0000    0.0000 c2        1 S91      0.147000
      3 C3          2.0760    0.0000    1.1950 c3        1 S91     -0.003000
      4 C4          1.3810   -0.0010    2.3980 DU        1 S91      0.227000
      5 C5         -0.0090   -0.0070    2.3950 c3        1 S91     -0.221000
      6 C6         -0.6950   -0.0010    1.1960 c3        1 S91     -0.249000
      7 C7         -0.7520   -0.0000   -1.3060 c3        1 S91      0.019000
      8 C8         -1.0020   -1.4210   -1.7410 c2        1 S91      0.360000
      9 O1         -1.6610   -1.6670   -2.8850 o         1 S91     -0.387000
     10 O2         -0.6100   -2.3400   -1.0610 o         1 S91     -0.387000
     11 N1          2.1690    0.5370    5.8760 n2        1 S91     -0.250000
     12 C9          1.6970    1.1500    6.9550 c2        1 S91      0.334000
     13 C10         0.5250    1.9260    6.8380 c2        1 S91     -0.415000
     14 C11        -0.0830    2.0190    5.5810 c2        1 S91     -0.279000
     15 N2          0.4520    1.3770    4.5600 n7        1 S91     -0.004000
     16 C12         1.5560    0.6520    4.7080 c3        1 S91      0.257000
     17 O3          0.5740    2.6500    9.0540 o         1 S91     -0.172000
     18 N4          2.0780   -0.0010    3.6090 n7        1 S91     -0.201000
     19 N5         -1.2350    3.2400    7.9090 nz        1 S91      0.419000
     20 C14         6.1320   -0.6860    8.3570 c2        1 S91     -0.276000
     21 C15         5.2600   -1.0500    7.3480 c2        1 S91      0.072000
     22 C16         4.0020   -0.4840    7.2830 c2        1 S91     -0.150000
     23 C17         3.6120    0.4520    8.2330 DU        1 S91     -0.313000
     24 C18         4.4900    0.8110    9.2490 c2        1 S91     -0.238000
     25 C19         5.7490    0.2460    9.3040 DU        1 S91      0.139000
     26 C20         6.7030    0.6410   10.4010 c3        1 S91     -0.116000
     27 H2          1.5290    0.1830    1.0580 DU        1 S91     -0.048000
     28 H3          1.6580    0.4520    2.0870 DU        1 S91     -0.000000
     29 H5          0.5350   -0.0130    1.4580 DU        1 S91     -0.095000
     30 H6          0.3890   -0.0200    1.1960 DU        1 S91      0.107000
     31 H71        -0.7050   -0.0230   -0.2240 DU        1 S91      0.240000
     32 H72        -1.1650    0.0050   -0.3050 DU        1 S91      0.240000
     33 H11        -0.0940    1.8100    4.5180 DU        1 S91      0.286000
     34 HN3         1.9500    0.9640    7.2510 hn        1 S91      0.182000
     35 HN4         1.3850    0.5890    4.0250 DU        1 S91      0.192000
     36 HN51       -0.2860    2.9640    8.0670 hn        1 S91     -0.626000
     37 HN52       -0.6840    2.5940    7.3800 DU        1 S91      0.044500
     38 H16         3.0810    0.0870    7.2470 DU        1 S91      0.224000
     39 H18         3.4830    1.2030    9.1690 DU        1 S91      0.289000
     40 H201        6.1600    0.2530    9.5480 DU        1 S91     -0.077000
     41 H202        5.6950    1.0030   10.2380 DU        1 S91      0.016000
     42 H203        6.4610    0.3140   11.4060 hc        1 S91      0.009000
     43 N3          2.3410    1.0270    8.1700 n7        1 S91     -0.220000
     44 H14         6.4620    0.0970    9.0290 DU        1 S91      0.320000
     45 H53        -0.2420    3.1770    8.0150 DU        1 S91      0.044500
     46 C13        -0.0400    2.6260    8.0040 DU        1 S91      0.758000
     47 H15         5.5600   -1.7880    6.6140 ha        1 S91      0.121000
@<TRIPOS>BOND
     1    1    2 1   
     2    1    6 1   
     3    1    7 1   
     4    1   30 1   
     5    1   31 1   
     6    1   32 1   
     7    2    3 1   
     8    2   27 1   
     9    3    4 1   
    10    3   27 1   
    11    3   28 1   
    12    4    5 1   
    13    4   18 1   
    14    4   28 1   
    15    4   29 1   
    16    5    6 1   
    17    5   29 1   
    18    5   30 1   
    19    6   29 1   
    20    6   30 1   
    21    7    8 1   
    22    7   31 1   
    23    7   32 1   
    24    8    9 1   
    25    8   10 1   
    26   11   12 1   
    27   11   16 1   
    28   12   13 1   
    29   12   43 1   
    30   13   14 1   
    31   13   46 1   
    32   14   15 1   
    33   14   33 1   
    34   15   16 1   
    35   15   33 1   
    36   16   18 1   
    37   16   35 1   
    38   17   46 1   
    39   18   35 1   
    40   19   36 1   
    41   19   37 1   
    42   19   45 1   
    43   19   46 1   
    44   20   21 1   
    45   20   25 1   
    46   20   44 1   
    47   21   22 1   
    48   21   47 1   
    49   22   23 1   
    50   22   38 1   
    51   23   24 1   
    52   23   38 1   
    53   23   39 1   
    54   23   43 1   
    55   24   25 1   
    56   24   39 1   
    57   25   26 1   
    58   25   41 1   
    59   25   44 1   
    60   26   40 1   
    61   26   41 1   
    62   26   42 1   
    63   29   30 1   
    64   31   32 1   
    65   34   43 1   
    66   37   46 1   
    67   40   44 1   
    68   45   46 1   
@<TRIPOS>SUBSTRUCTURE
     1 S91         1 TEMP              0 ****  ****    0 ROOT
