@<TRIPOS>MOLECULE
S91
   46    48     1     0     0
SMALL
bcc


@<TRIPOS>ATOM
      1 C1         -5.0590    0.4270    0.7690 ca        1 S91     -0.003300
      2 C2         -4.2320    1.3480    1.4270 ca        1 S91     -0.133000
      3 C3         -2.8720    1.4180    1.1480 ca        1 S91     -0.131500
      4 C4         -2.3040    0.5630    0.1810 ca        1 S91      0.068600
      5 C5         -3.1330   -0.3550   -0.4940 ca        1 S91     -0.131500
      6 C6         -4.4890   -0.4160   -0.1980 ca        1 S91     -0.133000
      7 C7         -6.5000    0.3320    1.0900 c3        1 S91     -0.182100
      8 C8         -7.4080    0.3320   -0.1660 c         1 S91      0.919600
      9 O1         -7.3290   -0.6510   -0.9570 o         1 S91     -0.836300
     10 O2         -8.2020    1.3010   -0.3050 o         1 S91     -0.836300
     11 N1          1.3320    0.0370   -0.1510 nb        1 S91     -0.837000
     12 C9          2.2630   -0.9600   -0.1460 ca        1 S91      0.772200
     13 C10         1.8760   -2.3380    0.0210 ca        1 S91     -0.524200
     14 C11         0.4940   -2.5780    0.1880 ca        1 S91      0.512200
     15 N2         -0.4500   -1.6420    0.1730 nb        1 S91     -0.749000
     16 C12        -0.0040   -0.3270   -0.0230 ca        1 S91      0.934900
     17 O3          3.9980   -3.3440    0.5440 o         1 S91     -0.663100
     18 N4         -0.9290    0.6990   -0.1450 nh        1 S91     -0.692300
     19 N5          2.4650   -4.6580   -0.4700 n         1 S91     -0.675000
     20 C14         5.3040    3.2030   -0.6040 ca        1 S91     -0.151000
     21 C15         4.1780    2.8900   -1.3600 ca        1 S91     -0.117000
     22 C16         3.5870    1.6320   -1.2800 ca        1 S91     -0.121000
     23 C17         4.1250    0.6580   -0.4110 ca        1 S91      0.153600
     24 C18         5.2680    0.9840    0.3530 ca        1 S91     -0.170000
     25 C19         5.8550    2.2470    0.2550 ca        1 S91     -0.066300
     26 C20         7.0440    2.5730    1.0760 c3        1 S91     -0.050800
     27 H2         -4.6660    2.0300    2.1720 ha        1 S91      0.159500
     28 H3         -2.2480    2.1510    1.6820 ha        1 S91      0.122500
     29 H5         -2.7160   -1.0260   -1.2590 ha        1 S91      0.122500
     30 H6         -5.1630   -1.1030   -0.7460 ha        1 S91      0.159500
     31 H71        -6.6870   -0.6340    1.6290 hc        1 S91      0.041200
     32 H72        -6.8120    1.1750    1.7570 hc        1 S91      0.041200
     33 H11         0.1160   -3.6040    0.3680 h4        1 S91      0.021100
     34 HN3         4.2510   -1.3430   -0.0020 hn        1 S91      0.466800
     35 HN4        -0.5720    1.6310   -0.1050 hn        1 S91      0.445800
     36 HN51        1.6040   -4.7630   -0.9400 hn        1 S91      0.309500
     37 HN52        3.1080   -5.4080   -0.4680 hn        1 S91      0.309500
     38 H15         3.7450    3.6440   -2.0350 ha        1 S91      0.130000
     39 H16         2.7030    1.4090   -1.8950 ha        1 S91      0.155000
     40 H18         5.7100    0.2410    1.0360 ha        1 S91      0.135000
     41 H201        6.7230    2.9110    2.0940 hc        1 S91      0.041033
     42 H202        7.7040    1.6780    1.1980 hc        1 S91      0.041033
     43 H203        7.6430    3.3930    0.6080 hc        1 S91      0.041033
     44 C13         2.8460   -3.4430    0.0540 c         1 S91      0.711700
     45 N3          3.6090   -0.6530   -0.3490 nh        1 S91     -0.736300
     46 H14         5.7600    4.2010   -0.6790 ha        1 S91      0.126000
@<TRIPOS>BOND
     1    1    2 ar  
     2    1    6 ar  
     3    1    7 1   
     4    2    3 ar  
     5    2   27 1   
     6    3    4 ar  
     7    3   28 1   
     8    4    5 ar  
     9    4   18 1   
    10    5    6 ar  
    11    5   29 1   
    12    6   30 1   
    13    7    8 1   
    14    7   31 1   
    15    7   32 1   
    16    8    9 1   
    17    8   10 1   
    18   11   12 ar  
    19   11   16 ar  
    20   12   13 ar  
    21   12   45 1   
    22   13   14 ar  
    23   13   44 1   
    24   14   15 ar  
    25   14   33 1   
    26   15   16 ar  
    27   16   18 1   
    28   17   44 2   
    29   18   35 1   
    30   19   36 1   
    31   19   37 1   
    32   19   44 1   
    33   20   21 ar  
    34   20   25 ar  
    35   20   46 1   
    36   21   22 ar  
    37   21   38 1   
    38   22   23 ar  
    39   22   39 1   
    40   23   24 ar  
    41   23   45 1   
    42   24   25 ar  
    43   24   40 1   
    44   25   26 1   
    45   26   41 1   
    46   26   42 1   
    47   26   43 1   
    48   34   45 1   
@<TRIPOS>SUBSTRUCTURE
     1 S91         1 TEMP              0 ****  ****    0 ROOT
