@<TRIPOS>MOLECULE
S91
   46    39     1     0     0
SMALL
bcc


@<TRIPOS>ATOM
      1 C1         -2.0070   -0.9650   -5.3090 c1        1 S91      0.030900
      2 C2         -0.7500   -0.4730   -4.9960 c1        1 S91     -0.069500
      3 C3         -0.2700   -0.5630   -3.6900 c1        1 S91     -0.069500
      4 C4         -1.0510   -1.1460   -2.7030 c1        1 S91      0.040800
      5 C5         -2.3130   -1.6400   -3.0170 c1        1 S91     -0.050500
      6 C6         -2.7900   -1.5500   -4.3190 c1        1 S91     -0.094500
      7 C7         -2.5400   -0.8430   -6.7290 c3        1 S91     -0.216300
      8 C8         -2.1600   -2.0690   -7.5150 c         1 S91      0.919600
      9 O1         -3.0520   -2.8360   -7.9470 o         1 S91     -0.836300
     10 O2         -0.9490   -2.2900   -7.7920 o         1 S91     -0.836300
     11 N1         -0.0530   -0.6260    0.8050 n1        1 S91     -0.634800
     12 C9         -0.2910    0.1260    1.8960 c1        1 S91      0.306800
     13 C10        -1.1110    1.2170    1.8080 cg        1 S91     -0.343200
     14 C11        -1.6900    1.5420    0.6090 c1        1 S91      0.430300
     15 N2         -1.4510    0.7890   -0.4800 n1        1 S91     -0.551800
     16 C12        -0.6320   -0.2990   -0.3920 c1        1 S91      0.596600
     17 C13        -1.4410    2.0200    3.0530 c         1 S91      0.660300
     18 O3         -0.9750    1.6940    4.1300 o         1 S91     -0.662100
     19 N3          0.2230   -0.2800    3.1700 n3        1 S91     -0.572400
     20 N4         -0.5100   -1.3390   -1.3740 n3        1 S91     -0.526400
     21 N5         -2.3180    3.1420    2.9670 n         1 S91     -0.676000
     22 C14         4.3100   -0.2380    4.1400 c1        1 S91     -0.091500
     23 C15         3.7820   -1.2910    3.4130 c1        1 S91     -0.069500
     24 C16         2.4420   -1.2850    3.0550 c1        1 S91     -0.069500
     25 C17         1.6310   -0.2240    3.4250 c1        1 S91      0.125800
     26 C18         2.1610    0.8330    4.1540 c1        1 S91     -0.111500
     27 C19         3.4980    0.8260    4.5110 c1        1 S91     -0.032100
     28 C20         4.0960    2.0210    5.2310 c3        1 S91     -0.085000
     29 H2         -0.2010   -0.0660   -5.6900 ha        1 S91      0.091750
     30 H3          0.6260   -0.2160   -3.4690 ha        1 S91      0.091750
     31 H5         -2.8620   -2.0560   -2.3220 ha        1 S91      0.070500
     32 H6         -3.6880   -1.8490   -4.5270 ha        1 S91      0.068500
     33 H71        -2.1550   -0.0520   -7.1540 hc        1 S91      0.041700
     34 H72        -3.5180   -0.7590   -6.7060 hc        1 S91      0.041700
     35 H11        -2.2760    2.3200    0.5450 ha        1 S91      0.098500
     36 HN3        -0.3450   -0.5510    3.8220 hn        1 S91      0.465800
     37 HN4        -0.0860   -2.1300   -1.1590 hn        1 S91      0.446800
     38 HN51       -2.3930    3.7190    3.6710 hn        1 S91      0.308500
     39 HN52       -2.8260    3.2680    2.2170 hn        1 S91      0.308500
     40 H14         5.2580   -0.2430    4.3920 ha        1 S91      0.069500
     41 H15         4.3470   -2.0310    3.1540 ha        1 S91      0.091750
     42 H16         2.0720   -2.0240    2.5450 ha        1 S91      0.091750
     43 H18         1.5870    1.5840    4.4160 ha        1 S91      0.077500
     44 H201        3.7300    2.8460    4.8530 hc        1 S91      0.041367
     45 H202        5.0650    2.0150    5.1210 hc        1 S91      0.041367
     46 H203        3.8750    1.9720    6.1860 hc        1 S91      0.041367
@<TRIPOS>BOND
     1    1    6 3   
     2    1    7 1   
     3    2    3 3   
     4    2   29 1   
     5    3   30 1   
     6    4    5 3   
     7    4   20 1   
     8    5   31 1   
     9    6   32 1   
    10    7    8 1   
    11    7   33 1   
    12    7   34 1   
    13    8    9 1   
    14    8   10 1   
    15   11   16 3   
    16   12   13 3   
    17   12   19 1   
    18   13   17 1   
    19   14   15 3   
    20   14   35 1   
    21   16   20 1   
    22   17   18 2   
    23   17   21 1   
    24   19   25 1   
    25   19   36 1   
    26   20   37 1   
    27   21   38 1   
    28   21   39 1   
    29   22   27 3   
    30   22   40 1   
    31   23   24 3   
    32   23   41 1   
    33   24   42 1   
    34   25   26 3   
    35   26   43 1   
    36   27   28 1   
    37   28   44 1   
    38   28   45 1   
    39   28   46 1   
@<TRIPOS>SUBSTRUCTURE
     1 S91         1 TEMP              0 ****  ****    0 ROOT
