@<TRIPOS>MOLECULE
S91
   49    45     1     0     0
SMALL
bcc


@<TRIPOS>ATOM
      1 C1       -183.0140   38.9170 -213.6920 c2        1 S91     -0.358500
      2 C2       -183.4000   39.8590 -214.7110 c2        1 S91     -0.358500
      3 C3       -184.5730   39.9610 -215.2840 c1        1 S91      0.182500
      4 C4       -186.7900   39.9750 -215.8620 c2        1 S91      0.307000
      5 C5       -187.2140   40.3160 -214.5280 c2        1 S91     -0.556000
      6 C6       -187.4430   41.5270 -214.0290 c1        1 S91      0.385000
      7 C7       -181.8580   38.8510 -213.0540 c1        1 S91      0.182500
      8 C8       -189.6820   37.9230 -211.8230 c1        1 S91      0.431000
      9 O1       -190.2780   37.3770 -210.9580 o         1 S91     -0.214500
     10 O2       -189.0810   38.4710 -212.6990 o         1 S91     -0.214500
     11 N1       -186.0900   37.1770 -214.7730 n2        1 S91     -0.310000
     12 C9       -185.5040   36.0250 -214.9520 c2        1 S91      0.094000
     13 C10      -185.9390   35.0410 -215.9040 c2        1 S91     -0.464000
     14 C11      -187.1110   35.3040 -216.6730 c1        1 S91     -0.125000
     15 N2       -187.7340   36.4690 -216.5220 n3        1 S91     -0.255000
     16 C12      -187.2350   37.5260 -215.6200 c3        1 S91      0.123000
     17 O3       -184.2700   33.3270 -215.5200 o         1 S91     -0.289000
     18 N4       -186.9090   38.7800 -216.4140 n3        1 S91     -0.231000
     19 N5       -185.9530   32.8600 -217.0520 n4        1 S91     -0.148000
     20 C14       388.8270  -75.1740  458.7460 ca        1 S91      0.158000
     21 C15       388.2870  -76.4360  458.3830 ca        1 S91     -0.251000
     22 C16       389.0600  -77.5580  458.4310 ca        1 S91      0.049000
     23 C17       390.4690  -77.4920  458.8600 ca        1 S91     -0.080000
     24 C18       390.9730  -76.1510  459.2240 ca        1 S91      0.049000
     25 C19       390.1590  -75.0500  459.1600 ca        1 S91     -0.251000
     26 C20       391.1840  -72.4810  459.8770 c1        1 S91     -0.039000
     27 H2       -182.6110   40.5760 -215.0440 ha        1 S91      0.211000
     28 H3       -186.5140   40.8190 -216.5390 h4        1 S91      0.175000
     29 H5       -187.3710   39.4770 -213.7970 ha        1 S91      0.249000
     30 H6       -183.7770   38.1540 -213.4080 ha        1 S91      0.211000
     31 H71      -188.2140   41.4120 -211.8680 ha        1 S91      0.011500
     32 H72      -188.3860   40.7890 -212.0830 ha        1 S91      0.011500
     33 H11      -188.5860   36.6440 -217.0020 hn        1 S91      0.257000
     34 HN3      -184.6410   35.7970 -214.2910 h4        1 S91      0.170000
     35 HN4      -188.0880   37.8430 -214.9270 h3        1 S91      0.143000
     36 HN51     -186.2240   31.9960 -216.5840 hn        1 S91      0.254333
     37 HN52     -186.7920   33.3400 -217.4300 hn        1 S91      0.254333
     38 H16       388.6460  -78.5450  458.1500 ha        1 S91      0.187500
     39 H18       392.0280  -76.0640  459.5510 ha        1 S91      0.187500
     40 H201      390.5770  -73.9920  459.4540 ha        1 S91      0.239000
     41 H202      392.2200  -72.3350  460.2080 ha        1 S91      0.070500
     42 H203      390.5870  -71.5610  459.8480 ha        1 S91      0.070500
     43 N3        391.2820  -78.4990  458.9380 n2        1 S91     -0.008000
     44 H14       388.1790  -74.2760  458.6980 ha        1 S91      0.184000
     45 H42      -186.5770   38.6490 -217.3510 hn        1 S91      0.256000
     46 H53      -185.3040   32.6380 -217.8040 hn        1 S91      0.254333
     47 H32       390.9230  -79.4010  458.6870 hn        1 S91      0.196000
     48 C13      -185.2780   33.7990 -216.0450 c2        1 S91      0.359000
     49 H15       387.2310  -76.4930  458.0610 ha        1 S91      0.239000
@<TRIPOS>BOND
     1    1    2 1   
     2    1    7 1   
     3    1   30 1   
     4    2    3 1   
     5    2   27 1   
     6    4    5 1   
     7    4   18 1   
     8    4   28 1   
     9    5    6 1   
    10    5   29 1   
    11    8    9 1   
    12    8   10 1   
    13   11   12 1   
    14   11   16 1   
    15   12   13 1   
    16   12   34 1   
    17   13   14 1   
    18   13   48 1   
    19   14   15 1   
    20   15   16 1   
    21   15   33 1   
    22   16   18 1   
    23   16   35 1   
    24   17   48 1   
    25   18   45 1   
    26   19   36 1   
    27   19   37 1   
    28   19   46 1   
    29   19   48 1   
    30   20   21 1   
    31   20   25 1   
    32   20   44 1   
    33   21   22 1   
    34   21   49 1   
    35   22   23 1   
    36   22   38 1   
    37   23   24 1   
    38   23   43 1   
    39   24   25 1   
    40   24   39 1   
    41   25   40 1   
    42   26   41 1   
    43   26   42 1   
    44   31   32 1   
    45   43   47 1   
@<TRIPOS>SUBSTRUCTURE
     1 S91         1 TEMP              0 ****  ****    0 ROOT
