@<TRIPOS>MOLECULE
S94
   50    53     1     0     0
SMALL
bcc


@<TRIPOS>ATOM
      1 C18         1.6880   -1.2880    0.1510 ca        1 S94     -0.094000
      2 C23         4.4540    6.4880   13.5060 ca        1 S94     -0.134000
      3 C16         2.7820   -0.9650    0.9560 ca        1 S94     -0.118000
      4 C17         0.3940   -1.0190    0.5970 ca        1 S94     -0.118000
      5 C22         5.1110    6.7490   12.3040 ca        1 S94     -0.100000
      6 C24         3.2370    5.8040   13.5060 ca        1 S94     -0.100000
      7 C15         2.5830   -0.3740    2.2020 ca        1 S94     -0.109500
      8 C14         0.1910   -0.4280    1.8430 ca        1 S94     -0.109500
      9 C21         4.5590    6.3300   11.0940 ca        1 S94     -0.159000
     10 C25         2.6720    5.3680   12.3100 ca        1 S94     -0.159000
     11 C10         1.2860   -0.1000    2.6550 ca        1 S94     -0.113300
     12 C20         3.3420    5.6390   11.1070 ca        1 S94      0.087100
     13 C6          2.3960    3.9950    5.1970 c         1 S94      0.625100
     14 C4          2.8360    3.4140    8.4750 c3        1 S94     -0.131900
     15 C12         3.5360    5.7410    7.7650 c3        1 S94     -0.131900
     16 C3          1.9750    0.3290    5.1280 cx        1 S94     -0.108400
     17 C9          3.4480    2.9010    7.1750 c3        1 S94      0.053000
     18 C13         4.0890    5.1390    6.4790 c3        1 S94      0.053000
     19 C2          1.0400    0.5150    3.9640 cx        1 S94     -0.007400
     20 C1          1.9450    1.6630    4.4180 cx        1 S94     -0.011500
     21 C7          3.5020    4.7240    8.9040 c3        1 S94      0.144100
     22 N8          3.4370    3.8780    6.0970 n         1 S94     -0.371800
     23 N5          1.3690    2.8600    5.0450 ny        1 S94     -0.629800
     24 O11         2.2200    4.8910    4.3640 o         1 S94     -0.486100
     25 O19         2.6760    5.2580    9.9460 os        1 S94     -0.335900
     26 H1          1.8470   -1.7560   -0.8330 ha        1 S94      0.154000
     27 H3          3.8040   -1.1790    0.6070 ha        1 S94      0.151500
     28 H4         -0.4710   -1.2760   -0.0340 ha        1 S94      0.151500
     29 H6          2.7180    5.6050   14.4570 ha        1 S94      0.144500
     30 H7          3.4540   -0.1310    2.8290 ha        1 S94      0.129500
     31 H8         -0.8350   -0.2250    2.1880 ha        1 S94      0.129500
     32 H9          5.0690    6.5510   10.1460 ha        1 S94      0.139000
     33 H10         1.7120    4.8350   12.2950 ha        1 S94      0.139000
     34 H11         2.9850    2.6430    9.2750 hc        1 S94      0.079450
     35 H12         1.7330    3.5780    8.3660 hc        1 S94      0.079450
     36 H13         4.1880    6.6070    8.0580 hc        1 S94      0.079450
     37 H14         2.5040    6.1480    7.6020 hc        1 S94      0.079450
     38 H15         2.8860   -0.2910    5.0110 hc        1 S94      0.107700
     39 H16         1.5370    0.2250    6.1390 hc        1 S94      0.107700
     40 H17         2.9530    1.9410    6.8630 h1        1 S94      0.088200
     41 H18         4.5400    2.6620    7.3520 h1        1 S94      0.088200
     42 H19         3.9950    5.8830    5.6370 h1        1 S94      0.088200
     43 H20         5.1810    4.8830    6.6070 h1        1 S94      0.088200
     44 H21        -0.0440    0.5870    4.2070 hc        1 S94      0.100700
     45 H22         2.8010    1.9420    3.7570 hx        1 S94      0.155700
     46 H23         4.5440    4.5150    9.2700 h1        1 S94      0.071700
     47 H24         0.9590    2.6290    5.9540 hn        1 S94      0.459800
     48 H2          4.8940    6.8250   14.4570 ha        1 S94      0.147000
     49 H52         0.6290    3.2250    4.4250 hn        1 S94      0.459800
     50 H5          6.0670    7.2950   12.3060 ha        1 S94      0.144500
@<TRIPOS>BOND
     1    1    3 ar  
     2    1    4 ar  
     3    1   26 1   
     4    2    5 ar  
     5    2    6 ar  
     6    2   48 1   
     7    3    7 ar  
     8    3   27 1   
     9    4    8 ar  
    10    4   28 1   
    11    5    9 ar  
    12    5   50 1   
    13    6   10 ar  
    14    6   29 1   
    15    7   11 ar  
    16    7   30 1   
    17    8   11 ar  
    18    8   31 1   
    19    9   12 ar  
    20    9   32 1   
    21   10   12 ar  
    22   10   33 1   
    23   11   19 1   
    24   12   25 1   
    25   13   22 1   
    26   13   23 1   
    27   13   24 2   
    28   14   17 1   
    29   14   21 1   
    30   14   34 1   
    31   14   35 1   
    32   15   18 1   
    33   15   21 1   
    34   15   36 1   
    35   15   37 1   
    36   16   19 1   
    37   16   20 1   
    38   16   38 1   
    39   16   39 1   
    40   17   22 1   
    41   17   40 1   
    42   17   41 1   
    43   18   22 1   
    44   18   42 1   
    45   18   43 1   
    46   19   20 1   
    47   19   44 1   
    48   20   23 1   
    49   20   45 1   
    50   21   25 1   
    51   21   46 1   
    52   23   47 1   
    53   23   49 1   
@<TRIPOS>SUBSTRUCTURE
     1 S94         1 TEMP              0 ****  ****    0 ROOT
