@<TRIPOS>MOLECULE
S94
   50    53     1     0     0
SMALL
bcc


@<TRIPOS>ATOM
      1 C18         1.6130   -1.3230    0.1880 ca        1 S94     -0.094000
      2 C23         4.4790    6.4950   13.4970 ca        1 S94     -0.134000
      3 C16         2.7030   -1.0460    1.0140 ca        1 S94     -0.118000
      4 C17         0.3250   -0.9810    0.5990 ca        1 S94     -0.118000
      5 C22         5.1750    6.7020   12.3070 ca        1 S94     -0.100000
      6 C24         3.2270    5.8760   13.4780 ca        1 S94     -0.100000
      7 C15         2.5060   -0.4280    2.2470 ca        1 S94     -0.109500
      8 C14         0.1240   -0.3610    1.8310 ca        1 S94     -0.109500
      9 C21         4.6300    6.2950   11.0900 ca        1 S94     -0.159000
     10 C25         2.6680    5.4520   12.2750 ca        1 S94     -0.159000
     11 C10         1.2150   -0.0790    2.6650 ca        1 S94     -0.113300
     12 C20         3.3780    5.6690   11.0850 ca        1 S94      0.087100
     13 C6          2.4790    3.9900    5.1760 c         1 S94      0.625100
     14 C4          2.8140    3.4350    8.4720 c3        1 S94     -0.131900
     15 C12         3.6520    5.7120    7.7470 c3        1 S94     -0.131900
     16 C3          1.8670    0.3500    5.1480 cx        1 S94     -0.108400
     17 C9          3.4260    2.8710    7.1940 c3        1 S94      0.053000
     18 C13         4.2010    5.0620    6.4830 c3        1 S94      0.053000
     19 C2          0.9710    0.5680    3.9590 cx        1 S94     -0.007400
     20 C1          1.9250    1.6730    4.4190 cx        1 S94     -0.011500
     21 C7          3.5380    4.7140    8.8980 c3        1 S94      0.144100
     22 N8          3.4910    3.8320    6.1020 n         1 S94     -0.371800
     23 N5          1.3980    2.9080    5.0160 n4        1 S94     -0.629800
     24 O11         2.3700    4.8820    4.3280 o         1 S94     -0.486100
     25 O19         2.7190    5.3060    9.9140 os        1 S94     -0.335900
     26 H1          1.7700   -1.8140   -0.7860 ha        1 S94      0.154000
     27 H3          3.7200   -1.3190    0.6940 ha        1 S94      0.151500
     28 H4         -0.5380   -1.2010   -0.0500 ha        1 S94      0.151500
     29 H6          2.6770    5.7190   14.4190 ha        1 S94      0.144500
     30 H7          3.3730   -0.2220    2.8920 ha        1 S94      0.129500
     31 H8         -0.8980   -0.1000    2.1480 ha        1 S94      0.129500
     32 H9          5.1720    6.4740   10.1520 ha        1 S94      0.139000
     33 H10         1.6800    4.9700   12.2450 ha        1 S94      0.139000
     34 H11         1.7240    3.6550    8.3350 hc        1 S94      0.079700
     35 H12         2.9040    2.6690    9.2850 hc        1 S94      0.079700
     36 H13         2.6460    6.1690    7.5540 hc        1 S94      0.079700
     37 H14         4.3410    6.5460    8.0430 hc        1 S94      0.079700
     38 H15         1.4010    0.2840    6.1490 hc        1 S94      0.107700
     39 H16         2.7470   -0.3190    5.0610 hc        1 S94      0.107700
     40 H17         2.8890    1.9340    6.8830 h1        1 S94      0.088200
     41 H18         4.5000    2.5780    7.3990 h1        1 S94      0.088200
     42 H19         5.2740    4.7520    6.6390 h1        1 S94      0.088200
     43 H20         4.1650    5.7970    5.6280 h1        1 S94      0.088200
     44 H21        -0.1140    0.6990    4.1740 hc        1 S94      0.100700
     45 H22         2.8100    1.8970    3.7760 hx        1 S94      0.155700
     46 H23         4.5590    4.4570    9.2910 h1        1 S94      0.071700
     47 H24         0.9560    2.7120    5.9180 hn        1 S94      0.459800
     48 H2          4.9140    6.8220   14.4530 ha        1 S94      0.147000
     49 H52         0.6920    3.3010    4.3730 hn        1 S94      0.459800
     50 H5          6.1590    7.1970   12.3240 ha        1 S94      0.144500
@<TRIPOS>BOND
     1    1    3 ar  
     2    1    4 ar  
     3    1   26 1   
     4    2    5 ar  
     5    2    6 ar  
     6    2   48 1   
     7    3    7 ar  
     8    3   27 1   
     9    4    8 ar  
    10    4   28 1   
    11    5    9 ar  
    12    5   50 1   
    13    6   10 ar  
    14    6   29 1   
    15    7   11 ar  
    16    7   30 1   
    17    8   11 ar  
    18    8   31 1   
    19    9   12 ar  
    20    9   32 1   
    21   10   12 ar  
    22   10   33 1   
    23   11   19 1   
    24   12   25 1   
    25   13   22 1   
    26   13   23 1   
    27   13   24 2   
    28   14   17 1   
    29   14   21 1   
    30   14   34 1   
    31   14   35 1   
    32   15   18 1   
    33   15   21 1   
    34   15   36 1   
    35   15   37 1   
    36   16   19 1   
    37   16   20 1   
    38   16   38 1   
    39   16   39 1   
    40   17   22 1   
    41   17   40 1   
    42   17   41 1   
    43   18   22 1   
    44   18   42 1   
    45   18   43 1   
    46   19   20 1   
    47   19   44 1   
    48   20   23 1   
    49   20   45 1   
    50   21   25 1   
    51   21   46 1   
    52   23   47 1   
    53   23   49 1   
@<TRIPOS>SUBSTRUCTURE
     1 S94         1 TEMP              0 ****  ****    0 ROOT
