@<TRIPOS>MOLECULE
S97
   57    60     1     0     0
SMALL
bcc


@<TRIPOS>ATOM
      1 C29         0.2350    0.3930   -0.7950 c3        1 S97     -0.066800
      2 C26         1.6910    0.3810   -0.5220 ca        1 S97      0.005700
      3 C27         2.1630    0.1680    0.7820 ca        1 S97     -0.288300
      4 C25         2.6100    0.5900   -1.5450 ca        1 S97     -0.294300
      5 C24         4.0070    0.5870   -1.2360 ca        1 S97      0.645200
      6 N28         4.9270    0.8960   -2.2470 nh        1 S97     -0.930500
      7 N23         4.4680    0.3630    0.0340 nb        1 S97     -0.752000
      8 C22         3.5490    0.1710    1.0090 ca        1 S97      0.434600
      9 C21         4.0490   -0.0350    2.4140 c3        1 S97     -0.118700
     10 C20         4.7160   -1.3910    2.5820 c3        1 S97     -0.047100
     11 C16         5.5670   -1.4230    3.8040 ca        1 S97     -0.053300
     12 C17         5.1700   -2.1350    4.9430 ca        1 S97     -0.081000
     13 C15         6.7870   -0.7410    3.8120 ca        1 S97     -0.119000
     14 C14         7.5950   -0.7620    4.9540 ca        1 S97     -0.195300
     15 C18         8.9010   -0.0520    4.9400 c3        1 S97      0.177100
     16 N19         8.6970    1.4290    5.1060 n4        1 S97     -0.845600
     17 C13         7.1920   -1.4700    6.0900 ca        1 S97     -0.101000
     18 C12         5.9780   -2.1660    6.0860 ca        1 S97     -0.055300
     19 C11         5.5510   -2.9170    7.3000 c3        1 S97     -0.047100
     20 C10         6.4150   -4.1470    7.5230 c3        1 S97     -0.118700
     21 C07         6.0450   -4.8520    8.8000 ca        1 S97      0.410600
     22 N06         6.2910   -4.2210    9.9670 nb        1 S97     -0.687000
     23 C05         5.9450   -4.9210   11.0850 ca        1 S97      0.425800
     24 N01         6.0790   -4.5260   12.4250 na        1 S97     -0.293100
     25 C02         5.5990   -5.5590   13.2340 cc        1 S97     -0.091100
     26 C03         5.1480   -6.6220   12.4570 cd        1 S97     -0.176200
     27 C04         5.3500   -6.2560   11.0780 ca        1 S97     -0.187100
     28 C09         5.1210   -6.8550    9.8410 ca        1 S97     -0.040000
     29 C08         5.4700   -6.1490    8.6990 ca        1 S97     -0.269300
     30 H291       -0.1960    1.3840   -0.5000 hc        1 S97      0.056033
     31 H292       -0.2830   -0.4030   -0.2060 hc        1 S97      0.056033
     32 H293        0.0240    0.2280   -1.8800 hc        1 S97      0.056033
     33 H27         1.4590    0.0020    1.6070 ha        1 S97      0.144000
     34 H25         2.2680    0.7650   -2.5740 ha        1 S97      0.150000
     35 H281        5.8780    0.6650   -2.0700 hn        1 S97      0.408800
     36 H282        4.6120    0.6800   -3.1650 hn        1 S97      0.408800
     37 H211        4.7780    0.7790    2.6720 hc        1 S97      0.049700
     38 H212        3.1860    0.0510    3.1270 hc        1 S97      0.049700
     39 H201        3.9300   -2.1900    2.6330 hc        1 S97      0.073700
     40 H202        5.3590   -1.6160    1.6870 hc        1 S97      0.073700
     41 H17         4.2120   -2.6820    4.9370 ha        1 S97      0.160000
     42 H15         7.1100   -0.2050    2.9050 ha        1 S97      0.141000
     43 H181        9.4330   -0.2070    3.9560 hx        1 S97      0.111700
     44 H182        9.5690   -0.4000    5.7800 hx        1 S97      0.111700
     45 H13         7.8290   -1.5020    6.9890 ha        1 S97      0.146000
     46 H191        8.0720    1.7720    4.3680 hn        1 S97      0.457133
     47 H192        9.5900    1.9230    5.0520 hn        1 S97      0.457133
     48 H111        5.6220   -2.2390    8.1930 hc        1 S97      0.071700
     49 H112        4.4770   -3.2300    7.2040 hc        1 S97      0.071700
     50 H101        6.2920   -4.8560    6.6620 hc        1 S97      0.055200
     51 H102        7.4970   -3.8470    7.5580 hc        1 S97      0.055200
     52 H08         5.3060   -6.5890    7.7060 ha        1 S97      0.141000
     53 H01         6.4650   -3.6740   12.7340 hn        1 S97      0.308700
     54 H02         5.6150   -5.4550   14.3220 h4        1 S97      0.175000
     55 H03         4.7220   -7.5560   12.8140 ha        1 S97      0.167000
     56 H09         4.6770   -7.8600    9.7770 ha        1 S97      0.148000
     57 H193        8.2580    1.6190    6.0120 hn        1 S97      0.457133
@<TRIPOS>BOND
     1    1    2 1   
     2    1   30 1   
     3    1   31 1   
     4    1   32 1   
     5    2    3 ar  
     6    2    4 ar  
     7    3    8 ar  
     8    3   33 1   
     9    4    5 ar  
    10    4   34 1   
    11    5    6 1   
    12    5    7 ar  
    13    6   35 1   
    14    6   36 1   
    15    7    8 ar  
    16    8    9 1   
    17    9   10 1   
    18    9   37 1   
    19    9   38 1   
    20   10   11 1   
    21   10   39 1   
    22   10   40 1   
    23   11   12 ar  
    24   11   13 ar  
    25   12   18 ar  
    26   12   41 1   
    27   13   14 ar  
    28   13   42 1   
    29   14   15 1   
    30   14   17 ar  
    31   15   16 1   
    32   15   43 1   
    33   15   44 1   
    34   16   46 1   
    35   16   47 1   
    36   16   57 1   
    37   17   18 ar  
    38   17   45 1   
    39   18   19 1   
    40   19   20 1   
    41   19   48 1   
    42   19   49 1   
    43   20   21 1   
    44   20   50 1   
    45   20   51 1   
    46   21   22 ar  
    47   21   29 ar  
    48   22   23 ar  
    49   23   24 1   
    50   23   27 ar  
    51   24   25 1   
    52   24   53 1   
    53   25   26 2   
    54   25   54 1   
    55   26   27 1   
    56   26   55 1   
    57   27   28 ar  
    58   28   29 ar  
    59   28   56 1   
    60   29   52 1   
@<TRIPOS>SUBSTRUCTURE
     1 S97         1 TEMP              0 ****  ****    0 ROOT
