@<TRIPOS>MOLECULE
S97
   57    60     1     0     0
SMALL
bcc


@<TRIPOS>ATOM
      1 C29         0.1990   -0.1000   -0.6620 c3        1 S97     -0.066800
      2 C26         1.6430    0.1380   -0.4330 ca        1 S97      0.005700
      3 C27         2.1900   -0.0190    0.8490 ca        1 S97     -0.290300
      4 C25         2.4790    0.5080   -1.4810 ca        1 S97     -0.295300
      5 C24         3.8720    0.7130   -1.2210 ca        1 S97      0.646200
      6 N28         4.7290    0.9870   -2.2930 nv        1 S97     -0.932500
      7 N23         4.4020    0.5780    0.0350 nb        1 S97     -0.750000
      8 C22         3.5640    0.2060    1.0310 ca        1 S97      0.435600
      9 C21         4.1460    0.0330    2.4090 c3        1 S97     -0.119700
     10 C20         4.8570   -1.3060    2.5270 c3        1 S97     -0.049100
     11 C16         5.6930   -1.3680    3.7580 ca        1 S97     -0.053300
     12 C17         5.2520   -2.0600    4.8930 ca        1 S97     -0.080000
     13 C15         6.9410   -0.7390    3.7790 ca        1 S97     -0.115000
     14 C14         7.7360   -0.7990    4.9300 ca        1 S97     -0.196300
     15 C18         9.0750   -0.1540    4.9310 c3        1 S97      0.177100
     16 N19         8.9490    1.3210    5.1970 nz        1 S97     -0.845600
     17 C13         7.2900   -1.4880    6.0610 ca        1 S97     -0.103000
     18 C12         6.0440   -2.1260    6.0450 ca        1 S97     -0.055300
     19 C11         5.5700   -2.8560    7.2550 c3        1 S97     -0.047100
     20 C10         6.3760   -4.1230    7.4900 c3        1 S97     -0.118700
     21 C07         5.9580   -4.8080    8.7630 ca        1 S97      0.410600
     22 N06         6.2170   -4.1880    9.9320 nb        1 S97     -0.688000
     23 C05         5.8260   -4.8700   11.0460 ca        1 S97      0.425800
     24 N01         5.9600   -4.4780   12.3870 na        1 S97     -0.293100
     25 C02         5.4250   -5.4890   13.1910 cc        1 S97     -0.091100
     26 C03         4.9370   -6.5320   12.4090 cd        1 S97     -0.176200
     27 C04         5.1730   -6.1770   11.0330 ca        1 S97     -0.187100
     28 C09         4.9340   -6.7680    9.7940 ca        1 S97     -0.040000
     29 C08         5.3280   -6.0790    8.6550 ca        1 S97     -0.269300
     30 H291       -0.4060    0.2870    0.1950 hc        1 S97      0.055700
     31 H292       -0.1500    0.4010   -1.5990 hc        1 S97      0.055700
     32 H293        0.0080   -1.1990   -0.7590 hc        1 S97      0.055700
     33 H27         1.5530   -0.3110    1.6940 ha        1 S97      0.143000
     34 H25         2.0790    0.6320   -2.4960 ha        1 S97      0.150000
     35 H281        4.2920    1.4320   -3.0670 hn        1 S97      0.409800
     36 H282        5.6330    1.3330   -2.0680 hn        1 S97      0.409800
     37 H211        4.8670    0.8640    2.6300 hc        1 S97      0.050700
     38 H212        3.3210    0.0930    3.1660 hc        1 S97      0.050700
     39 H201        4.0980   -2.1330    2.5320 hc        1 S97      0.074200
     40 H202        5.5140   -1.4650    1.6270 hc        1 S97      0.074200
     41 H17         4.2710   -2.5640    4.8760 ha        1 S97      0.160000
     42 H15         7.2970   -0.2160    2.8780 ha        1 S97      0.141000
     43 H181        9.7400   -0.5880    5.7320 hx        1 S97      0.111700
     44 H182        9.5810   -0.2710    3.9280 hx        1 S97      0.111700
     45 H13         7.9170   -1.5520    6.9650 ha        1 S97      0.145000
     46 H191        8.5270    1.4720    6.1190 hn        1 S97      0.456800
     47 H192        8.3380    1.7450    4.4910 hn        1 S97      0.456800
     48 H111        4.4840   -3.1200    7.1470 hc        1 S97      0.071200
     49 H112        5.6600   -2.1800    8.1480 hc        1 S97      0.071200
     50 H101        6.2310   -4.8270    6.6280 hc        1 S97      0.055200
     51 H102        7.4690   -3.8720    7.5380 hc        1 S97      0.055200
     52 H08         5.1580   -6.5130    7.6600 ha        1 S97      0.141000
     53 H01         6.3800   -3.6440   12.7010 hn        1 S97      0.308700
     54 H02         5.4310   -5.3830   14.2790 h4        1 S97      0.175000
     55 H03         4.4660   -7.4450   12.7620 ha        1 S97      0.167000
     56 H09         4.4470   -7.7520    9.7250 ha        1 S97      0.148000
     57 H193        9.8670    1.7710    5.1670 hn        1 S97      0.456800
@<TRIPOS>BOND
     1    1    2 1   
     2    1   30 1   
     3    1   31 1   
     4    1   32 1   
     5    2    3 ar  
     6    2    4 ar  
     7    3    8 ar  
     8    3   33 1   
     9    4    5 ar  
    10    4   34 1   
    11    5    6 1   
    12    5    7 ar  
    13    6   35 1   
    14    6   36 1   
    15    7    8 ar  
    16    8    9 1   
    17    9   10 1   
    18    9   37 1   
    19    9   38 1   
    20   10   11 1   
    21   10   39 1   
    22   10   40 1   
    23   11   12 ar  
    24   11   13 ar  
    25   12   18 ar  
    26   12   41 1   
    27   13   14 ar  
    28   13   42 1   
    29   14   15 1   
    30   14   17 ar  
    31   15   16 1   
    32   15   43 1   
    33   15   44 1   
    34   16   46 1   
    35   16   47 1   
    36   16   57 1   
    37   17   18 ar  
    38   17   45 1   
    39   18   19 1   
    40   19   20 1   
    41   19   48 1   
    42   19   49 1   
    43   20   21 1   
    44   20   50 1   
    45   20   51 1   
    46   21   22 ar  
    47   21   29 ar  
    48   22   23 ar  
    49   23   24 1   
    50   23   27 ar  
    51   24   25 1   
    52   24   53 1   
    53   25   26 2   
    54   25   54 1   
    55   26   27 1   
    56   26   55 1   
    57   27   28 ar  
    58   28   29 ar  
    59   28   56 1   
    60   29   52 1   
@<TRIPOS>SUBSTRUCTURE
     1 S97         1 TEMP              0 ****  ****    0 ROOT
