@<TRIPOS>MOLECULE
S98
   36    39     1     0     0
SMALL
bcc


@<TRIPOS>ATOM
      1 N2          0.0250    0.8660    0.1120 na        1 S98     -0.246300
      2 C3          1.3940    0.5990    0.0660 ca        1 S98     -0.037200
      3 C12         1.7580    0.0590    1.3680 ca        1 S98      0.083400
      4 N13         0.6200    0.0050    2.1890 nc        1 S98     -0.476100
      5 C1         -0.3900    0.4960    1.4190 cd        1 S98      0.452700
      6 N14        -1.7740    0.6150    1.8780 n4        1 S98     -0.708000
      7 C15        -2.6340   -0.5550    1.4050 c3        1 S98      0.247100
      8 C16        -4.0130   -0.3560    1.8360 cc        1 S98     -0.329400
      9 C11         3.0820   -0.3120    1.6450 ca        1 S98      0.011000
     10 C10         4.0310   -0.1430    0.6240 ca        1 S98      0.129400
     11 C5          3.6520    0.3900   -0.6530 ca        1 S98     -0.123600
     12 C6          4.6850    0.5530   -1.7030 c         1 S98      0.720100
     13 O21         4.4920    0.9950   -2.8370 o         1 S98     -0.512500
     14 N7          6.0080    0.1640   -1.3610 n         1 S98     -0.506400
     15 C8          6.2500   -0.3410   -0.0800 cc        1 S98      0.544800
     16 N22         7.6620   -0.7410    0.2450 n4        1 S98     -0.802600
     17 N9          5.3640   -0.5060    0.8840 nd        1 S98     -0.550100
     18 C4          2.3480    0.7640   -0.9480 ca        1 S98     -0.041000
     19 C121       -4.9280    0.4810    1.1850 cd        1 S98     -0.094000
     20 C13        -6.2100    0.4140    1.7810 cd        1 S98     -0.149000
     21 C14        -6.2210   -0.4770    2.8490 cc        1 S98     -0.123100
     22 S1         -4.7530   -1.1770    3.0950 ss        1 S98      0.190200
     23 HN2        -0.5250    1.2540   -0.6140 hn        1 S98      0.343700
     24 HN14       -2.1850    1.4980    1.5440 hn        1 S98      0.477800
     25 H15        -2.5510   -0.5810    0.2800 hx        1 S98      0.111700
     26 H15A       -2.1750   -1.4920    1.8350 hx        1 S98      0.111700
     27 H11         3.3550   -0.7210    2.6340 ha        1 S98      0.201000
     28 HN7         6.7240    0.2660   -2.0500 hn        1 S98      0.365500
     29 HN22        8.2800    0.0760    0.1580 hn        1 S98      0.490133
     30 HN2A        7.9670   -1.4820   -0.3990 hn        1 S98      0.490133
     31 H4          2.0900    1.1710   -1.9420 ha        1 S98      0.199000
     32 H111       -4.7040    1.0990    0.3120 ha        1 S98      0.158000
     33 H13        -7.0770    0.9860    1.4340 ha        1 S98      0.192000
     34 H151       -7.1060   -0.6990    3.4550 h4        1 S98      0.212000
     35 H142       -1.7770    0.6370    2.9120 hn        1 S98      0.477800
     36 H223        7.7100   -1.0960    1.2140 hn        1 S98      0.490133
@<TRIPOS>BOND
     1    1    2 1   
     2    1    5 1   
     3    1   23 1   
     4    2    3 ar  
     5    2   18 ar  
     6    3    4 1   
     7    3    9 ar  
     8    4    5 2   
     9    5    6 1   
    10    6    7 1   
    11    6   24 1   
    12    6   35 1   
    13    7    8 1   
    14    7   25 1   
    15    7   26 1   
    16    8   19 2   
    17    8   22 1   
    18    9   10 ar  
    19    9   27 1   
    20   10   11 ar  
    21   10   17 1   
    22   11   12 1   
    23   11   18 ar  
    24   12   13 2   
    25   12   14 1   
    26   14   15 1   
    27   14   28 1   
    28   15   16 1   
    29   15   17 2   
    30   16   29 1   
    31   16   30 1   
    32   16   36 1   
    33   18   31 1   
    34   19   20 1   
    35   19   32 1   
    36   20   21 2   
    37   20   33 1   
    38   21   22 1   
    39   21   34 1   
@<TRIPOS>SUBSTRUCTURE
     1 S98         1 TEMP              0 ****  ****    0 ROOT
