@<TRIPOS>MOLECULE
S98
   34    37     1     0     0
SMALL
bcc


@<TRIPOS>ATOM
      1 N2          0.4950   -0.8900   -0.1790 na        1 S98     -0.284300
      2 C3         -0.8700   -0.5360   -0.1670 ca        1 S98     -0.119200
      3 C12        -0.9250    0.9180   -0.0790 ca        1 S98      0.140400
      4 N13         0.3820    1.4460   -0.0990 nc        1 S98     -0.618100
      5 C1          1.2050    0.3620   -0.2190 cd        1 S98      0.610700
      6 N14         2.5990    0.4190   -0.4080 nh        1 S98     -0.773200
      7 C15         3.3850   -0.6630    0.1650 c3        1 S98      0.261100
      8 C16         4.8170   -0.3110    0.3100 cc        1 S98     -0.166400
      9 C11        -2.1490    1.5700    0.0180 ca        1 S98     -0.098000
     10 C10        -3.3300    0.7900    0.0180 ca        1 S98      0.199400
     11 C5         -3.2450   -0.6310   -0.0720 ca        1 S98     -0.201600
     12 C6         -4.4900   -1.4170   -0.0790 c         1 S98      0.720100
     13 O21        -4.5550   -2.6570   -0.1650 o         1 S98     -0.631500
     14 N7         -5.6910   -0.6990    0.0300 n         1 S98     -0.505400
     15 C8         -5.6790    0.7150    0.0890 cc        1 S98      0.654800
     16 N22        -6.9430    1.3660    0.0550 nh        1 S98     -0.881800
     17 N9         -4.5600    1.4450    0.1180 nd        1 S98     -0.673100
     18 C4         -2.0210   -1.3050   -0.1610 ca        1 S98     -0.048000
     19 C121        5.4180    0.1000    1.4880 cd        1 S98     -0.135000
     20 C13         6.8150    0.3350    1.3100 cd        1 S98     -0.159000
     21 C14         7.2060    0.0930    0.0090 cc        1 S98     -0.169100
     22 S1          5.9310   -0.3920   -0.9420 ss        1 S98      0.067200
     23 HN2         0.8290   -1.7080   -0.6240 hn        1 S98      0.294700
     24 HN14        2.9710    1.3310   -0.2160 hn        1 S98      0.429800
     25 H15         2.9880   -0.9770    1.1770 h1        1 S98      0.055200
     26 H15A        3.2820   -1.5500   -0.5290 h1        1 S98      0.055200
     27 H11        -2.1990    2.6670    0.0910 ha        1 S98      0.168000
     28 HN7        -6.5490   -1.1980   -0.0440 hn        1 S98      0.335500
     29 HN22       -7.6280    0.9550    0.6520 hn        1 S98      0.409800
     30 HN2A       -6.8810    2.3580    0.1590 hn        1 S98      0.409800
     31 H4         -2.0040   -2.4040   -0.2210 ha        1 S98      0.162000
     32 H111        4.9040    0.2280    2.4430 ha        1 S98      0.157000
     33 H13         7.4740    0.6640    2.1170 ha        1 S98      0.158000
     34 H151        8.2210    0.2020   -0.3720 h4        1 S98      0.175000
@<TRIPOS>BOND
     1    1    2 1   
     2    1    5 1   
     3    1   23 1   
     4    2    3 ar  
     5    2   18 ar  
     6    3    4 1   
     7    3    9 ar  
     8    4    5 2   
     9    5    6 1   
    10    6    7 1   
    11    6   24 1   
    12    7    8 1   
    13    7   25 1   
    14    7   26 1   
    15    8   19 2   
    16    8   22 1   
    17    9   10 ar  
    18    9   27 1   
    19   10   11 ar  
    20   10   17 1   
    21   11   12 1   
    22   11   18 ar  
    23   12   13 2   
    24   12   14 1   
    25   14   15 1   
    26   14   28 1   
    27   15   16 1   
    28   15   17 2   
    29   16   29 1   
    30   16   30 1   
    31   18   31 1   
    32   19   20 1   
    33   19   32 1   
    34   20   21 2   
    35   20   33 1   
    36   21   22 1   
    37   21   34 1   
@<TRIPOS>SUBSTRUCTURE
     1 S98         1 TEMP              0 ****  ****    0 ROOT
