@<TRIPOS>MOLECULE
S98
   34    28     1     0     0
SMALL
bcc


@<TRIPOS>ATOM
      1 N2         -0.7440   -0.0810   -0.9970 n2        1 S98     -0.242000
      2 C3          0.6100   -0.1440   -0.9790 c1        1 S98     -0.074000
      3 C12         1.0090   -0.2620    0.3220 c1        1 S98      0.001000
      4 N13        -0.1010   -0.2730    1.1000 n1        1 S98     -0.191000
      5 C1         -1.1860   -0.1610    0.2870 c1        1 S98      0.132000
      6 N14        -2.4630   -0.2730    0.8950 n2        1 S98     -0.258000
      7 C15        -3.1710    0.8980    1.2810 c3        1 S98      0.017000
      8 C16        -4.5820    0.5260    1.6790 c2        1 S98     -0.429000
      9 C11         2.3810   -0.3460    0.6340 c1        1 S98     -0.098000
     10 C10         3.3390   -0.3070   -0.3940 c1        1 S98      0.060000
     11 C5          2.9380   -0.1870   -1.7010 c1        1 S98     -0.181000
     12 C6          3.9670   -0.1590   -2.8030 c2        1 S98      0.357000
     13 O21         3.6130   -0.1020   -3.9640 o         1 S98     -0.356000
     14 N7          5.3290   -0.2740   -2.4910 n         1 S98     -0.345000
     15 C8          5.7400   -0.4180   -1.1310 c2        1 S98      0.208000
     16 N22         7.1130   -0.5890   -0.8190 n3        1 S98     -0.320000
     17 N9          4.7590   -0.3740   -0.0720 n2        1 S98     -0.246000
     18 C4          1.5710   -0.1050   -2.0110 c1        1 S98     -0.049000
     19 C121       -5.4250    1.2480    2.6140 c1        1 S98     -0.135000
     20 C13        -6.8940    0.6380    2.5370 c1        1 S98     -0.159000
     21 C14        -6.8930   -0.4330    1.5590 c1        1 S98     -0.439000
     22 S1         -5.4570   -0.5510    0.9830 ss        1 S98      0.606000
     23 HN2        -1.2670   -0.0000   -1.7400 DU        1 S98      0.183750
     24 HN14       -2.8240   -1.0960    1.0500 hn        1 S98      0.225000
     25 H15        -3.1990    1.5260    0.5290 h1        1 S98      0.095000
     26 H15A       -2.7180    1.3190    2.0410 h1        1 S98      0.095000
     27 H11         2.6660   -0.4280    1.5640 ha        1 S98      0.168000
     28 HN7         5.9540   -0.2280   -3.1540 hn        1 S98      0.249000
     29 HN22        7.7350   -0.6100   -1.4890 hn        1 S98      0.205000
     30 HN2A        7.3760   -0.6840    0.0510 hn        1 S98      0.205000
     31 H4          1.2860   -0.0070   -2.9390 ha        1 S98      0.162000
     32 H111       -5.1400    1.9820    3.1910 DU        1 S98      0.183750
     33 H13        -7.6640    0.9350    3.0590 DU        1 S98      0.183750
     34 H151       -7.6590   -0.9830    1.3080 DU        1 S98      0.183750
@<TRIPOS>BOND
     1    1    2 1   
     2    1    5 1   
     3    2    3 1   
     4    4    5 1   
     5    6    7 1   
     6    6   24 1   
     7    7    8 1   
     8    7   25 1   
     9    7   26 1   
    10    8   19 1   
    11    8   22 1   
    12    9   10 1   
    13    9   27 1   
    14   10   17 1   
    15   11   12 1   
    16   11   18 1   
    17   12   13 1   
    18   12   14 1   
    19   14   15 1   
    20   14   28 1   
    21   15   16 1   
    22   15   17 1   
    23   16   29 1   
    24   16   30 1   
    25   18   31 1   
    26   19   20 1   
    27   20   21 1   
    28   21   22 1   
@<TRIPOS>SUBSTRUCTURE
     1 S98         1 TEMP              0 ****  ****    0 ROOT
