@<TRIPOS>MOLECULE
S98
   35    38     1     0     0
SMALL
bcc


@<TRIPOS>ATOM
      1 N2         -0.0320   -0.2450   -0.0430 na        1 S98     -0.294300
      2 C3          1.3620   -0.1800   -0.0300 ca        1 S98     -0.071200
      3 C12         1.7530   -0.1000    1.3770 ca        1 S98      0.143400
      4 N13         0.6220   -0.1300    2.1950 nc        1 S98     -0.617100
      5 C1         -0.4490   -0.2430    1.3270 cd        1 S98      0.672700
      6 N14        -1.7690   -0.4180    1.7070 nu        1 S98     -0.792200
      7 C15        -2.8390   -0.1000    0.7780 c3        1 S98      0.284100
      8 C16        -4.1460    0.0470    1.4570 cc        1 S98     -0.199400
      9 C11         3.1040   -0.0030    1.7220 ca        1 S98     -0.042000
     10 C10         4.0530    0.0110    0.6820 ca        1 S98      0.120400
     11 C5          3.6470   -0.0700   -0.6890 ca        1 S98     -0.172600
     12 C6          4.6650   -0.0540   -1.7510 c         1 S98      0.730100
     13 O21         4.4660   -0.1160   -2.9690 o         1 S98     -0.557500
     14 N7          6.0230    0.0430   -1.3320 ns        1 S98     -0.513400
     15 C8          6.2900    0.1150    0.0400 cc        1 S98      0.494800
     16 N22         7.7310    0.2160    0.4520 nz        1 S98     -0.798600
     17 N9          5.4100    0.1050    1.0210 nd        1 S98     -0.535100
     18 C4          2.3030   -0.1640   -1.0540 ca        1 S98     -0.045000
     19 C121       -4.6030    1.2100    2.0570 cd        1 S98     -0.125000
     20 C13        -5.9120    1.0420    2.5970 cd        1 S98     -0.157000
     21 C14        -6.3850   -0.2380    2.3810 cc        1 S98     -0.155100
     22 S1         -5.2830   -1.1780    1.5670 ss        1 S98      0.087200
     23 HN2        -0.6020   -0.4160   -0.8310 hn        1 S98      0.323700
     24 HN14       -1.9580   -0.2510    2.6760 hn        1 S98      0.463800
     25 H15        -2.8900   -0.9390    0.0220 h1        1 S98      0.055200
     26 H15A       -2.6120    0.8570    0.2190 h1        1 S98      0.055200
     27 H11         3.4050    0.0590    2.7800 ha        1 S98      0.181000
     28 HN7         6.7380    0.0560   -2.0240 hn        1 S98      0.346500
     29 HN22        8.2400   -0.6110    0.1210 hn        1 S98      0.478133
     30 HN2A        8.1430    1.0650    0.0510 hn        1 S98      0.478133
     31 H4          2.0210   -0.2220   -2.1180 ha        1 S98      0.177000
     32 H111       -4.0480    2.1500    2.1110 ha        1 S98      0.157000
     33 H13        -6.4570    1.8370    3.1110 ha        1 S98      0.166000
     34 H151       -7.3610   -0.6070    2.6970 h4        1 S98      0.184000
     35 H223        7.7930    0.2620    1.4800 hn        1 S98      0.478133
@<TRIPOS>BOND
     1    1    2 1   
     2    1    5 1   
     3    1   23 1   
     4    2    3 ar  
     5    2   18 ar  
     6    3    4 1   
     7    3    9 ar  
     8    4    5 2   
     9    5    6 1   
    10    6    7 1   
    11    6   24 1   
    12    7    8 1   
    13    7   25 1   
    14    7   26 1   
    15    8   19 2   
    16    8   22 1   
    17    9   10 ar  
    18    9   27 1   
    19   10   11 ar  
    20   10   17 1   
    21   11   12 1   
    22   11   18 ar  
    23   12   13 2   
    24   12   14 1   
    25   14   15 1   
    26   14   28 1   
    27   15   16 1   
    28   15   17 2   
    29   16   29 1   
    30   16   30 1   
    31   16   35 1   
    32   18   31 1   
    33   19   20 1   
    34   19   32 1   
    35   20   21 2   
    36   20   33 1   
    37   21   22 1   
    38   21   34 1   
@<TRIPOS>SUBSTRUCTURE
     1 S98         1 TEMP              0 ****  ****    0 ROOT
