@<TRIPOS>MOLECULE
S98
   35    38     1     0     0
SMALL
bcc


@<TRIPOS>ATOM
      1 N2         -0.0350   -0.2620   -0.0330 na        1 S98     -0.294300
      2 C3          1.3590   -0.1920   -0.0270 ca        1 S98     -0.071200
      3 C12         1.7570   -0.0840    1.3760 ca        1 S98      0.143400
      4 N13         0.6300   -0.1040    2.2000 nc        1 S98     -0.617100
      5 C1         -0.4440   -0.2360    1.3390 cd        1 S98      0.672700
      6 N14        -1.7620   -0.4090    1.7290 nh        1 S98     -0.792200
      7 C15        -2.8380   -0.1120    0.8000 c3        1 S98      0.284100
      8 C16        -4.1420    0.0440    1.4830 cc        1 S98     -0.199400
      9 C11         3.1100    0.0240    1.7120 ca        1 S98     -0.042000
     10 C10         4.0530    0.0220    0.6680 ca        1 S98      0.120400
     11 C5          3.6400   -0.0850   -0.7000 ca        1 S98     -0.172600
     12 C6          4.6530   -0.0850   -1.7670 c         1 S98      0.730100
     13 O21         4.4480   -0.1700   -2.9820 o         1 S98     -0.557500
     14 N7          6.0130    0.0250   -1.3570 n         1 S98     -0.513400
     15 C8          6.2870    0.1230    0.0120 cc        1 S98      0.494800
     16 N22         7.7300    0.2360    0.4150 n4        1 S98     -0.798600
     17 N9          5.4120    0.1270    0.9980 nd        1 S98     -0.535100
     18 C4          2.2960   -0.1910   -1.0560 ca        1 S98     -0.045000
     19 C121       -4.5990    1.2160    2.0640 cd        1 S98     -0.125000
     20 C13        -5.9050    1.0540    2.6130 cd        1 S98     -0.157000
     21 C14        -6.3750   -0.2310    2.4220 cc        1 S98     -0.155100
     22 S1         -5.2750   -1.1830    1.6190 ss        1 S98      0.087200
     23 HN2        -0.6080   -0.4490   -0.8140 hn        1 S98      0.323700
     24 HN14       -1.9470   -0.2250    2.6960 hn        1 S98      0.463800
     25 H15        -2.6170    0.8360    0.2220 h1        1 S98      0.055200
     26 H15A       -2.8900   -0.9650    0.0600 h1        1 S98      0.055200
     27 H11         3.4160    0.1060    2.7670 ha        1 S98      0.181000
     28 HN7         6.7240    0.0280   -2.0530 hn        1 S98      0.346500
     29 HN22        8.2400   -0.5950    0.0980 hn        1 S98      0.478133
     30 HN2A        7.7960    0.3020    1.4420 hn        1 S98      0.478133
     31 H4          2.0080   -0.2700   -2.1180 ha        1 S98      0.177000
     32 H111       -4.0470    2.1580    2.0990 ha        1 S98      0.157000
     33 H13        -6.4500    1.8560    3.1150 ha        1 S98      0.166000
     34 H151       -7.3490   -0.5970    2.7500 h4        1 S98      0.184000
     35 H223        8.1370    1.0790   -0.0040 hn        1 S98      0.478133
@<TRIPOS>BOND
     1    1    2 1   
     2    1    5 1   
     3    1   23 1   
     4    2    3 ar  
     5    2   18 ar  
     6    3    4 1   
     7    3    9 ar  
     8    4    5 2   
     9    5    6 1   
    10    6    7 1   
    11    6   24 1   
    12    7    8 1   
    13    7   25 1   
    14    7   26 1   
    15    8   19 2   
    16    8   22 1   
    17    9   10 ar  
    18    9   27 1   
    19   10   11 ar  
    20   10   17 1   
    21   11   12 1   
    22   11   18 ar  
    23   12   13 2   
    24   12   14 1   
    25   14   15 1   
    26   14   28 1   
    27   15   16 1   
    28   15   17 2   
    29   16   29 1   
    30   16   30 1   
    31   16   35 1   
    32   18   31 1   
    33   19   20 1   
    34   19   32 1   
    35   20   21 2   
    36   20   33 1   
    37   21   22 1   
    38   21   34 1   
@<TRIPOS>SUBSTRUCTURE
     1 S98         1 TEMP              0 ****  ****    0 ROOT
