@<TRIPOS>MOLECULE
S99
   50    45     1     0     0
SMALL
bcc


@<TRIPOS>ATOM
      1 CAI         6.0160    3.6090   -1.1210 c1        1 S99     -0.128000
      2 CAE         7.4010    3.6560   -1.1480 c1        1 S99     -0.125875
      3 CAC         8.1160    3.6910    0.0390 c1        1 S99     -0.125875
      4 CAF         7.4470    3.6800    1.2530 c1        1 S99     -0.125875
      5 CAJ         6.0610    3.6330    1.2800 c1        1 S99     -0.125875
      6 CAV         5.3450    3.5980    0.0920 c1        1 S99     -0.069000
      7 CAQ         3.8350    3.6660    0.1200 c3        1 S99     -0.124000
      8 CAO         3.2660    2.2640    0.0720 c3        1 S99     -0.155000
      9 CAM         1.7560    2.3300    0.1610 c3        1 S99     -0.158000
     10 CAN         1.1910    0.9270    0.1980 c3        1 S99     -0.157000
     11 CAP        -0.3200    0.9910    0.1570 c3        1 S99     -0.156000
     12 CAR        -0.8860   -0.4100    0.1970 c3        1 S99     -0.127000
     13 CAZ        -2.3810   -0.3560   -0.0280 c3        1 S99      0.295000
     14 OAA        -3.0030    0.2310    1.0880 oh        1 S99     -0.326000
     15 OXT        -2.6550    0.4120   -1.1760 oh        1 S99     -0.326000
     16 CAY        -2.9120   -1.7590   -0.2220 c2        1 S99     -0.073000
     17 NAT        -4.1530   -2.1960    0.1170 n2        1 S99     -0.141000
     18 OAU        -2.2580   -2.7850   -0.8350 os        1 S99     -0.101000
     19 CAL        -3.0860   -3.8410   -0.8730 c1        1 S99     -0.051000
     20 CAX        -4.2680   -3.4750   -0.2800 c2        1 S99     -0.089000
     21 CAW        -5.3620   -4.3010   -0.0640 c1        1 S99      0.054000
     22 CAK        -6.3960   -4.3380   -0.9870 c1        1 S99     -0.125875
     23 CAG        -7.4840   -5.1290   -0.7600 c1        1 S99     -0.125875
     24 CAD        -7.5530   -5.8830    0.3740 c1        1 S99     -0.125875
     25 CAH        -6.5190   -5.8450    1.2960 c1        1 S99     -0.125875
     26 NAS        -5.4320   -5.0550    1.0690 n1        1 S99     -0.146000
     27 HAI         5.5120    3.5840   -1.9580 ha        1 S99      0.131000
     28 HAE         7.8740    3.6640   -2.0030 ha        1 S99      0.141000
     29 HAC         9.0920    3.7240    0.0210 ha        1 S99      0.141000
     30 HAF         7.9510    3.7050    2.0890 ha        1 S99      0.141000
     31 HAJ         5.5890    3.6260    2.1350 ha        1 S99      0.141000
     32 HAQ1        3.5180    4.1740   -0.6530 hc        1 S99      0.087000
     33 HAQ2        3.5440    4.1080    0.9430 hc        1 S99      0.087000
     34 HAO1        3.6140    1.7440    0.8240 hc        1 S99      0.083500
     35 HAO2        3.5240    1.8360   -0.7690 hc        1 S99      0.083500
     36 HAM1        1.4980    2.8070    0.9750 hc        1 S99      0.081000
     37 HAM2        1.4040    2.8030   -0.6200 hc        1 S99      0.081000
     38 HAN1        1.5170    0.4230   -0.5740 hc        1 S99      0.079000
     39 HAN2        1.4760    0.4820    1.0220 hc        1 S99      0.079000
     40 HAP1       -0.6460    1.4970    0.9290 hc        1 S99      0.099000
     41 HAP2       -0.6050    1.4350   -0.6670 hc        1 S99      0.099000
     42 HAR1       -0.4690   -0.9490   -0.5040 hc        1 S99      0.106000
     43 HAR2       -0.7020   -0.8110    1.0710 hc        1 S99      0.106000
     44 HAL        -2.8820   -4.7150   -1.2560 DU        1 S99      0.221000
     45 HAK        -6.3450   -3.7980   -1.7980 ha        1 S99      0.141000
     46 HAG        -8.2130   -5.1550   -1.4100 ha        1 S99      0.141000
     47 HAD        -8.3310   -6.4490    0.5370 ha        1 S99      0.141000
     48 HAH        -6.5680   -6.3840    2.1070 ha        1 S99      0.141000
     49 HAA        -3.5840    0.8450    0.8150 ho        1 S99      0.218000
     50 HXT        -3.5340    0.4920   -1.2750 ho        1 S99      0.218000
@<TRIPOS>BOND
     1    1    6 1   
     2    1   27 1   
     3    2    3 1   
     4    2   28 1   
     5    3   29 1   
     6    4    5 1   
     7    4   30 1   
     8    5   31 1   
     9    6    7 1   
    10    7    8 1   
    11    7   32 1   
    12    7   33 1   
    13    8    9 1   
    14    8   34 1   
    15    8   35 1   
    16    9   10 1   
    17    9   36 1   
    18    9   37 1   
    19   10   11 1   
    20   10   38 1   
    21   10   39 1   
    22   11   12 1   
    23   11   40 1   
    24   11   41 1   
    25   12   13 1   
    26   12   42 1   
    27   12   43 1   
    28   13   14 1   
    29   13   15 1   
    30   13   16 1   
    31   14   49 1   
    32   15   50 1   
    33   16   17 1   
    34   16   18 1   
    35   17   20 1   
    36   18   19 1   
    37   19   20 1   
    38   20   21 1   
    39   21   26 1   
    40   22   23 1   
    41   22   45 1   
    42   23   46 1   
    43   24   25 1   
    44   24   47 1   
    45   25   48 1   
@<TRIPOS>SUBSTRUCTURE
     1 S99         1 TEMP              0 ****  ****    0 ROOT
