@<TRIPOS>MOLECULE
S99
   50    52     1     0     0
SMALL
bcc


@<TRIPOS>ATOM
      1 CAI        -0.1250    0.4790   -0.4410 ca        1 S99     -0.128000
      2 CAE         1.2560    0.5570   -0.6150 ca        1 S99     -0.128500
      3 CAC         2.1120    0.2890    0.4520 ca        1 S99     -0.134000
      4 CAF         1.5830   -0.0590    1.6960 ca        1 S99     -0.128500
      5 CAJ         0.2030   -0.1370    1.8710 ca        1 S99     -0.128000
      6 CAV        -0.6620    0.1310    0.8030 ca        1 S99     -0.076300
      7 CAQ        -2.1360    0.0540    0.9980 c3        1 S99     -0.038100
      8 CAO        -2.6150   -1.3820    1.1070 c3        1 S99     -0.076400
      9 CAM        -4.1090   -1.4400    1.3400 c3        1 S99     -0.079400
     10 CAN        -4.5910   -2.8710    1.4460 c3        1 S99     -0.078400
     11 CAP        -6.0850   -2.9270    1.6800 c3        1 S99     -0.077400
     12 CAR        -6.5610   -4.3580    1.7840 c3        1 S99     -0.048400
     13 CAZ        -8.0740   -4.4350    2.0230 c3        1 S99      0.344300
     14 OAA        -8.3890   -3.7290    3.2010 oh        1 S99     -0.598800
     15 OXT        -8.7390   -3.7720    0.9740 oh        1 S99     -0.598800
     16 CAY        -8.5450   -5.8730    2.1250 cc        1 S99      0.413700
     17 NAT        -9.7700   -6.3530    2.3270 nd        1 S99     -0.667000
     18 OAU        -7.5860   -6.8920    1.9940 os        1 S99     -0.359800
     19 CAL        -8.2940   -8.0790    2.1280 cc        1 S99      0.215300
     20 CAX        -9.6370   -7.7590    2.3330 cd        1 S99      0.174000
     21 CAW       -10.7450   -8.6910    2.5250 ca        1 S99      0.382300
     22 CAK       -12.0580   -8.2090    2.7220 ca        1 S99     -0.213300
     23 CAG       -13.0920   -9.1300    2.9030 ca        1 S99     -0.096000
     24 CAD       -12.8020  -10.4920    2.8840 ca        1 S99     -0.243300
     25 CAH       -11.4640  -10.8830    2.6810 ca        1 S99      0.399200
     26 NAS       -10.4500  -10.0220    2.5050 nb        1 S99     -0.672000
     27 HAI        -0.7960    0.6930   -1.2860 ha        1 S99      0.131000
     28 HAE         1.6700    0.8320   -1.5960 ha        1 S99      0.130000
     29 HAC         3.2010    0.3510    0.3150 ha        1 S99      0.130000
     30 HAF         2.2560   -0.2710    2.5390 ha        1 S99      0.130000
     31 HAJ        -0.2130   -0.4110    2.8520 ha        1 S99      0.131000
     32 HAQ1       -2.6640    0.5570    0.1440 hc        1 S99      0.047700
     33 HAQ2       -2.4150    0.6100    1.9330 hc        1 S99      0.047700
     34 HAO1       -2.0790   -1.8910    1.9520 hc        1 S99      0.044200
     35 HAO2       -2.3560   -1.9370    0.1680 hc        1 S99      0.044200
     36 HAM1       -4.6420   -0.9250    0.4980 hc        1 S99      0.041700
     37 HAM2       -4.3670   -0.8870    2.2810 hc        1 S99      0.041700
     38 HAN1       -4.0570   -3.3870    2.2870 hc        1 S99      0.039700
     39 HAN2       -4.3360   -3.4240    0.5030 hc        1 S99      0.039700
     40 HAP1       -6.3470   -2.3800    2.6250 hc        1 S99      0.059700
     41 HAP2       -6.6260   -2.4160    0.8400 hc        1 S99      0.059700
     42 HAR1       -6.0550   -4.8810    2.6360 hc        1 S99      0.066700
     43 HAR2       -6.3380   -4.9170    0.8390 hc        1 S99      0.066700
     44 HAL        -7.7150   -8.9950    2.0550 h4        1 S99      0.084100
     45 HAK       -12.2630   -7.1300    2.7330 ha        1 S99      0.160000
     46 HAG       -14.1230   -8.7780    3.0580 ha        1 S99      0.141000
     47 HAD       -13.5860  -11.2470    3.0220 ha        1 S99      0.146000
     48 HAH       -11.1860  -11.9530    2.6580 h4        1 S99      0.023100
     49 HAA        -9.3360   -3.8120    3.3730 ho        1 S99      0.419000
     50 HXT        -9.6930   -3.8570    1.1040 ho        1 S99      0.419000
@<TRIPOS>BOND
     1    1    2 ar  
     2    1    6 ar  
     3    1   27 1   
     4    2    3 ar  
     5    2   28 1   
     6    3    4 ar  
     7    3   29 1   
     8    4    5 ar  
     9    4   30 1   
    10    5    6 ar  
    11    5   31 1   
    12    6    7 1   
    13    7    8 1   
    14    7   32 1   
    15    7   33 1   
    16    8    9 1   
    17    8   34 1   
    18    8   35 1   
    19    9   10 1   
    20    9   36 1   
    21    9   37 1   
    22   10   11 1   
    23   10   38 1   
    24   10   39 1   
    25   11   12 1   
    26   11   40 1   
    27   11   41 1   
    28   12   13 1   
    29   12   42 1   
    30   12   43 1   
    31   13   14 1   
    32   13   15 1   
    33   13   16 1   
    34   14   49 1   
    35   15   50 1   
    36   16   17 2   
    37   16   18 1   
    38   17   20 1   
    39   18   19 1   
    40   19   20 2   
    41   19   44 1   
    42   20   21 1   
    43   21   22 ar  
    44   21   26 ar  
    45   22   23 ar  
    46   22   45 1   
    47   23   24 ar  
    48   23   46 1   
    49   24   25 ar  
    50   24   47 1   
    51   25   26 ar  
    52   25   48 1   
@<TRIPOS>SUBSTRUCTURE
     1 S99         1 TEMP              0 ****  ****    0 ROOT
