@<TRIPOS>MOLECULE
S99
   50    52     1     0     0
SMALL
bcc


@<TRIPOS>ATOM
      1 CAI        -7.8870    0.0190   -0.9120 ca        1 S99     -0.127500
      2 CAE        -8.9270    0.8890   -1.2350 ca        1 S99     -0.128000
      3 CAC        -9.1050    2.0680   -0.5110 ca        1 S99     -0.133000
      4 CAF        -8.2400    2.3740    0.5390 ca        1 S99     -0.128000
      5 CAJ        -7.2000    1.5050    0.8640 ca        1 S99     -0.127500
      6 CAV        -7.0150    0.3210    0.1410 ca        1 S99     -0.077300
      7 CAQ        -5.9090   -0.6090    0.4970 c3        1 S99     -0.037100
      8 CAO        -4.5580   -0.0640    0.0700 c3        1 S99     -0.076400
      9 CAM        -3.4420   -1.0050    0.4690 c3        1 S99     -0.079400
     10 CAN        -2.0940   -0.4660    0.0400 c3        1 S99     -0.078400
     11 CAP        -0.9790   -1.4080    0.4390 c3        1 S99     -0.079400
     12 CAR         0.3680   -0.8710    0.0130 c3        1 S99     -0.131400
     13 CAZ         1.4980   -1.8330    0.4150 c3        1 S99      0.345300
     14 OAA         1.5210   -2.1200    1.7940 oh        1 S99     -0.554800
     15 OXT         1.3230   -3.1340   -0.0990 oh        1 S99     -0.554800
     16 CAY         2.8170   -1.2400   -0.0390 cc        1 S99      0.417700
     17 NAT         3.5910   -0.3080    0.5070 nd        1 S99     -0.652000
     18 OAU         3.3410   -1.7350   -1.2490 os        1 S99     -0.383800
     19 CAL         4.5300   -1.0410   -1.4410 cc        1 S99      0.215300
     20 CAX         4.6930   -0.1640   -0.3690 cd        1 S99      0.174000
     21 CAW         5.7990    0.7640   -0.1500 ca        1 S99      0.382300
     22 CAK         5.8800    1.5080    1.0480 ca        1 S99     -0.211300
     23 CAG         6.9540    2.3830    1.2250 ca        1 S99     -0.097000
     24 CAD         7.9110    2.4980    0.2190 ca        1 S99     -0.243300
     25 CAH         7.7510    1.7180   -0.9430 ca        1 S99      0.399200
     26 NAS         6.7310    0.8690   -1.1410 nb        1 S99     -0.673000
     27 HAI        -7.7520   -0.9100   -1.4860 ha        1 S99      0.131000
     28 HAE        -9.6080    0.6450   -2.0640 ha        1 S99      0.130000
     29 HAC        -9.9260    2.7530   -0.7670 ha        1 S99      0.130000
     30 HAF        -8.3790    3.3020    1.1130 ha        1 S99      0.130000
     31 HAJ        -6.5190    1.7470    1.6940 ha        1 S99      0.131000
     32 HAQ1       -5.9070   -0.7730    1.6090 hc        1 S99      0.048700
     33 HAQ2       -6.0750   -1.6090    0.0150 hc        1 S99      0.048700
     34 HAO1       -4.5480    0.0850   -1.0420 hc        1 S99      0.044200
     35 HAO2       -4.3950    0.9410    0.5410 hc        1 S99      0.044200
     36 HAM1       -3.4520   -1.1530    1.5810 hc        1 S99      0.042700
     37 HAM2       -3.6110   -2.0110    0.0000 hc        1 S99      0.042700
     38 HAN1       -2.0840   -0.3180   -1.0720 hc        1 S99      0.039700
     39 HAN2       -1.9250    0.5390    0.5090 hc        1 S99      0.039700
     40 HAP1       -0.9820   -1.5610    1.5510 hc        1 S99      0.057200
     41 HAP2       -1.1400   -2.4170   -0.0280 hc        1 S99      0.057200
     42 HAR1        0.3960   -0.7310   -1.0980 hc        1 S99      0.060700
     43 HAR2        0.5570    0.1260    0.4890 hc        1 S99      0.060700
     44 HAL         5.0910   -1.2880   -2.3370 h4        1 S99      0.082100
     45 HAK         5.1140    1.3990    1.8280 ha        1 S99      0.162000
     46 HAG         7.0390    2.9730    2.1490 ha        1 S99      0.141000
     47 HAD         8.7690    3.1740    0.3200 ha        1 S99      0.145000
     48 HAH         8.4850    1.7750   -1.7670 h4        1 S99      0.023100
     49 HAA         1.5930   -1.2710    2.2520 ho        1 S99      0.424500
     50 HXT         1.3610   -3.0590   -1.0620 ho        1 S99      0.424500
@<TRIPOS>BOND
     1    1    2 ar  
     2    1    6 ar  
     3    1   27 1   
     4    2    3 ar  
     5    2   28 1   
     6    3    4 ar  
     7    3   29 1   
     8    4    5 ar  
     9    4   30 1   
    10    5    6 ar  
    11    5   31 1   
    12    6    7 1   
    13    7    8 1   
    14    7   32 1   
    15    7   33 1   
    16    8    9 1   
    17    8   34 1   
    18    8   35 1   
    19    9   10 1   
    20    9   36 1   
    21    9   37 1   
    22   10   11 1   
    23   10   38 1   
    24   10   39 1   
    25   11   12 1   
    26   11   40 1   
    27   11   41 1   
    28   12   13 1   
    29   12   42 1   
    30   12   43 1   
    31   13   14 1   
    32   13   15 1   
    33   13   16 1   
    34   14   49 1   
    35   15   50 1   
    36   16   17 2   
    37   16   18 1   
    38   17   20 1   
    39   18   19 1   
    40   19   20 2   
    41   19   44 1   
    42   20   21 1   
    43   21   22 ar  
    44   21   26 ar  
    45   22   23 ar  
    46   22   45 1   
    47   23   24 ar  
    48   23   46 1   
    49   24   25 ar  
    50   24   47 1   
    51   25   26 ar  
    52   25   48 1   
@<TRIPOS>SUBSTRUCTURE
     1 S99         1 TEMP              0 ****  ****    0 ROOT
