@<TRIPOS>MOLECULE
S99
   50    52     1     0     0
SMALL
bcc


@<TRIPOS>ATOM
      1 CAI        -0.1360    0.4900   -0.4500 ca        1 S99     -0.128000
      2 CAE         1.2430    0.5670   -0.6360 ca        1 S99     -0.128500
      3 CAC         2.1100    0.2850    0.4190 ca        1 S99     -0.134000
      4 CAF         1.5920   -0.0760    1.6640 ca        1 S99     -0.128500
      5 CAJ         0.2140   -0.1530    1.8520 ca        1 S99     -0.128000
      6 CAV        -0.6620    0.1290    0.7960 ca        1 S99     -0.076300
      7 CAQ        -2.1340    0.0530    1.0040 c3        1 S99     -0.038100
      8 CAO        -2.6150   -1.3830    1.1020 c3        1 S99     -0.076400
      9 CAM        -4.1070   -1.4400    1.3500 c3        1 S99     -0.079400
     10 CAN        -4.5910   -2.8720    1.4430 c3        1 S99     -0.078400
     11 CAP        -6.0820   -2.9260    1.6950 c3        1 S99     -0.077400
     12 CAR        -6.5610   -4.3570    1.7860 c3        1 S99     -0.048400
     13 CAZ        -8.0710   -4.4340    2.0430 c3        1 S99      0.344300
     14 OAA        -8.3700   -3.7420    3.2330 oh        1 S99     -0.598800
     15 OXT        -8.7480   -3.7560    1.0100 oh        1 S99     -0.598800
     16 CAY        -8.5450   -5.8720    2.1320 cc        1 S99      0.413700
     17 NAT        -9.7680   -6.3510    2.3440 nd        1 S99     -0.667000
     18 OAU        -7.5900   -6.8910    1.9750 os        1 S99     -0.359800
     19 CAL        -8.2990   -8.0790    2.1030 cc        1 S99      0.215300
     20 CAX        -9.6390   -7.7580    2.3300 cd        1 S99      0.174000
     21 CAW       -10.7460   -8.6890    2.5250 ca        1 S99      0.382300
     22 CAK       -12.0550   -8.2070    2.7460 ca        1 S99     -0.213300
     23 CAG       -13.0900   -9.1270    2.9290 ca        1 S99     -0.096000
     24 CAD       -12.8030  -10.4900    2.8870 ca        1 S99     -0.243300
     25 CAH       -11.4700  -10.8810    2.6610 ca        1 S99      0.399200
     26 NAS       -10.4560  -10.0210    2.4820 nb        1 S99     -0.672000
     27 HAI        -0.8150    0.7150   -1.2860 ha        1 S99      0.131000
     28 HAE         1.6480    0.8530   -1.6180 ha        1 S99      0.130000
     29 HAC         3.1970    0.3460    0.2720 ha        1 S99      0.130000
     30 HAF         2.2720   -0.2990    2.4980 ha        1 S99      0.130000
     31 HAJ        -0.1940   -0.4370    2.8340 ha        1 S99      0.131000
     32 HAQ1       -2.6690    0.5670    0.1610 hc        1 S99      0.047700
     33 HAQ2       -2.4020    0.5990    1.9490 hc        1 S99      0.047700
     34 HAO1       -2.0710   -1.9030    1.9340 hc        1 S99      0.044200
     35 HAO2       -2.3680   -1.9270    0.1530 hc        1 S99      0.044200
     36 HAM1       -4.6480   -0.9140    0.5190 hc        1 S99      0.041700
     37 HAM2       -4.3530   -0.8970    2.3000 hc        1 S99      0.041700
     38 HAN1       -4.0490   -3.3980    2.2720 hc        1 S99      0.039700
     39 HAN2       -4.3480   -3.4130    0.4910 hc        1 S99      0.039700
     40 HAP1       -6.3320   -2.3910    2.6490 hc        1 S99      0.059700
     41 HAP2       -6.6320   -2.4040    0.8680 hc        1 S99      0.059700
     42 HAR1       -6.0460   -4.8930    2.6250 hc        1 S99      0.066700
     43 HAR2       -6.3510   -4.9040    0.8310 hc        1 S99      0.066700
     44 HAL        -7.7240   -8.9950    2.0100 h4        1 S99      0.084100
     45 HAK       -12.2580   -7.1270    2.7750 ha        1 S99      0.160000
     46 HAG       -14.1170   -8.7750    3.1030 ha        1 S99      0.141000
     47 HAD       -13.5880  -11.2440    3.0260 ha        1 S99      0.146000
     48 HAH       -11.1950  -11.9510    2.6200 h4        1 S99      0.023100
     49 HAA        -9.3140   -3.8250    3.4160 ho        1 S99      0.419000
     50 HXT        -9.7000   -3.8400    1.1510 ho        1 S99      0.419000
@<TRIPOS>BOND
     1    1    2 ar  
     2    1    6 ar  
     3    1   27 1   
     4    2    3 ar  
     5    2   28 1   
     6    3    4 ar  
     7    3   29 1   
     8    4    5 ar  
     9    4   30 1   
    10    5    6 ar  
    11    5   31 1   
    12    6    7 1   
    13    7    8 1   
    14    7   32 1   
    15    7   33 1   
    16    8    9 1   
    17    8   34 1   
    18    8   35 1   
    19    9   10 1   
    20    9   36 1   
    21    9   37 1   
    22   10   11 1   
    23   10   38 1   
    24   10   39 1   
    25   11   12 1   
    26   11   40 1   
    27   11   41 1   
    28   12   13 1   
    29   12   42 1   
    30   12   43 1   
    31   13   14 1   
    32   13   15 1   
    33   13   16 1   
    34   14   49 1   
    35   15   50 1   
    36   16   17 2   
    37   16   18 1   
    38   17   20 1   
    39   18   19 1   
    40   19   20 2   
    41   19   44 1   
    42   20   21 1   
    43   21   22 ar  
    44   21   26 ar  
    45   22   23 ar  
    46   22   45 1   
    47   23   24 ar  
    48   23   46 1   
    49   24   25 ar  
    50   24   47 1   
    51   25   26 ar  
    52   25   48 1   
@<TRIPOS>SUBSTRUCTURE
     1 S99         1 TEMP              0 ****  ****    0 ROOT
