@<TRIPOS>MOLECULE
S9L
   27    26     1     0     0
SMALL
bcc


@<TRIPOS>ATOM
      1 O3P         1.9080    1.5080   -1.1300 o         1 S9L     -0.928167
      2 P           2.8900    0.8690   -0.1840 p5        1 S9L      1.309900
      3 O1P         2.2860    0.2060    1.0240 o         1 S9L     -0.928167
      4 O2P         4.1070    0.2290   -0.7850 o         1 S9L     -0.928167
      5 O5'         3.5850    2.3250    0.5160 os        1 S9L     -0.577200
      6 C12         2.7140    3.0250    1.3090 c3        1 S9L      0.200400
      7 C22         2.1460    4.2750    0.6140 c3        1 S9L      0.074400
      8 OH3         3.0090    5.4110    0.7890 os        1 S9L     -0.466600
      9 C13         4.7910    4.9110   -0.8230 c3        1 S9L      0.057400
     10 C23         3.6650    5.8430   -0.3890 c3        1 S9L      0.136400
     11 OH4         6.0110    5.3950   -0.2570 os        1 S9L     -0.454600
     12 C14         6.1890    3.8370    1.6320 c3        1 S9L      0.075400
     13 C24         6.8110    4.3910    0.3540 c3        1 S9L      0.110400
     14 O3'         5.6640    4.8770    2.4360 oh        1 S9L     -0.639800
     15 H121        3.2520    3.3750    2.2420 h1        1 S9L      0.004200
     16 H122        1.8420    2.3730    1.6080 h1        1 S9L      0.004200
     17 H221        1.9570    4.0590   -0.4680 h1        1 S9L      0.040700
     18 H222        1.1900    4.5910    1.1130 h1        1 S9L      0.040700
     19 H131        4.5600    3.8500   -0.5140 h1        1 S9L      0.087700
     20 H132        4.9230    4.9620   -1.9370 h1        1 S9L      0.087700
     21 H231        4.0750    6.8540   -0.1190 h1        1 S9L      0.020700
     22 H232        2.9270    5.9440   -1.2300 h1        1 S9L      0.020700
     23 H141        5.3870    3.0800    1.3830 h1        1 S9L      0.080700
     24 H142        6.9870    3.3550    2.2570 h1        1 S9L      0.080700
     25 H241        7.0000    3.5530   -0.3670 h1        1 S9L      0.028200
     26 H242        7.7710    4.9300    0.5770 h1        1 S9L      0.028200
     27 HO3'        4.8400    5.1540    2.0030 ho        1 S9L      0.433000
@<TRIPOS>BOND
     1    1    2 1   
     2    2    3 1   
     3    2    4 1   
     4    2    5 1   
     5    5    6 1   
     6    6    7 1   
     7    6   15 1   
     8    6   16 1   
     9    7    8 1   
    10    7   17 1   
    11    7   18 1   
    12    8   10 1   
    13    9   10 1   
    14    9   11 1   
    15    9   19 1   
    16    9   20 1   
    17   10   21 1   
    18   10   22 1   
    19   11   13 1   
    20   12   13 1   
    21   12   14 1   
    22   12   23 1   
    23   12   24 1   
    24   13   25 1   
    25   13   26 1   
    26   14   27 1   
@<TRIPOS>SUBSTRUCTURE
     1 S9L         1 TEMP              0 ****  ****    0 ROOT
