@<TRIPOS>MOLECULE
S9L
   27    26     1     0     0
SMALL
bcc


@<TRIPOS>ATOM
      1 O3P         1.9350   -1.4880   -1.2140 o         1 S9L     -0.928167
      2 P           3.2410   -0.9780   -0.6630 p5        1 S9L      1.308900
      3 O1P         4.4720   -1.6900   -1.1530 o         1 S9L     -0.928167
      4 O2P         3.3530    0.4980   -0.4170 o         1 S9L     -0.928167
      5 O5'         3.1030   -1.5910    0.9800 os        1 S9L     -0.577200
      6 C12         3.2270   -2.9530    1.0670 c3        1 S9L      0.202400
      7 C22         1.8800   -3.6590    1.3050 c3        1 S9L      0.076400
      8 OH3         1.6060   -3.8060    2.7080 os        1 S9L     -0.461600
      9 C13         0.8530   -1.4980    3.1530 c3        1 S9L      0.073400
     10 C23         0.5600   -2.9930    3.2020 c3        1 S9L      0.124400
     11 OH4         1.5770   -1.0780    4.3080 os        1 S9L     -0.463600
     12 C14         3.6260   -2.2520    4.7600 c3        1 S9L      0.094400
     13 C24         2.9900   -1.0190    4.1270 c3        1 S9L      0.075400
     14 O3'         3.2280   -2.4180    6.1160 oh        1 S9L     -0.645800
     15 H121        3.6710   -3.3710    0.1170 h1        1 S9L      0.002700
     16 H122        3.9030   -3.2170    1.9360 h1        1 S9L      0.002700
     17 H221        1.9310   -4.7200    0.9370 h1        1 S9L      0.038700
     18 H222        1.0580   -3.1150    0.7760 h1        1 S9L      0.038700
     19 H131       -0.1130   -0.9270    3.2200 h1        1 S9L      0.088700
     20 H132        1.3980   -1.2340    2.2000 h1        1 S9L      0.088700
     21 H231       -0.3840   -3.1960    2.6260 h1        1 S9L      0.012200
     22 H232        0.4320   -3.3330    4.2660 h1        1 S9L      0.012200
     23 H141        4.7400   -2.1470    4.7910 h1        1 S9L      0.056700
     24 H142        3.3370   -3.1660    4.1720 h1        1 S9L      0.056700
     25 H241        3.2760   -0.9540    3.0350 h1        1 S9L      0.088700
     26 H242        3.3040   -0.0910    4.6750 h1        1 S9L      0.088700
     27 HO3'        2.2700   -2.3010    6.1270 ho        1 S9L      0.403000
@<TRIPOS>BOND
     1    1    2 1   
     2    2    3 1   
     3    2    4 1   
     4    2    5 1   
     5    5    6 1   
     6    6    7 1   
     7    6   15 1   
     8    6   16 1   
     9    7    8 1   
    10    7   17 1   
    11    7   18 1   
    12    8   10 1   
    13    9   10 1   
    14    9   11 1   
    15    9   19 1   
    16    9   20 1   
    17   10   21 1   
    18   10   22 1   
    19   11   13 1   
    20   12   13 1   
    21   12   14 1   
    22   12   23 1   
    23   12   24 1   
    24   13   25 1   
    25   13   26 1   
    26   14   27 1   
@<TRIPOS>SUBSTRUCTURE
     1 S9L         1 TEMP              0 ****  ****    0 ROOT
