@<TRIPOS>MOLECULE
S9L
   27    26     1     0     0
SMALL
bcc


@<TRIPOS>ATOM
      1 O3P         1.9250    1.5030   -1.1480 o         1 S9L     -0.928167
      2 P           2.9050    0.8660   -0.1990 p5        1 S9L      1.309900
      3 O1P         2.2990    0.1960    1.0040 o         1 S9L     -0.928167
      4 O2P         4.1280    0.2330   -0.7970 o         1 S9L     -0.928167
      5 O5'         3.5910    2.3220    0.5080 os        1 S9L     -0.577200
      6 C12         2.7140    3.0160    1.3000 c3        1 S9L      0.200400
      7 C22         2.1440    4.2660    0.6070 c3        1 S9L      0.074400
      8 OH3         3.0010    5.4050    0.7890 os        1 S9L     -0.466600
      9 C13         4.7910    4.9180   -0.8170 c3        1 S9L      0.057400
     10 C23         3.6590    5.8440   -0.3840 c3        1 S9L      0.136400
     11 OH4         6.0080    5.4050   -0.2440 os        1 S9L     -0.454600
     12 C14         6.1840    3.8420    1.6410 c3        1 S9L      0.075400
     13 C24         6.8090    4.4020    0.3670 c3        1 S9L      0.110400
     14 O3'         5.6510    4.8770    2.4450 oh        1 S9L     -0.639800
     15 H121        3.2460    3.3650    2.2370 h1        1 S9L      0.004200
     16 H122        1.8430    2.3600    1.5930 h1        1 S9L      0.004200
     17 H221        1.9600    4.0520   -0.4770 h1        1 S9L      0.040700
     18 H222        1.1840    4.5760    1.1030 h1        1 S9L      0.040700
     19 H131        4.5640    3.8550   -0.5120 h1        1 S9L      0.087700
     20 H132        4.9280    4.9730   -1.9300 h1        1 S9L      0.087700
     21 H231        4.0640    6.8560   -0.1100 h1        1 S9L      0.020700
     22 H232        2.9250    5.9440   -1.2280 h1        1 S9L      0.020700
     23 H141        5.3860    3.0820    1.3860 h1        1 S9L      0.080700
     24 H142        6.9810    3.3610    2.2670 h1        1 S9L      0.080700
     25 H241        7.0040    3.5680   -0.3560 h1        1 S9L      0.028200
     26 H242        7.7660    4.9450    0.5960 h1        1 S9L      0.028200
     27 HO3'        4.8280    5.1520    2.0100 ho        1 S9L      0.433000
@<TRIPOS>BOND
     1    1    2 1   
     2    2    3 1   
     3    2    4 1   
     4    2    5 1   
     5    5    6 1   
     6    6    7 1   
     7    6   15 1   
     8    6   16 1   
     9    7    8 1   
    10    7   17 1   
    11    7   18 1   
    12    8   10 1   
    13    9   10 1   
    14    9   11 1   
    15    9   19 1   
    16    9   20 1   
    17   10   21 1   
    18   10   22 1   
    19   11   13 1   
    20   12   13 1   
    21   12   14 1   
    22   12   23 1   
    23   12   24 1   
    24   13   25 1   
    25   13   26 1   
    26   14   27 1   
@<TRIPOS>SUBSTRUCTURE
     1 S9L         1 TEMP              0 ****  ****    0 ROOT
