@<TRIPOS>MOLECULE
S9L
   27    26     1     0     0
SMALL
bcc


@<TRIPOS>ATOM
      1 O3P        -1.1630    5.4420    2.7080 o         1 S9L     -0.933167
      2 P          -0.6040    4.5210    3.7660 p5        1 S9L      1.312900
      3 O1P        -1.7360    3.9640    4.5970 o         1 S9L     -0.933167
      4 O2P         0.3410    5.2910    4.6560 o         1 S9L     -0.933167
      5 O5'         0.1750    3.3330    3.0730 os        1 S9L     -0.559200
      6 C12        -0.4280    2.6820    1.9790 c3        1 S9L      0.246400
      7 C22         0.3830    1.4610    1.6090 c3        1 S9L      0.072400
      8 OH3        -0.1790    0.8510    0.4710 os        1 S9L     -0.446600
      9 C13        -0.1990   -0.8940   -1.1570 c3        1 S9L      0.123400
     10 C23         0.4810   -0.3280    0.0700 c3        1 S9L      0.141400
     11 OH4         0.3610   -2.1490   -1.4670 os        1 S9L     -0.435600
     12 C14         0.6270   -3.9830   -2.9690 c3        1 S9L      0.122400
     13 C24        -0.1500   -2.7260   -2.6460 c3        1 S9L      0.135400
     14 O3'         0.0790   -4.5920   -4.1170 oh        1 S9L     -0.609800
     15 H121       -1.3370    2.4090    2.2220 h1        1 S9L     -0.009800
     16 H122       -0.4640    3.2940    1.2150 h1        1 S9L     -0.009800
     17 H221        1.3050    1.7280    1.4140 h1        1 S9L      0.039700
     18 H222        0.3780    0.8260    2.3550 h1        1 S9L      0.039700
     19 H131       -0.0700   -0.2840   -1.9130 h1        1 S9L      0.034200
     20 H132       -1.1570   -0.9980   -0.9810 h1        1 S9L      0.034200
     21 H231        1.4160   -0.1230   -0.1390 h1        1 S9L      0.023200
     22 H232        0.4450   -0.9850    0.7960 h1        1 S9L      0.023200
     23 H141        0.5730   -4.6040   -2.2130 h1        1 S9L      0.032700
     24 H142        1.5640   -3.7540   -3.1370 h1        1 S9L      0.032700
     25 H241       -1.0950   -2.9490   -2.5180 h1        1 S9L      0.032200
     26 H242       -0.0620   -2.0890   -3.3850 h1        1 S9L      0.032200
     27 HO3'        0.5170   -5.3460   -4.2900 ho        1 S9L      0.390000
@<TRIPOS>BOND
     1    1    2 1   
     2    2    3 1   
     3    2    4 1   
     4    2    5 1   
     5    5    6 1   
     6    6    7 1   
     7    6   15 1   
     8    6   16 1   
     9    7    8 1   
    10    7   17 1   
    11    7   18 1   
    12    8   10 1   
    13    9   10 1   
    14    9   11 1   
    15    9   19 1   
    16    9   20 1   
    17   10   21 1   
    18   10   22 1   
    19   11   13 1   
    20   12   13 1   
    21   12   14 1   
    22   12   23 1   
    23   12   24 1   
    24   13   25 1   
    25   13   26 1   
    26   14   27 1   
@<TRIPOS>SUBSTRUCTURE
     1 S9L         1 TEMP              0 ****  ****    0 ROOT
