@<TRIPOS>MOLECULE
SA0
   38    39     1     0     0
SMALL
bcc


@<TRIPOS>ATOM
      1 C1          0.4530    0.2930   -0.2130 c3        1 SA0      0.306900
      2 O1         -0.7870    0.4420    0.4590 os        1 SA0     -0.335900
      3 C2          1.2670    1.5650    0.0990 c3        1 SA0      0.085100
      4 O2          0.7780    2.6640   -0.6480 oh        1 SA0     -0.600800
      5 C3          2.7230    1.3470   -0.3350 c3        1 SA0      0.109100
      6 O3          3.5480    2.4110    0.1070 oh        1 SA0     -0.603800
      7 C4          3.2720    0.0690    0.3250 c3        1 SA0      0.122100
      8 O4          4.5510   -0.2430   -0.1960 oh        1 SA0     -0.593800
      9 C5          2.3530   -1.1190    0.0010 c3        1 SA0      0.104100
     10 O5          1.0140   -0.8460    0.4240 os        1 SA0     -0.440600
     11 C6          2.7780   -2.3730    0.7710 c3        1 SA0      0.142400
     12 O6          1.9690   -3.4750    0.4280 oh        1 SA0     -0.595800
     13 OAA        -4.5670    2.0910    0.5010 oh        1 SA0     -0.600800
     14 CAF        -4.0660   -1.7600   -0.8730 ca        1 SA0     -0.151000
     15 CAG        -2.7910   -2.3060   -1.0120 ca        1 SA0     -0.103000
     16 CAH        -4.2320   -0.4980   -0.3020 ca        1 SA0     -0.082000
     17 CAI        -1.6710   -1.5930   -0.5880 ca        1 SA0     -0.176000
     18 CAN        -3.1270    0.2390    0.1260 ca        1 SA0     -0.104300
     19 CAO        -1.8430   -0.3220   -0.0290 ca        1 SA0      0.109100
     20 H1          0.3310    0.1240   -1.3170 h2        1 SA0      0.070700
     21 H2          1.2150    1.7890    1.2000 h1        1 SA0      0.078700
     22 HO2        -0.1430    2.7900   -0.3820 ho        1 SA0      0.422000
     23 H3          2.7810    1.2650   -1.4560 h1        1 SA0      0.065700
     24 HO3         3.1680    3.2230   -0.2560 ho        1 SA0      0.428000
     25 H4          3.3370    0.2220    1.4380 h1        1 SA0      0.065700
     26 HO4         5.0990    0.5430   -0.0610 ho        1 SA0      0.426000
     27 H5          2.3610   -1.3220   -1.1060 h1        1 SA0      0.069700
     28 H6          3.8220   -2.6530    0.4650 h1        1 SA0      0.065700
     29 H6A         2.7320   -2.1780    1.8750 h1        1 SA0      0.065700
     30 HO6         1.0630   -3.2510    0.6800 ho        1 SA0      0.411000
     31 HOAA       -4.6380    2.9120    1.0020 ho        1 SA0      0.404000
     32 HAG        -2.6630   -3.3050   -1.4540 ha        1 SA0      0.137000
     33 HAH        -5.2390   -0.0640   -0.1900 ha        1 SA0      0.157000
     34 HAI        -0.6630   -2.0250   -0.6760 ha        1 SA0      0.151000
     35 HAJ        -2.4930    2.2840    0.3510 h1        1 SA0      0.033700
     36 HAJA       -3.1090    1.4840    1.8750 h1        1 SA0      0.033700
     37 HAF        -4.9470   -2.3260   -1.2110 ha        1 SA0      0.137000
     38 CAJ        -3.2680    1.5790    0.7650 c3        1 SA0      0.187700
@<TRIPOS>BOND
     1    1    2 1   
     2    1    3 1   
     3    1   10 1   
     4    1   20 1   
     5    2   19 1   
     6    3    4 1   
     7    3    5 1   
     8    3   21 1   
     9    4   22 1   
    10    5    6 1   
    11    5    7 1   
    12    5   23 1   
    13    6   24 1   
    14    7    8 1   
    15    7    9 1   
    16    7   25 1   
    17    8   26 1   
    18    9   10 1   
    19    9   11 1   
    20    9   27 1   
    21   11   12 1   
    22   11   28 1   
    23   11   29 1   
    24   12   30 1   
    25   13   31 1   
    26   13   38 1   
    27   14   15 ar  
    28   14   16 ar  
    29   14   37 1   
    30   15   17 ar  
    31   15   32 1   
    32   16   18 ar  
    33   16   33 1   
    34   17   19 ar  
    35   17   34 1   
    36   18   19 ar  
    37   18   38 1   
    38   35   38 1   
    39   36   38 1   
@<TRIPOS>SUBSTRUCTURE
     1 SA0         1 TEMP              0 ****  ****    0 ROOT
