@<TRIPOS>MOLECULE
SA1
   41    43     1     0     0
SMALL
bcc


@<TRIPOS>ATOM
      1 C1          3.6890    1.0910   -0.7040 c3        1 SA1      0.125400
      2 O2          2.3730    0.9860   -1.2620 os        1 SA1     -0.434600
      3 C3          1.7460   -0.2560   -0.8860 c3        1 SA1      0.161800
      4 C4          1.5640   -1.0620   -2.1530 c3        1 SA1     -0.097100
      5 C5          2.6780   -0.9390    0.1520 c3        1 SA1     -0.166700
      6 C6          1.9810   -0.7480    1.4950 c         1 SA1      0.691500
      7 O7          2.4550   -1.0290    2.6040 o         1 SA1     -0.602500
      8 N8          0.6910   -0.2440    1.3080 n         1 SA1     -0.543900
      9 C9          0.4170    0.0980   -0.0850 c3        1 SA1     -0.059600
     10 C10        -0.8200   -0.7010   -0.6050 c3        1 SA1      0.161100
     11 C11        -2.1200   -0.4790    0.1950 c3        1 SA1     -0.061500
     12 C12        -3.2070   -1.2790   -0.4460 c2        1 SA1     -0.177200
     13 C13        -4.4620   -0.8470   -0.5920 c2        1 SA1     -0.160200
     14 C14        -4.9190    0.4950   -0.1580 c3        1 SA1     -0.051200
     15 C15        -3.9380    1.1460    0.7960 c3        1 SA1     -0.073400
     16 C16        -2.5070    0.9850    0.3240 c3        1 SA1     -0.083400
     17 O17        -0.5370   -2.0900   -0.6400 oh        1 SA1     -0.596800
     18 C18         0.1620    1.5890   -0.3340 c         1 SA1      0.586900
     19 O19         0.2750    2.4500    0.5360 o         1 SA1     -0.526100
     20 C20         3.9920   -0.1740    0.0930 c3        1 SA1     -0.098400
     21 H11A        4.3910    1.2280   -1.5660 h1        1 SA1      0.056700
     22 H12A        3.6940    2.0080   -0.0600 h1        1 SA1      0.056700
     23 H41         2.5480   -1.1370   -2.6780 hc        1 SA1      0.058033
     24 H42         1.1950   -2.0900   -1.9240 hc        1 SA1      0.058033
     25 H43         0.8420   -0.5540   -2.8360 hc        1 SA1      0.058033
     26 H5          2.8100   -2.0280   -0.0540 hc        1 SA1      0.106700
     27 HN8         0.2680    0.3190    2.0100 hn        1 SA1      0.328500
     28 H10        -0.9850   -0.4220   -1.6840 h1        1 SA1      0.083700
     29 H11        -1.9670   -0.8960    1.2340 hc        1 SA1      0.066700
     30 H12        -2.9010   -2.2810   -0.7910 ha        1 SA1      0.138000
     31 H13        -5.2290   -1.4820   -1.0630 ha        1 SA1      0.125000
     32 H141       -5.9240    0.4120    0.3380 hc        1 SA1      0.050700
     33 H142       -5.0520    1.1420   -1.0680 hc        1 SA1      0.050700
     34 H151       -4.0450    0.6850    1.8130 hc        1 SA1      0.046200
     35 H152       -4.1750    2.2370    0.8940 hc        1 SA1      0.046200
     36 H161       -1.8320    1.4870    1.0680 hc        1 SA1      0.046700
     37 H162       -2.3800    1.5000   -0.6640 hc        1 SA1      0.046700
     38 HO17       -0.5030   -2.4080    0.2720 ho        1 SA1      0.413000
     39 H18        -0.0990    1.8240   -1.3870 h4        1 SA1      0.022200
     40 H201        4.7740   -0.7870   -0.4220 hc        1 SA1      0.072200
     41 H202        4.3670    0.0680    1.1190 hc        1 SA1      0.072200
@<TRIPOS>BOND
     1    1    2 1   
     2    1   20 1   
     3    1   21 1   
     4    1   22 1   
     5    2    3 1   
     6    3    4 1   
     7    3    5 1   
     8    3    9 1   
     9    4   23 1   
    10    4   24 1   
    11    4   25 1   
    12    5    6 1   
    13    5   20 1   
    14    5   26 1   
    15    6    7 2   
    16    6    8 1   
    17    8    9 1   
    18    8   27 1   
    19    9   10 1   
    20    9   18 1   
    21   10   11 1   
    22   10   17 1   
    23   10   28 1   
    24   11   12 1   
    25   11   16 1   
    26   11   29 1   
    27   12   13 2   
    28   12   30 1   
    29   13   14 1   
    30   13   31 1   
    31   14   15 1   
    32   14   32 1   
    33   14   33 1   
    34   15   16 1   
    35   15   34 1   
    36   15   35 1   
    37   16   36 1   
    38   16   37 1   
    39   17   38 1   
    40   18   19 2   
    41   18   39 1   
    42   20   40 1   
    43   20   41 1   
@<TRIPOS>SUBSTRUCTURE
     1 SA1         1 TEMP              0 ****  ****    0 ROOT
