@<TRIPOS>MOLECULE
SA1
   41    43     1     0     0
SMALL
bcc


@<TRIPOS>ATOM
      1 C1          0.3410    0.0480   -0.2760 c3        1 SA1      0.125400
      2 O2          1.6690    0.3610    0.1650 os        1 SA1     -0.434600
      3 C3          1.8310    0.0720    1.5680 c3        1 SA1      0.161800
      4 C4          2.0630    1.3920    2.2690 c3        1 SA1     -0.097100
      5 C5          0.5410   -0.6560    2.0340 c3        1 SA1     -0.166700
      6 C6          0.9440   -2.1190    2.1880 c         1 SA1      0.691500
      7 O7          0.1770   -3.0620    2.4170 o         1 SA1     -0.602500
      8 N8          2.3320   -2.2550    2.0800 ns        1 SA1     -0.543900
      9 C9          2.9920   -1.0070    1.7070 c3        1 SA1     -0.059600
     10 C10         4.0470   -0.6090    2.7880 c3        1 SA1      0.161100
     11 C11         5.1450   -1.6620    3.0420 c3        1 SA1     -0.061500
     12 C12         6.0860   -1.1190    4.0690 c2        1 SA1     -0.177200
     13 C13         7.4110   -1.2780    4.0220 c2        1 SA1     -0.160200
     14 C14         8.1100   -1.9910    2.9260 c3        1 SA1     -0.051200
     15 C15         7.1580   -2.8340    2.1030 c3        1 SA1     -0.073400
     16 C16         5.8800   -2.0860    1.7810 c3        1 SA1     -0.083400
     17 O17         3.4090   -0.3080    4.0180 oh        1 SA1     -0.596800
     18 C18         3.6950   -1.0440    0.3450 c         1 SA1      0.586900
     19 O19         3.6310   -2.0010   -0.4250 o         1 SA1     -0.526100
     20 C20        -0.4670   -0.4720    0.9080 c3        1 SA1     -0.098400
     21 H11A       -0.0850    0.9940   -0.6980 h1        1 SA1      0.056700
     22 H12A        0.4440   -0.7180   -1.0880 h1        1 SA1      0.056700
     23 H41         2.0760    1.2610    3.3770 hc        1 SA1      0.058033
     24 H42         1.2390    2.0960    1.9960 hc        1 SA1      0.058033
     25 H43         3.0300    1.8410    1.9390 hc        1 SA1      0.058033
     26 H5          0.1650   -0.2630    3.0090 hc        1 SA1      0.106700
     27 HN8         2.7250   -3.1030    1.7390 hn        1 SA1      0.328500
     28 H10         4.5180    0.3640    2.4710 h1        1 SA1      0.083700
     29 H11         4.6560   -2.5770    3.4900 hc        1 SA1      0.066700
     30 H12         5.6020   -0.5720    4.8960 ha        1 SA1      0.138000
     31 H13         8.0590   -0.8640    4.8110 ha        1 SA1      0.125000
     32 H141        8.9160   -2.6450    3.3530 hc        1 SA1      0.050700
     33 H142        8.6140   -1.2320    2.2670 hc        1 SA1      0.050700
     34 H151        6.9050   -3.7700    2.6670 hc        1 SA1      0.046200
     35 H152        7.6570   -3.1420    1.1470 hc        1 SA1      0.046200
     36 H161        6.1230   -1.1830    1.1620 hc        1 SA1      0.046700
     37 H162        5.2210   -2.7590    1.1710 hc        1 SA1      0.046700
     38 HO17        3.0870   -1.1370    4.3960 ho        1 SA1      0.413000
     39 H18         4.2390   -0.1070    0.1010 h4        1 SA1      0.022200
     40 H201       -1.2510    0.2670    1.2070 hc        1 SA1      0.072200
     41 H202       -0.9800   -1.4350    0.6620 hc        1 SA1      0.072200
@<TRIPOS>BOND
     1    1    2 1   
     2    1   20 1   
     3    1   21 1   
     4    1   22 1   
     5    2    3 1   
     6    3    4 1   
     7    3    5 1   
     8    3    9 1   
     9    4   23 1   
    10    4   24 1   
    11    4   25 1   
    12    5    6 1   
    13    5   20 1   
    14    5   26 1   
    15    6    7 2   
    16    6    8 1   
    17    8    9 1   
    18    8   27 1   
    19    9   10 1   
    20    9   18 1   
    21   10   11 1   
    22   10   17 1   
    23   10   28 1   
    24   11   12 1   
    25   11   16 1   
    26   11   29 1   
    27   12   13 2   
    28   12   30 1   
    29   13   14 1   
    30   13   31 1   
    31   14   15 1   
    32   14   32 1   
    33   14   33 1   
    34   15   16 1   
    35   15   34 1   
    36   15   35 1   
    37   16   36 1   
    38   16   37 1   
    39   17   38 1   
    40   18   19 2   
    41   18   39 1   
    42   20   40 1   
    43   20   41 1   
@<TRIPOS>SUBSTRUCTURE
     1 SA1         1 TEMP              0 ****  ****    0 ROOT
