@<TRIPOS>MOLECULE
SA1
   41    43     1     0     0
SMALL
bcc


@<TRIPOS>ATOM
      1 C1          0.3330    0.0590   -0.2630 c3        1 SA1      0.125400
      2 O2          1.6610    0.3710    0.1770 os        1 SA1     -0.434600
      3 C3          1.8270    0.0750    1.5780 c3        1 SA1      0.161800
      4 C4          2.0600    1.3910    2.2850 c3        1 SA1     -0.097100
      5 C5          0.5400   -0.6570    2.0430 c3        1 SA1     -0.166700
      6 C6          0.9460   -2.1210    2.1880 c         1 SA1      0.691500
      7 O7          0.1800   -3.0670    2.4140 o         1 SA1     -0.602500
      8 N8          2.3330   -2.2550    2.0750 n         1 SA1     -0.543900
      9 C9          2.9910   -1.0040    1.7070 c3        1 SA1     -0.059600
     10 C10         4.0480   -0.6100    2.7880 c3        1 SA1      0.161100
     11 C11         5.1480   -1.6630    3.0340 c3        1 SA1     -0.061500
     12 C12         6.0910   -1.1240    4.0600 c2        1 SA1     -0.177200
     13 C13         7.4160   -1.2810    4.0080 c2        1 SA1     -0.160200
     14 C14         8.1130   -1.9880    2.9070 c3        1 SA1     -0.051200
     15 C15         7.1590   -2.8280    2.0820 c3        1 SA1     -0.073400
     16 C16         5.8800   -2.0790    1.7680 c3        1 SA1     -0.083400
     17 O17         3.4130   -0.3170    4.0210 oh        1 SA1     -0.596800
     18 C18         3.6900   -1.0320    0.3430 c         1 SA1      0.586900
     19 O19         3.6250   -1.9840   -0.4310 o         1 SA1     -0.526100
     20 C20        -0.4710   -0.4690    0.9210 c3        1 SA1     -0.098400
     21 H11A       -0.0960    1.0060   -0.6780 h1        1 SA1      0.056700
     22 H12A        0.4350   -0.7020   -1.0790 h1        1 SA1      0.056700
     23 H41         2.0760    1.2540    3.3930 hc        1 SA1      0.058033
     24 H42         1.2340    2.0960    2.0180 hc        1 SA1      0.058033
     25 H43         3.0250    1.8440    1.9560 hc        1 SA1      0.058033
     26 H5          0.1660   -0.2710    3.0220 hc        1 SA1      0.106700
     27 HN8         2.7260   -3.0990    1.7280 hn        1 SA1      0.328500
     28 H10         4.5170    0.3650    2.4750 h1        1 SA1      0.083700
     29 H11         4.6610   -2.5810    3.4780 hc        1 SA1      0.066700
     30 H12         5.6090   -0.5820    4.8910 ha        1 SA1      0.138000
     31 H13         8.0670   -0.8710    4.7970 ha        1 SA1      0.125000
     32 H141        8.9210   -2.6440    3.3280 hc        1 SA1      0.050700
     33 H142        8.6140   -1.2250    2.2500 hc        1 SA1      0.050700
     34 H151        7.6560   -3.1300    1.1230 hc        1 SA1      0.046200
     35 H152        6.9090   -3.7670    2.6420 hc        1 SA1      0.046200
     36 H161        5.2190   -2.7500    1.1570 hc        1 SA1      0.046700
     37 H162        6.1200   -1.1730    1.1520 hc        1 SA1      0.046700
     38 HO17        3.0930   -1.1470    4.3950 ho        1 SA1      0.413000
     39 H18         4.2320   -0.0930    0.1030 h4        1 SA1      0.022200
     40 H201       -1.2550    0.2680    1.2260 hc        1 SA1      0.072200
     41 H202       -0.9840   -1.4320    0.6710 hc        1 SA1      0.072200
@<TRIPOS>BOND
     1    1    2 1   
     2    1   20 1   
     3    1   21 1   
     4    1   22 1   
     5    2    3 1   
     6    3    4 1   
     7    3    5 1   
     8    3    9 1   
     9    4   23 1   
    10    4   24 1   
    11    4   25 1   
    12    5    6 1   
    13    5   20 1   
    14    5   26 1   
    15    6    7 2   
    16    6    8 1   
    17    8    9 1   
    18    8   27 1   
    19    9   10 1   
    20    9   18 1   
    21   10   11 1   
    22   10   17 1   
    23   10   28 1   
    24   11   12 1   
    25   11   16 1   
    26   11   29 1   
    27   12   13 2   
    28   12   30 1   
    29   13   14 1   
    30   13   31 1   
    31   14   15 1   
    32   14   32 1   
    33   14   33 1   
    34   15   16 1   
    35   15   34 1   
    36   15   35 1   
    37   16   36 1   
    38   16   37 1   
    39   17   38 1   
    40   18   19 2   
    41   18   39 1   
    42   20   40 1   
    43   20   41 1   
@<TRIPOS>SUBSTRUCTURE
     1 SA1         1 TEMP              0 ****  ****    0 ROOT
