@<TRIPOS>MOLECULE
SA1
   41    42     1     0     0
SMALL
bcc


@<TRIPOS>ATOM
      1 C1         -2.5630    1.2800   -2.3170 c3        1 SA1     -0.024000
      2 O2         -1.4740    1.8630   -1.9780 os        1 SA1     -0.285000
      3 C3         -1.4140    1.7900   -0.3840 c3        1 SA1      0.099000
      4 C4         -0.5030    2.8420    0.1620 c3        1 SA1     -0.218000
      5 C5         -2.5000    1.9500   -0.0010 c3        1 SA1     -0.152000
      6 C6         -2.6440    1.0340    1.3010 c2        1 SA1      0.305000
      7 O7         -3.6600    0.8710    1.9500 o         1 SA1     -0.331000
      8 N8         -1.3860    0.1090    1.3150 n         1 SA1     -0.340000
      9 C9         -0.9050    0.1790    0.1490 c3        1 SA1     -0.019000
     10 C10         0.6090   -0.0470    0.0860 c3        1 SA1      0.026000
     11 C11         0.9260   -1.4980    0.4570 c3        1 SA1     -0.110000
     12 C12         1.3760   -1.5880    1.8150 c2        1 SA1     -0.179000
     13 C13         3.0340   -1.4590    2.0470 c1        1 SA1     -0.150000
     14 C14         3.8800   -1.9850    0.9580 c2        1 SA1     -0.139000
     15 C15         3.1840   -1.7680   -0.5150 c3        1 SA1     -0.159000
     16 C16         2.0220   -2.1590   -0.6220 c3        1 SA1     -0.159000
     17 O17         1.2390    0.8070    0.9770 oh        1 SA1     -0.336000
     18 C18        -1.4090   -0.8900   -0.7340 c2        1 SA1      0.216000
     19 O19        -0.9570   -1.0150   -1.8570 o         1 SA1     -0.286000
     20 C20        -3.4390    1.4390   -1.1750 c3        1 SA1     -0.175000
     21 H11A       -2.9530    1.7150   -3.1100 h1        1 SA1      0.092000
     22 H12A       -2.4030    0.3360   -2.4920 h1        1 SA1      0.092000
     23 H41        -0.9260    3.7100    0.0800 hc        1 SA1      0.098000
     24 H42         0.3450    2.8400   -0.3450 hc        1 SA1      0.098000
     25 H43        -0.3200    2.6570    1.1020 hc        1 SA1      0.098000
     26 H5         -2.6680    2.8910    0.2060 hc        1 SA1      0.148000
     27 HN8        -1.1980   -0.5360    1.9380 hn        1 SA1      0.228000
     28 H10         0.9280    0.1350   -0.8210 h1        1 SA1      0.110000
     29 H11         0.0480   -1.9130    0.3550 hc        1 SA1      0.102000
     30 H12         0.8210   -2.0380    2.4870 ha        1 SA1      0.126000
     31 H13         3.3990   -1.3780    2.9620 ha        1 SA1      0.128000
     32 H141        4.2260   -2.8980    1.0960 ha        1 SA1      0.093500
     33 H142        4.7260   -1.4760    0.9760 ha        1 SA1      0.093500
     34 H151        3.2050   -0.8030   -0.7270 hc        1 SA1      0.081500
     35 H152        3.7270   -2.2400   -1.1810 hc        1 SA1      0.081500
     36 H161        1.7140   -1.9560   -1.5340 hc        1 SA1      0.097500
     37 H162        2.0170   -3.1280   -0.5060 hc        1 SA1      0.097500
     38 HO17        1.9680    1.1440    0.5990 ho        1 SA1      0.218000
     39 H18        -2.0920   -1.5040   -0.4140 h4        1 SA1      0.118000
     40 H201       -3.8460    0.5810   -0.9360 hc        1 SA1      0.109000
     41 H202       -4.1350    2.1060   -1.3690 hc        1 SA1      0.109000
@<TRIPOS>BOND
     1    1    2 1   
     2    1   20 1   
     3    1   21 1   
     4    1   22 1   
     5    2    3 1   
     6    3    4 1   
     7    3    5 1   
     8    3    9 1   
     9    4   23 1   
    10    4   24 1   
    11    4   25 1   
    12    5    6 1   
    13    5   20 1   
    14    5   26 1   
    15    6    7 1   
    16    6    8 1   
    17    8    9 1   
    18    8   27 1   
    19    9   10 1   
    20    9   18 1   
    21   10   11 1   
    22   10   17 1   
    23   10   28 1   
    24   11   12 1   
    25   11   16 1   
    26   11   29 1   
    27   12   13 1   
    28   12   30 1   
    29   13   31 1   
    30   14   15 1   
    31   14   32 1   
    32   14   33 1   
    33   15   16 1   
    34   15   34 1   
    35   15   35 1   
    36   16   36 1   
    37   16   37 1   
    38   17   38 1   
    39   18   19 1   
    40   18   39 1   
    41   20   40 1   
    42   20   41 1   
@<TRIPOS>SUBSTRUCTURE
     1 SA1         1 TEMP              0 ****  ****    0 ROOT
