@<TRIPOS>MOLECULE
SA1
   41    43     1     0     0
SMALL
bcc


@<TRIPOS>ATOM
      1 C1          0.3410    0.0740   -0.2640 c3        1 SA1      0.125400
      2 O2          1.6650    0.3860    0.1870 os        1 SA1     -0.434600
      3 C3          1.8260    0.0720    1.5850 c3        1 SA1      0.161800
      4 C4          2.0500    1.3800    2.3100 c3        1 SA1     -0.097100
      5 C5          0.5390   -0.6710    2.0340 c3        1 SA1     -0.166700
      6 C6          0.9500   -2.1350    2.1620 c         1 SA1      0.691500
      7 O7          0.1870   -3.0860    2.3720 o         1 SA1     -0.602500
      8 N8          2.3390   -2.2620    2.0550 n         1 SA1     -0.543900
      9 C9          2.9930   -1.0040    1.7060 c3        1 SA1     -0.059600
     10 C10         4.0430   -0.6200    2.7960 c3        1 SA1      0.161100
     11 C11         5.1460   -1.6720    3.0340 c3        1 SA1     -0.061500
     12 C12         6.0830   -1.1420    4.0710 c2        1 SA1     -0.177200
     13 C13         7.4090   -1.2940    4.0230 c2        1 SA1     -0.160200
     14 C14         8.1130   -1.9850    2.9170 c3        1 SA1     -0.051200
     15 C15         7.1650   -2.8180    2.0770 c3        1 SA1     -0.073400
     16 C16         5.8850   -2.0700    1.7670 c3        1 SA1     -0.083400
     17 O17         3.4020   -0.3440    4.0300 oh        1 SA1     -0.596800
     18 C18         3.6990   -1.0120    0.3450 c         1 SA1      0.586900
     19 O19         3.6410   -1.9550   -0.4420 o         1 SA1     -0.526100
     20 C20        -0.4670   -0.4730    0.9090 c3        1 SA1     -0.098400
     21 H11A        0.4510   -0.6760   -1.0890 h1        1 SA1      0.056700
     22 H12A       -0.0890    1.0250   -0.6690 h1        1 SA1      0.056700
     23 H41         2.0610    1.2280    3.4160 hc        1 SA1      0.058033
     24 H42         1.2230    2.0850    2.0480 hc        1 SA1      0.058033
     25 H43         3.0150    1.8400    1.9910 hc        1 SA1      0.058033
     26 H5          0.1580   -0.2980    3.0150 hc        1 SA1      0.106700
     27 HN8         2.7370   -3.1000    1.6990 hn        1 SA1      0.328500
     28 H10         4.5100    0.3610    2.4980 h1        1 SA1      0.083700
     29 H11         4.6610   -2.5970    3.4650 hc        1 SA1      0.066700
     30 H12         5.5960   -0.6120    4.9060 ha        1 SA1      0.138000
     31 H13         8.0540   -0.8910    4.8200 ha        1 SA1      0.125000
     32 H141        8.9210   -2.6430    3.3330 hc        1 SA1      0.050700
     33 H142        8.6150   -1.2130    2.2720 hc        1 SA1      0.050700
     34 H151        7.6680   -3.1070    1.1170 hc        1 SA1      0.046200
     35 H152        6.9160   -3.7650    2.6250 hc        1 SA1      0.046200
     36 H161        6.1250   -1.1550    1.1630 hc        1 SA1      0.046700
     37 H162        5.2290   -2.7360    1.1440 hc        1 SA1      0.046700
     38 HO17        3.0830   -1.1810    4.3920 ho        1 SA1      0.413000
     39 H18         4.2380   -0.0680    0.1190 h4        1 SA1      0.022200
     40 H201       -0.9740   -1.4340    0.6430 hc        1 SA1      0.072200
     41 H202       -1.2560    0.2570    1.2190 hc        1 SA1      0.072200
@<TRIPOS>BOND
     1    1    2 1   
     2    1   20 1   
     3    1   21 1   
     4    1   22 1   
     5    2    3 1   
     6    3    4 1   
     7    3    5 1   
     8    3    9 1   
     9    4   23 1   
    10    4   24 1   
    11    4   25 1   
    12    5    6 1   
    13    5   20 1   
    14    5   26 1   
    15    6    7 2   
    16    6    8 1   
    17    8    9 1   
    18    8   27 1   
    19    9   10 1   
    20    9   18 1   
    21   10   11 1   
    22   10   17 1   
    23   10   28 1   
    24   11   12 1   
    25   11   16 1   
    26   11   29 1   
    27   12   13 2   
    28   12   30 1   
    29   13   14 1   
    30   13   31 1   
    31   14   15 1   
    32   14   32 1   
    33   14   33 1   
    34   15   16 1   
    35   15   34 1   
    36   15   35 1   
    37   16   36 1   
    38   16   37 1   
    39   17   38 1   
    40   18   19 2   
    41   18   39 1   
    42   20   40 1   
    43   20   41 1   
@<TRIPOS>SUBSTRUCTURE
     1 SA1         1 TEMP              0 ****  ****    0 ROOT
