@<TRIPOS>MOLECULE
SA2
   42    41     1     0     0
SMALL
bcc


@<TRIPOS>ATOM
      1 O23         0.9580   -2.0760   -1.5140 o         1 SA2     -0.842800
      2 C20         1.9480   -1.6350   -2.1620 c         1 SA2      0.912600
      3 O22         2.2880   -2.0380   -3.3110 o         1 SA2     -0.842800
      4 C19         2.7800   -0.5140   -1.5040 c3        1 SA2     -0.203400
      5 C18         4.2230   -0.5940   -1.9360 c3        1 SA2     -0.065400
      6 C17         5.0030    0.6250   -1.4760 c3        1 SA2     -0.126400
      7 C16         6.4430    0.5000   -1.8420 c         1 SA2      0.649100
      8 O24         7.2440   -0.4190   -1.5940 o         1 SA2     -0.611000
      9 O15         6.9320    1.5440   -2.5800 os        1 SA2     -0.425900
     10 C14         8.3400    1.6050   -2.8140 c3        1 SA2      0.147400
     11 C2          8.8100    0.7280   -3.9880 c3        1 SA2     -0.070700
     12 S1          8.3920   -0.9930   -3.6060 s4        1 SA2      0.651700
     13 O13         8.5880   -1.6320   -5.1940 oh        1 SA2     -0.647800
     14 O12         9.6520   -1.5780   -3.1200 o         1 SA2     -0.584200
     15 C21         8.0850    1.1410   -5.2510 c3        1 SA2     -0.095100
     16 C3         10.3200    0.9760   -4.1010 c3        1 SA2     -0.010500
     17 C9         10.6710    2.4930   -4.4620 c         1 SA2      0.928600
     18 O10        10.5850    3.3070   -3.5220 o         1 SA2     -0.775300
     19 O11        11.0420    2.6980   -5.6480 o         1 SA2     -0.775300
     20 N4         10.9720    0.0900   -5.1360 ny        1 SA2     -0.659800
     21 C5         12.3250   -0.2450   -4.7280 c2        1 SA2     -0.016000
     22 C6         12.6950   -1.4530   -4.2810 ce        1 SA2     -0.226200
     23 C7         11.7830   -2.6090   -4.1380 c         1 SA2      0.596100
     24 O8         11.0970   -3.0180   -5.0780 o         1 SA2     -0.544100
     25 H191        2.6950   -0.5960   -0.3930 hc        1 SA2      0.025700
     26 H192        2.3350    0.4650   -1.8140 hc        1 SA2      0.025700
     27 H181        4.6930   -1.5200   -1.5140 hc        1 SA2      0.061200
     28 H182        4.2560   -0.6800   -3.0550 hc        1 SA2      0.061200
     29 H171        4.5760    1.5570   -1.9320 hc        1 SA2      0.077200
     30 H172        4.9470    0.7200   -0.3580 hc        1 SA2      0.077200
     31 H141        8.5110    2.6940   -3.0600 h1        1 SA2      0.100200
     32 H142        8.8970    1.3260   -1.8810 h1        1 SA2      0.100200
     33 HO13        8.8930   -2.5400   -5.1790 ho        1 SA2      0.456000
     34 H211        8.2660    0.4130   -6.0800 hc        1 SA2      0.064033
     35 H212        6.9860    1.1990   -5.0570 hc        1 SA2      0.064033
     36 H213        8.4400    2.1500   -5.5820 hc        1 SA2      0.064033
     37 H3         10.7920    0.7430   -3.1030 hx        1 SA2      0.101700
     38 HN4        11.0190    0.6680   -6.0060 hn        1 SA2      0.474300
     39 H52        13.0060    0.6300   -4.7750 hx        1 SA2      0.195000
     40 H62        13.7380   -1.6270   -3.9680 ha        1 SA2      0.167000
     41 H7         11.7550   -3.0690   -3.1270 h4        1 SA2      0.049200
     42 H42        10.4190   -0.7600   -5.3160 hn        1 SA2      0.474300
@<TRIPOS>BOND
     1    1    2 1   
     2    2    3 1   
     3    2    4 1   
     4    4    5 1   
     5    4   25 1   
     6    4   26 1   
     7    5    6 1   
     8    5   27 1   
     9    5   28 1   
    10    6    7 1   
    11    6   29 1   
    12    6   30 1   
    13    7    8 2   
    14    7    9 1   
    15    9   10 1   
    16   10   11 1   
    17   10   31 1   
    18   10   32 1   
    19   11   12 1   
    20   11   15 1   
    21   11   16 1   
    22   12   13 1   
    23   12   14 2   
    24   13   33 1   
    25   15   34 1   
    26   15   35 1   
    27   15   36 1   
    28   16   17 1   
    29   16   20 1   
    30   16   37 1   
    31   17   18 1   
    32   17   19 1   
    33   20   21 1   
    34   20   38 1   
    35   20   42 1   
    36   21   22 2   
    37   21   39 1   
    38   22   23 1   
    39   22   40 1   
    40   23   24 2   
    41   23   41 1   
@<TRIPOS>SUBSTRUCTURE
     1 SA2         1 TEMP              0 ****  ****    0 ROOT
