@<TRIPOS>MOLECULE
SA2
   42    42     1     0     0
SMALL
bcc


@<TRIPOS>ATOM
      1 O23         4.2340   -3.2910   -3.6700 o         1 SA2     -0.718500
      2 C20         4.8330   -2.2870   -3.2420 c         1 SA2      0.777600
      3 O22         6.1330   -2.2200   -3.3760 os        1 SA2     -0.553800
      4 C19         4.0690   -1.1450   -2.5700 c3        1 SA2     -0.175400
      5 C18         5.0370   -0.0200   -2.3540 c3        1 SA2     -0.090400
      6 C17         4.6450    1.3000   -1.7310 c3        1 SA2     -0.124400
      7 C16         5.8850    2.1640   -1.8490 c         1 SA2      0.722600
      8 O24         5.9610    3.3550   -2.1440 o         1 SA2     -0.615500
      9 O15         7.0230    1.4500   -1.5760 os        1 SA2     -0.475900
     10 C14         8.2380    1.7230   -2.2880 c3        1 SA2      0.188400
     11 C2          8.4130    0.8070   -3.5080 c3        1 SA2     -0.116200
     12 S1          7.4920   -0.8840   -3.3120 s6        1 SA2      0.523400
     13 O13         7.5970   -1.2600   -4.9920 oh        1 SA2     -0.671700
     14 O12         8.6010   -1.7680   -2.9350 o         1 SA2     -0.608800
     15 C21         7.8260    1.5040   -4.7130 c3        1 SA2     -0.078100
     16 C3          9.9260    0.6170   -3.6500 c3        1 SA2      0.030500
     17 C9         10.6970    1.9740   -3.8950 c         1 SA2      0.917600
     18 O10        10.8230    2.7210   -2.8990 o         1 SA2     -0.805300
     19 O11        11.1510    2.1730   -5.0570 o         1 SA2     -0.805300
     20 N4         10.2470   -0.3420   -4.7770 n4        1 SA2     -0.650800
     21 C5         11.6480   -0.7110   -4.7550 c2        1 SA2     -0.006000
     22 C6         12.1240   -1.9210   -4.4340 ce        1 SA2     -0.253200
     23 C7         11.3320   -3.0960   -4.0130 c         1 SA2      0.533100
     24 O8         11.7740   -4.2370   -4.1750 o         1 SA2     -0.529100
     25 H191        3.6440   -1.5180   -1.6050 hc        1 SA2      0.055200
     26 H192        3.2170   -0.8440   -3.2290 hc        1 SA2      0.055200
     27 H181        5.8600   -0.4420   -1.7000 hc        1 SA2      0.056200
     28 H182        5.4620    0.2370   -3.3710 hc        1 SA2      0.056200
     29 H171        4.3680    1.1850   -0.6540 hc        1 SA2      0.068200
     30 H172        3.8000    1.7950   -2.2700 hc        1 SA2      0.068200
     31 H141        8.2810    2.8020   -2.5930 h1        1 SA2      0.081700
     32 H142        9.0330    1.5290   -1.5160 h1        1 SA2      0.081700
     33 HO13        7.1470   -2.0860   -5.1810 ho        1 SA2      0.461000
     34 H211        8.4370    2.4030   -4.9830 hc        1 SA2      0.037367
     35 H212        7.7850    0.8340   -5.6060 hc        1 SA2      0.037367
     36 H213        6.7860    1.8430   -4.4810 hc        1 SA2      0.037367
     37 H3         10.3210    0.1430   -2.7060 hx        1 SA2      0.089700
     38 HN4        10.0600    0.1800   -5.6490 hn        1 SA2      0.467300
     39 H52        12.2970    0.1590   -5.0130 hx        1 SA2      0.215000
     40 H62        13.2160   -2.0820   -4.4740 ha        1 SA2      0.160000
     41 H7         10.3460   -2.9050   -3.5210 h4        1 SA2      0.087200
     42 H42         9.6330   -1.1710   -4.7240 hn        1 SA2      0.467300
@<TRIPOS>BOND
     1    1    2 2   
     2    2    3 1   
     3    2    4 1   
     4    3   12 1   
     5    4    5 1   
     6    4   25 1   
     7    4   26 1   
     8    5    6 1   
     9    5   27 1   
    10    5   28 1   
    11    6    7 1   
    12    6   29 1   
    13    6   30 1   
    14    7    8 2   
    15    7    9 1   
    16    9   10 1   
    17   10   11 1   
    18   10   31 1   
    19   10   32 1   
    20   11   12 1   
    21   11   15 1   
    22   11   16 1   
    23   12   13 1   
    24   12   14 2   
    25   13   33 1   
    26   15   34 1   
    27   15   35 1   
    28   15   36 1   
    29   16   17 1   
    30   16   20 1   
    31   16   37 1   
    32   17   18 1   
    33   17   19 1   
    34   20   21 1   
    35   20   38 1   
    36   20   42 1   
    37   21   22 2   
    38   21   39 1   
    39   22   23 1   
    40   22   40 1   
    41   23   24 2   
    42   23   41 1   
@<TRIPOS>SUBSTRUCTURE
     1 SA2         1 TEMP              0 ****  ****    0 ROOT
