@<TRIPOS>MOLECULE
SA2
   41    40     1     0     0
SMALL
bcc


@<TRIPOS>ATOM
      1 O23         7.7780   -1.7260   -0.7630 o         1 SA2     -0.857300
      2 C20         6.9910   -0.7520   -0.5740 c         1 SA2      0.908600
      3 O22         7.2450    0.4300   -0.9460 o         1 SA2     -0.857300
      4 C19         5.6830   -1.0300    0.1840 c3        1 SA2     -0.191400
      5 C18         4.4950   -0.3440   -0.4490 c3        1 SA2     -0.063400
      6 C17         3.2810   -0.4330    0.4560 c3        1 SA2     -0.124400
      7 C16         2.0270    0.0430   -0.2070 c         1 SA2      0.670100
      8 O24         1.6080   -0.1820   -1.3480 o         1 SA2     -0.595000
      9 O15         1.2620    0.8260    0.6210 os        1 SA2     -0.442900
     10 C14        -0.0130    1.2820    0.1640 c3        1 SA2      0.144400
     11 C2         -1.1560    0.4920    0.8080 c3        1 SA2     -0.065700
     12 S1         -1.2370   -1.2360    0.3770 s4        1 SA2      0.534700
     13 O13        -1.1970   -1.1670   -1.3210 oh        1 SA2     -0.610800
     14 O12         0.0980   -1.8170    0.5930 o         1 SA2     -0.540200
     15 C21        -1.0240    0.5140    2.3160 c3        1 SA2     -0.081100
     16 C3         -2.4690    1.1820    0.3530 c3        1 SA2      0.077500
     17 C9         -2.6430    2.5750    1.0850 c         1 SA2      0.921600
     18 O10        -2.0060    3.5390    0.5930 o         1 SA2     -0.815800
     19 O11        -3.4140    2.6260    2.0810 o         1 SA2     -0.815800
     20 N4         -3.6380    0.3430    0.5640 nh        1 SA2     -0.726000
     21 C5         -4.2610   -0.2780   -0.4680 c2        1 SA2      0.172000
     22 C6         -5.5170   -0.8290   -0.4240 ce        1 SA2     -0.475200
     23 C7         -6.0400   -1.5720   -1.5380 c         1 SA2      0.593100
     24 O8         -7.1680   -2.0940   -1.5690 o         1 SA2     -0.624100
     25 H191        5.8190   -0.6610    1.2340 hc        1 SA2      0.020200
     26 H192        5.5120   -2.1340    0.2290 hc        1 SA2      0.020200
     27 H181        4.2610   -0.8180   -1.4380 hc        1 SA2      0.057200
     28 H182        4.7570    0.7290   -0.6460 hc        1 SA2      0.057200
     29 H171        3.4540    0.1550    1.3950 hc        1 SA2      0.071700
     30 H172        3.0890   -1.5020    0.7460 hc        1 SA2      0.071700
     31 H141       -0.0860    1.2220   -0.9540 h1        1 SA2      0.090700
     32 H142       -0.0680    2.3580    0.4980 h1        1 SA2      0.090700
     33 HO13       -0.3000   -1.1260   -1.6690 ho        1 SA2      0.468000
     34 H211       -1.1080    1.5650    2.6930 hc        1 SA2      0.051033
     35 H212       -1.8360   -0.0870    2.7920 hc        1 SA2      0.051033
     36 H213       -0.0280    0.1040    2.6150 hc        1 SA2      0.051033
     37 H3         -2.3640    1.4040   -0.7500 h1        1 SA2      0.062700
     38 HN4        -4.1760    0.6130    1.3680 hn        1 SA2      0.451800
     39 H52        -3.6410   -0.3910   -1.3880 h4        1 SA2      0.148000
     40 H62        -6.1660   -0.7210    0.4550 ha        1 SA2      0.138000
     41 H7         -5.3640   -1.6700   -2.4230 h4        1 SA2     -0.038800
@<TRIPOS>BOND
     1    1    2 1   
     2    2    3 1   
     3    2    4 1   
     4    4    5 1   
     5    4   25 1   
     6    4   26 1   
     7    5    6 1   
     8    5   27 1   
     9    5   28 1   
    10    6    7 1   
    11    6   29 1   
    12    6   30 1   
    13    7    8 2   
    14    7    9 1   
    15    9   10 1   
    16   10   11 1   
    17   10   31 1   
    18   10   32 1   
    19   11   12 1   
    20   11   15 1   
    21   11   16 1   
    22   12   13 1   
    23   12   14 2   
    24   13   33 1   
    25   15   34 1   
    26   15   35 1   
    27   15   36 1   
    28   16   17 1   
    29   16   20 1   
    30   16   37 1   
    31   17   18 1   
    32   17   19 1   
    33   20   21 1   
    34   20   38 1   
    35   21   22 2   
    36   21   39 1   
    37   22   23 1   
    38   22   40 1   
    39   23   24 2   
    40   23   41 1   
@<TRIPOS>SUBSTRUCTURE
     1 SA2         1 TEMP              0 ****  ****    0 ROOT
