@<TRIPOS>MOLECULE
SA2
   42    41     1     0     0
SMALL
bcc


@<TRIPOS>ATOM
      1 O23         1.0410   -2.0890   -1.2480 o         1 SA2     -0.842800
      2 C20         2.0060   -1.6630   -1.9400 c         1 SA2      0.912600
      3 O22         2.3260   -2.1150   -3.0770 o         1 SA2     -0.842800
      4 C19         2.8360   -0.5000   -1.3570 c3        1 SA2     -0.203400
      5 C18         4.2690   -0.5780   -1.8190 c3        1 SA2     -0.065400
      6 C17         5.0390    0.6730   -1.4370 c3        1 SA2     -0.126400
      7 C16         6.4730    0.5530   -1.8320 c         1 SA2      0.649100
      8 O24         7.2940   -0.3400   -1.5600 o         1 SA2     -0.611000
      9 O15         6.9260    1.5680   -2.6310 os        1 SA2     -0.425900
     10 C14         8.3270    1.6390   -2.9020 c3        1 SA2      0.147400
     11 C2          8.7840    0.7140   -4.0430 c3        1 SA2     -0.070700
     12 S1          8.4040   -0.9930   -3.5690 s4        1 SA2      0.651700
     13 O13         8.5730   -1.7050   -5.1280 oh        1 SA2     -0.647800
     14 O12         9.6850   -1.5340   -3.0860 o         1 SA2     -0.584200
     15 C21         8.0230    1.0540   -5.3070 c3        1 SA2     -0.095100
     16 C3         10.2860    0.9800   -4.2050 c3        1 SA2     -0.010500
     17 C9         10.6030    2.4820   -4.6470 c         1 SA2      0.928600
     18 O10        10.5250    3.3400   -3.7460 o         1 SA2     -0.775300
     19 O11        10.9430    2.6360   -5.8510 o         1 SA2     -0.775300
     20 N4         10.9290    0.0550   -5.2120 n4        1 SA2     -0.659800
     21 C5         12.2970   -0.2380   -4.8210 c2        1 SA2     -0.016000
     22 C6         12.6970   -1.4180   -4.3260 ce        1 SA2     -0.226200
     23 C7         11.8080   -2.5790   -4.1060 c         1 SA2      0.596100
     24 O8         11.1070   -3.0440   -5.0070 o         1 SA2     -0.544100
     25 H191        2.3680    0.4560   -1.7020 hc        1 SA2      0.025700
     26 H192        2.7790   -0.5300   -0.2410 hc        1 SA2      0.025700
     27 H181        4.7650   -1.4760   -1.3660 hc        1 SA2      0.061200
     28 H182        4.2770   -0.7170   -2.9340 hc        1 SA2      0.061200
     29 H171        5.0080    0.8200   -0.3240 hc        1 SA2      0.077200
     30 H172        4.5860    1.5760   -1.9260 hc        1 SA2      0.077200
     31 H141        8.9110    1.4150   -1.9700 h1        1 SA2      0.100200
     32 H142        8.4740    2.7170   -3.2040 h1        1 SA2      0.100200
     33 HO13        8.8940   -2.6070   -5.0770 ho        1 SA2      0.456000
     34 H211        8.1960    0.2890   -6.1040 hc        1 SA2      0.064033
     35 H212        8.3530    2.0510   -5.6950 hc        1 SA2      0.064033
     36 H213        6.9270    1.1040   -5.0890 hc        1 SA2      0.064033
     37 H3         10.7860    0.8030   -3.2090 hx        1 SA2      0.101700
     38 HN4        10.3860   -0.8120   -5.3370 hn        1 SA2      0.474300
     39 H52        12.9610    0.6440   -4.9270 hx        1 SA2      0.195000
     40 H62        13.7500   -1.5600   -4.0310 ha        1 SA2      0.167000
     41 H7         11.8110   -2.9900   -3.0730 h4        1 SA2      0.049200
     42 H42        10.9450    0.5900   -6.1100 hn        1 SA2      0.474300
@<TRIPOS>BOND
     1    1    2 1   
     2    2    3 1   
     3    2    4 1   
     4    4    5 1   
     5    4   25 1   
     6    4   26 1   
     7    5    6 1   
     8    5   27 1   
     9    5   28 1   
    10    6    7 1   
    11    6   29 1   
    12    6   30 1   
    13    7    8 2   
    14    7    9 1   
    15    9   10 1   
    16   10   11 1   
    17   10   31 1   
    18   10   32 1   
    19   11   12 1   
    20   11   15 1   
    21   11   16 1   
    22   12   13 1   
    23   12   14 2   
    24   13   33 1   
    25   15   34 1   
    26   15   35 1   
    27   15   36 1   
    28   16   17 1   
    29   16   20 1   
    30   16   37 1   
    31   17   18 1   
    32   17   19 1   
    33   20   21 1   
    34   20   38 1   
    35   20   42 1   
    36   21   22 2   
    37   21   39 1   
    38   22   23 1   
    39   22   40 1   
    40   23   24 2   
    41   23   41 1   
@<TRIPOS>SUBSTRUCTURE
     1 SA2         1 TEMP              0 ****  ****    0 ROOT
