@<TRIPOS>MOLECULE
SA3
   59    65     1     0     0
SMALL
bcc


@<TRIPOS>ATOM
      1 O1          5.7270    2.1120    0.6950 oh        1 SA3     -0.495100
      2 C6          4.3640    2.0480    0.5160 ca        1 SA3      0.159100
      3 C5          3.7490    3.2240    0.0500 ca        1 SA3     -0.187000
      4 C4          2.3710    3.2450   -0.1270 ca        1 SA3     -0.030000
      5 C3          1.6270    2.1000    0.1330 cp        1 SA3     -0.130000
      6 C2          2.2680    0.8740    0.5580 ca        1 SA3      0.060800
      7 N9          1.2910   -0.1280    0.7810 na        1 SA3     -0.095300
      8 C1          3.6470    0.8720    0.7810 ca        1 SA3     -0.258000
      9 C11         0.2000    1.8540    0.1080 cp        1 SA3      0.035000
     10 C15        -0.9010    2.6320   -0.1550 ca        1 SA3     -0.128600
     11 C18        -1.0300    4.0670   -0.5610 c         1 SA3      0.735100
     12 O37        -0.1590    4.9150   -0.7760 o         1 SA3     -0.590500
     13 N17        -2.4160    4.3350   -0.6760 n         1 SA3     -0.623500
     14 C14        -2.2230    2.0950   -0.0490 ca        1 SA3     -0.127600
     15 C16        -3.1900    3.1870   -0.3810 c         1 SA3      0.735100
     16 O38        -4.4240    3.1700   -0.4130 o         1 SA3     -0.591500
     17 C13        -2.4220    0.7840    0.3040 cp        1 SA3      0.034000
     18 C21        -3.5950   -0.0540    0.4810 cp        1 SA3     -0.125000
     19 C20        -3.1130   -1.3670    0.8420 ca        1 SA3      0.013800
     20 N19        -1.7030   -1.3540    0.9800 na        1 SA3     -0.157300
     21 C12        -1.2650   -0.0660    0.5800 ca        1 SA3     -0.027200
     22 C10         0.0230    0.4580    0.4970 ca        1 SA3     -0.010200
     23 C25        -4.9580    0.1810    0.3690 ca        1 SA3     -0.021000
     24 C24        -5.8460   -0.8680    0.5980 ca        1 SA3     -0.245000
     25 C23        -5.3650   -2.1440    0.9380 ca        1 SA3      0.160100
     26 C22        -3.9930   -2.4230    1.0660 ca        1 SA3     -0.189000
     27 O2         -6.2110   -3.2060    1.1630 oh        1 SA3     -0.498100
     28 C31         1.4090   -1.5630    0.8850 c3        1 SA3      0.258800
     29 C32         2.7830   -2.2480    1.0870 c3        1 SA3      0.132100
     30 O32         3.4450   -1.6920    2.1990 oh        1 SA3     -0.580800
     31 C33         3.6230   -2.2120   -0.1970 c3        1 SA3      0.057100
     32 O33         4.8180   -2.9250    0.0880 oh        1 SA3     -0.607800
     33 C34         2.8300   -2.9040   -1.3190 c3        1 SA3      0.082100
     34 O34         3.5140   -2.7690   -2.5530 oh        1 SA3     -0.585800
     35 C35         1.4680   -2.2020   -1.4630 c3        1 SA3      0.142100
     36 C36         0.5830   -2.9500   -2.4650 c3        1 SA3      0.134400
     37 O36        -0.4050   -2.0340   -2.9020 oh        1 SA3     -0.591800
     38 O5          0.7800   -2.2500   -0.2120 os        1 SA3     -0.444600
     39 HO1         6.0150    1.2900    1.1180 ho        1 SA3      0.419000
     40 H5          4.3630    4.1120   -0.1510 ha        1 SA3      0.157000
     41 H4          1.8670    4.1680   -0.4620 ha        1 SA3      0.178000
     42 H1          4.1740    0.0050    1.2020 ha        1 SA3      0.157000
     43 H17        -2.7940    5.2110   -0.9330 hn        1 SA3      0.346500
     44 H19        -1.1890   -2.1510    0.6720 hn        1 SA3      0.291700
     45 H25        -5.3300    1.1860    0.1030 ha        1 SA3      0.174000
     46 H24        -6.9290   -0.6970    0.5120 ha        1 SA3      0.139000
     47 H22        -3.6550   -3.4300    1.3390 ha        1 SA3      0.157000
     48 HO2        -7.1200   -2.8910    1.0570 ho        1 SA3      0.423000
     49 H31         0.7630   -1.8670    1.7740 h2        1 SA3      0.111700
     50 H32         2.5440   -3.3330    1.3090 h1        1 SA3      0.064700
     51 H6          4.2660   -2.1970    2.3040 ho        1 SA3      0.427000
     52 H33         3.8630   -1.1580   -0.5090 h1        1 SA3      0.083700
     53 H3          5.4410   -2.7140   -0.6170 ho        1 SA3      0.415000
     54 H34         2.6820   -3.9900   -1.0680 h1        1 SA3      0.059700
     55 H2          4.2460   -3.3980   -2.5300 ho        1 SA3      0.407000
     56 H35         1.6080   -1.1370   -1.7950 h1        1 SA3      0.093700
     57 H361        0.1030   -3.8380   -1.9750 h1        1 SA3      0.043700
     58 H362        1.2200   -3.2810   -3.3290 h1        1 SA3      0.043700
     59 H36        -0.9540   -2.5060   -3.5400 ho        1 SA3      0.407000
@<TRIPOS>BOND
     1    1    2 1   
     2    1   39 1   
     3    2    3 ar  
     4    2    8 ar  
     5    3    4 ar  
     6    3   40 1   
     7    4    5 ar  
     8    4   41 1   
     9    5    6 ar  
    10    5    9 1   
    11    6    7 1   
    12    6    8 ar  
    13    7   22 1   
    14    7   28 1   
    15    8   42 1   
    16    9   10 ar  
    17    9   22 ar  
    18   10   11 1   
    19   10   14 ar  
    20   11   12 2   
    21   11   13 1   
    22   13   15 1   
    23   13   43 1   
    24   14   15 1   
    25   14   17 ar  
    26   15   16 2   
    27   17   18 1   
    28   17   21 ar  
    29   18   19 ar  
    30   18   23 ar  
    31   19   20 1   
    32   19   26 ar  
    33   20   21 1   
    34   20   44 1   
    35   21   22 ar  
    36   23   24 ar  
    37   23   45 1   
    38   24   25 ar  
    39   24   46 1   
    40   25   26 ar  
    41   25   27 1   
    42   26   47 1   
    43   27   48 1   
    44   28   29 1   
    45   28   38 1   
    46   28   49 1   
    47   29   30 1   
    48   29   31 1   
    49   29   50 1   
    50   30   51 1   
    51   31   32 1   
    52   31   33 1   
    53   31   52 1   
    54   32   53 1   
    55   33   34 1   
    56   33   35 1   
    57   33   54 1   
    58   34   55 1   
    59   35   36 1   
    60   35   38 1   
    61   35   56 1   
    62   36   37 1   
    63   36   57 1   
    64   36   58 1   
    65   37   59 1   
@<TRIPOS>SUBSTRUCTURE
     1 SA3         1 TEMP              0 ****  ****    0 ROOT
