@<TRIPOS>MOLECULE
SA6
   43    44     1     0     0
SMALL
bcc


@<TRIPOS>ATOM
      1 C1          0.2670    0.0020   -0.6470 c3        1 SA6     -0.102100
      2 C2          1.7420   -0.0120   -0.3400 c3        1 SA6     -0.061400
      3 C3          2.0150   -0.0200    1.1480 c3        1 SA6     -0.164700
      4 C4          3.5050    0.2350    1.5060 c3        1 SA6      0.171800
      5 C5          3.7830    1.6970    1.7850 c3        1 SA6     -0.128100
      6 O6          4.3660   -0.2350    0.4710 oh        1 SA6     -0.603800
      7 C7          1.6830   -1.3520    1.8180 c         1 SA6      0.706500
      8 O8          0.6340   -2.0000    1.7060 o         1 SA6     -0.613500
      9 N9          2.7600   -1.7770    2.6080 n         1 SA6     -0.540900
     10 C10         3.7810   -0.7430    2.7310 c3        1 SA6     -0.010600
     11 C11         5.1930   -1.3240    2.5460 c         1 SA6      0.597900
     12 O12         6.1830   -0.7960    3.0480 o         1 SA6     -0.532100
     13 C13         3.7360   -0.0030    4.1010 c3        1 SA6      0.131100
     14 O14         2.4800    0.6540    4.1970 oh        1 SA6     -0.607800
     15 C15         3.9910   -0.9590    5.2820 c3        1 SA6     -0.067500
     16 C16         4.9420   -0.3020    6.2790 c3        1 SA6     -0.076400
     17 C17         5.1040   -1.1640    7.5130 c3        1 SA6     -0.076400
     18 C18         3.7800   -1.3910    8.2150 c3        1 SA6     -0.054200
     19 C19         2.6590   -1.6170    7.2720 c2        1 SA6     -0.147200
     20 C20         2.7370   -1.4010    5.9550 c2        1 SA6     -0.196200
     21 H1         -0.2100    0.9330   -0.2560 hc        1 SA6      0.045367
     22 H1A         0.1070   -0.0410   -1.7520 hc        1 SA6      0.045367
     23 H1B        -0.2380   -0.8780   -0.1760 hc        1 SA6      0.045367
     24 H2          2.2240    0.9000   -0.7840 hc        1 SA6      0.044700
     25 H2A         2.2230   -0.9100   -0.8120 hc        1 SA6      0.044700
     26 H3          1.3850    0.7610    1.6590 hc        1 SA6      0.099700
     27 H5          4.8540    1.8340    2.0730 hc        1 SA6      0.058367
     28 H5A         3.1280    2.0790    2.6060 hc        1 SA6      0.058367
     29 H5B         3.5800    2.2950    0.8630 hc        1 SA6      0.058367
     30 HO6         4.2940    0.3840   -0.2660 ho        1 SA6      0.414000
     31 HN9         2.6040   -2.3720    3.3860 hn        1 SA6      0.317500
     32 H11         5.2540   -2.2230    1.8970 h4        1 SA6      0.034200
     33 H13         4.5510    0.7790    4.0800 h1        1 SA6      0.068700
     34 HO14        2.3590    0.8990    5.1230 ho        1 SA6      0.417000
     35 H15         4.5060   -1.8820    4.8830 hc        1 SA6      0.066700
     36 H16         5.9380   -0.1480    5.7870 hc        1 SA6      0.050700
     37 H16A        4.5420    0.7040    6.5690 hc        1 SA6      0.050700
     38 H17         5.5460   -2.1520    7.2180 hc        1 SA6      0.046200
     39 H17A        5.8240   -0.6740    8.2190 hc        1 SA6      0.046200
     40 H18         3.5300   -0.4960    8.8500 hc        1 SA6      0.051700
     41 H18A        3.8710   -2.2700    8.9080 hc        1 SA6      0.051700
     42 H19         1.7200   -1.9680    7.7310 ha        1 SA6      0.126000
     43 H20         1.8640   -1.5540    5.3010 ha        1 SA6      0.134000
@<TRIPOS>BOND
     1    1    2 1   
     2    1   21 1   
     3    1   22 1   
     4    1   23 1   
     5    2    3 1   
     6    2   24 1   
     7    2   25 1   
     8    3    4 1   
     9    3    7 1   
    10    3   26 1   
    11    4    5 1   
    12    4    6 1   
    13    4   10 1   
    14    5   27 1   
    15    5   28 1   
    16    5   29 1   
    17    6   30 1   
    18    7    8 2   
    19    7    9 1   
    20    9   10 1   
    21    9   31 1   
    22   10   11 1   
    23   10   13 1   
    24   11   12 2   
    25   11   32 1   
    26   13   14 1   
    27   13   15 1   
    28   13   33 1   
    29   14   34 1   
    30   15   16 1   
    31   15   20 1   
    32   15   35 1   
    33   16   17 1   
    34   16   36 1   
    35   16   37 1   
    36   17   18 1   
    37   17   38 1   
    38   17   39 1   
    39   18   19 1   
    40   18   40 1   
    41   18   41 1   
    42   19   20 2   
    43   19   42 1   
    44   20   43 1   
@<TRIPOS>SUBSTRUCTURE
     1 SA6         1 TEMP              0 ****  ****    0 ROOT
