@<TRIPOS>MOLECULE
SA6
   43    44     1     0     0
SMALL
bcc


@<TRIPOS>ATOM
      1 C1         -3.8350    0.5830   -2.8320 c3        1 SA6     -0.104100
      2 C2         -2.3130    0.4030   -2.8410 c3        1 SA6     -0.060400
      3 C3         -1.8260    0.4460   -1.5240 c3        1 SA6     -0.168700
      4 C4         -0.3360    0.7980   -1.5390 c3        1 SA6      0.173800
      5 C5          0.2020    0.7880   -2.9960 c3        1 SA6     -0.101100
      6 O6         -0.1300    2.0840   -0.9450 oh        1 SA6     -0.590800
      7 C7         -1.8150   -1.0070   -0.9160 c         1 SA6      0.690500
      8 O8         -2.7860   -1.7050   -0.7310 o         1 SA6     -0.603500
      9 N9         -0.5790   -1.4130   -0.9670 n         1 SA6     -0.546900
     10 C10         0.3150   -0.2080   -0.7730 c3        1 SA6     -0.089600
     11 C11         1.7950   -0.4480   -1.1800 c         1 SA6      0.563900
     12 O12         2.1220   -1.5010   -1.6950 o         1 SA6     -0.518100
     13 C13         0.4560    0.1720    0.6740 c3        1 SA6      0.156100
     14 O14        -0.8090    0.2770    1.2580 oh        1 SA6     -0.605800
     15 C15         1.2880   -0.9250    1.4200 c3        1 SA6     -0.055500
     16 C16         2.6420   -0.2660    2.1000 c3        1 SA6     -0.072400
     17 C17         2.4600    0.4180    3.0940 c3        1 SA6     -0.082400
     18 C18         1.7000   -0.3200    4.3380 c3        1 SA6     -0.052200
     19 C19         0.4720   -0.9730    3.9140 c2        1 SA6     -0.146200
     20 C20         0.4830   -1.6110    2.3650 c2        1 SA6     -0.189200
     21 H1         -4.1310    0.9530   -3.7110 hc        1 SA6      0.045033
     22 H1A        -4.2750   -0.3010   -2.6770 hc        1 SA6      0.045033
     23 H1B        -4.0880    1.2070   -2.1110 hc        1 SA6      0.045033
     24 H2         -2.0870   -0.4730   -3.2490 hc        1 SA6      0.050700
     25 H2A        -1.9010    1.1260   -3.3660 hc        1 SA6      0.050700
     26 H3         -2.4420    1.1030   -1.1160 hc        1 SA6      0.091700
     27 H5          0.0510   -0.1070   -3.3980 hc        1 SA6      0.057033
     28 H5A         1.1700    0.9870   -2.9900 hc        1 SA6      0.057033
     29 H5B        -0.2650    1.4620   -3.5190 hc        1 SA6      0.057033
     30 HO6        -0.2640    2.7290   -1.5660 ho        1 SA6      0.432000
     31 HN9        -0.3030   -2.2460   -1.1900 hn        1 SA6      0.328500
     32 H11         2.4590    0.2410   -1.0220 h4        1 SA6      0.018200
     33 H13         0.9190    1.0320    0.7410 h1        1 SA6      0.088700
     34 HO14       -0.8530    1.0320    1.7450 ho        1 SA6      0.424000
     35 H15         1.5280   -1.5170    0.6740 hc        1 SA6      0.058700
     36 H16         3.0830    0.2910    1.4230 hc        1 SA6      0.044200
     37 H16A        3.2580   -1.0040    2.3430 hc        1 SA6      0.044200
     38 H17         1.9330    1.1960    2.8340 hc        1 SA6      0.051200
     39 H17A        3.3350    0.7310    3.4120 hc        1 SA6      0.051200
     40 H18         2.2630   -0.9210    4.8710 hc        1 SA6      0.052200
     41 H18A        1.4980    0.3520    4.9960 hc        1 SA6      0.052200
     42 H19        -0.1570   -1.3210    4.5840 ha        1 SA6      0.126000
     43 H20        -0.2390   -2.1440    2.0710 ha        1 SA6      0.132000
@<TRIPOS>BOND
     1    1    2 1   
     2    1   21 1   
     3    1   22 1   
     4    1   23 1   
     5    2    3 1   
     6    2   24 1   
     7    2   25 1   
     8    3    4 1   
     9    3    7 1   
    10    3   26 1   
    11    4    5 1   
    12    4    6 1   
    13    4   10 1   
    14    5   27 1   
    15    5   28 1   
    16    5   29 1   
    17    6   30 1   
    18    7    8 2   
    19    7    9 1   
    20    9   10 1   
    21    9   31 1   
    22   10   11 1   
    23   10   13 1   
    24   11   12 2   
    25   11   32 1   
    26   13   14 1   
    27   13   15 1   
    28   13   33 1   
    29   14   34 1   
    30   15   16 1   
    31   15   20 1   
    32   15   35 1   
    33   16   17 1   
    34   16   36 1   
    35   16   37 1   
    36   17   18 1   
    37   17   38 1   
    38   17   39 1   
    39   18   19 1   
    40   18   40 1   
    41   18   41 1   
    42   19   20 2   
    43   19   42 1   
    44   20   43 1   
@<TRIPOS>SUBSTRUCTURE
     1 SA6         1 TEMP              0 ****  ****    0 ROOT
