@<TRIPOS>MOLECULE
SA6
   43    44     1     0     0
SMALL
bcc


@<TRIPOS>ATOM
      1 C1          0.3670   -0.0750   -0.8820 c3        1 SA6     -0.104100
      2 C2          1.8060   -0.1040   -0.4370 c3        1 SA6     -0.055400
      3 C3          1.9360    0.0230    1.0670 c3        1 SA6     -0.126700
      4 C4          3.3860    0.3210    1.5390 c3        1 SA6      0.174800
      5 C5          3.5700    1.7840    1.8930 c3        1 SA6     -0.129100
      6 O6          4.2620   -0.0430    0.4790 oh        1 SA6     -0.597800
      7 C7          1.5360   -1.2510    1.8060 c         1 SA6      0.703500
      8 O8          0.4640   -1.8630    1.7020 o         1 SA6     -0.612500
      9 N9          2.5710   -1.6750    2.6480 n         1 SA6     -0.541900
     10 C10         3.6330   -0.6850    2.7520 c3        1 SA6     -0.039600
     11 C11         5.0140   -1.3310    2.5460 c         1 SA6      0.587900
     12 O12         6.0390   -0.6480    2.5340 o         1 SA6     -0.543100
     13 C13         3.6810    0.0190    4.1420 c3        1 SA6      0.132100
     14 O14         2.4420    0.6840    4.3330 oh        1 SA6     -0.599800
     15 C15         3.9960   -0.9670    5.2840 c3        1 SA6     -0.072500
     16 C16         5.0090   -0.3430    6.2400 c3        1 SA6     -0.077400
     17 C17         5.2390   -1.2390    7.4380 c3        1 SA6     -0.076400
     18 C18         3.9570   -1.4750    8.2130 c3        1 SA6     -0.054200
     19 C19         2.7770   -1.6600    7.3350 c2        1 SA6     -0.146200
     20 C20         2.7790   -1.4090    6.0210 c2        1 SA6     -0.196200
     21 H1          0.3060   -0.2310   -1.9860 hc        1 SA6      0.042033
     22 H1A        -0.1040    0.9080   -0.6380 hc        1 SA6      0.042033
     23 H1B        -0.2170   -0.8820   -0.3730 hc        1 SA6      0.042033
     24 H2          2.3730    0.7410   -0.9120 hc        1 SA6      0.056200
     25 H2A         2.2960   -1.0560   -0.7730 hc        1 SA6      0.056200
     26 H3          1.2610    0.8430    1.4400 hc        1 SA6      0.092700
     27 H5          2.8460    2.0990    2.6810 hc        1 SA6      0.059033
     28 H5A         3.3970    2.4000    0.9760 hc        1 SA6      0.059033
     29 H5B         4.6110    1.9690    2.2550 hc        1 SA6      0.059033
     30 HO6         5.1150    0.3840    0.6460 ho        1 SA6      0.419000
     31 HN9         2.3700   -2.2300    3.4460 hn        1 SA6      0.315500
     32 H11         5.0310   -2.4310    2.3930 h4        1 SA6      0.028200
     33 H13         4.5030    0.7920    4.0900 h1        1 SA6      0.062700
     34 HO14        2.3900    0.9210    5.2680 ho        1 SA6      0.417000
     35 H15         4.4710   -1.8910    4.8400 hc        1 SA6      0.063700
     36 H16         5.9770   -0.1760    5.7000 hc        1 SA6      0.048200
     37 H16A        4.6310    0.6560    6.5820 hc        1 SA6      0.048200
     38 H17         6.0040   -0.7730    8.1120 hc        1 SA6      0.046200
     39 H17A        5.6530   -2.2220    7.0910 hc        1 SA6      0.046200
     40 H18         4.0800   -2.3770    8.8710 hc        1 SA6      0.053700
     41 H18A        3.7580   -0.5990    8.8910 hc        1 SA6      0.053700
     42 H19         1.8630   -2.0090    7.8410 ha        1 SA6      0.128000
     43 H20         1.8640   -1.5290    5.4200 ha        1 SA6      0.136000
@<TRIPOS>BOND
     1    1    2 1   
     2    1   21 1   
     3    1   22 1   
     4    1   23 1   
     5    2    3 1   
     6    2   24 1   
     7    2   25 1   
     8    3    4 1   
     9    3    7 1   
    10    3   26 1   
    11    4    5 1   
    12    4    6 1   
    13    4   10 1   
    14    5   27 1   
    15    5   28 1   
    16    5   29 1   
    17    6   30 1   
    18    7    8 2   
    19    7    9 1   
    20    9   10 1   
    21    9   31 1   
    22   10   11 1   
    23   10   13 1   
    24   11   12 2   
    25   11   32 1   
    26   13   14 1   
    27   13   15 1   
    28   13   33 1   
    29   14   34 1   
    30   15   16 1   
    31   15   20 1   
    32   15   35 1   
    33   16   17 1   
    34   16   36 1   
    35   16   37 1   
    36   17   18 1   
    37   17   38 1   
    38   17   39 1   
    39   18   19 1   
    40   18   40 1   
    41   18   41 1   
    42   19   20 2   
    43   19   42 1   
    44   20   43 1   
@<TRIPOS>SUBSTRUCTURE
     1 SA6         1 TEMP              0 ****  ****    0 ROOT
