@<TRIPOS>MOLECULE
SA6
   43    44     1     0     0
SMALL
bcc


@<TRIPOS>ATOM
      1 C1          0.2680    0.0150   -0.6380 c3        1 SA6     -0.102100
      2 C2          1.7430   -0.0020   -0.3320 c3        1 SA6     -0.061400
      3 C3          2.0170   -0.0150    1.1550 c3        1 SA6     -0.164700
      4 C4          3.5080    0.2370    1.5130 c3        1 SA6      0.171800
      5 C5          3.7880    1.6980    1.7960 c3        1 SA6     -0.128100
      6 O6          4.3670   -0.2310    0.4760 oh        1 SA6     -0.603800
      7 C7          1.6850   -1.3480    1.8210 c         1 SA6      0.706500
      8 O8          0.6350   -1.9950    1.7080 o         1 SA6     -0.613500
      9 N9          2.7620   -1.7770    2.6090 ns        1 SA6     -0.540900
     10 C10         3.7840   -0.7440    2.7350 c3        1 SA6     -0.010600
     11 C11         5.1950   -1.3270    2.5460 c         1 SA6      0.597900
     12 O12         6.1860   -0.8010    3.0490 o         1 SA6     -0.532100
     13 C13         3.7410   -0.0080    4.1070 c3        1 SA6      0.131100
     14 O14         2.4860    0.6500    4.2050 oh        1 SA6     -0.607800
     15 C15         3.9950   -0.9680    5.2840 c3        1 SA6     -0.067500
     16 C16         4.9470   -0.3160    6.2830 c3        1 SA6     -0.076400
     17 C17         5.1090   -1.1810    7.5140 c3        1 SA6     -0.076400
     18 C18         3.7850   -1.4080    8.2170 c3        1 SA6     -0.054200
     19 C19         2.6630   -1.6310    7.2730 c2        1 SA6     -0.147200
     20 C20         2.7410   -1.4110    5.9570 c2        1 SA6     -0.196200
     21 H1          0.1060   -0.0240   -1.7420 hc        1 SA6      0.045367
     22 H1A        -0.2080    0.9460   -0.2440 hc        1 SA6      0.045367
     23 H1B        -0.2380   -0.8660   -0.1700 hc        1 SA6      0.045367
     24 H2          2.2260    0.9110   -0.7740 hc        1 SA6      0.044700
     25 H2A         2.2220   -0.8990   -0.8070 hc        1 SA6      0.044700
     26 H3          1.3890    0.7650    1.6700 hc        1 SA6      0.099700
     27 H5          3.1340    2.0780    2.6180 hc        1 SA6      0.058367
     28 H5A         3.5850    2.3000    0.8750 hc        1 SA6      0.058367
     29 H5B         4.8590    1.8330    2.0830 hc        1 SA6      0.058367
     30 HO6         4.2960    0.3900   -0.2600 ho        1 SA6      0.414000
     31 HN9         2.6050   -2.3740    3.3860 hn        1 SA6      0.317500
     32 H11         5.2550   -2.2240    1.8950 h4        1 SA6      0.034200
     33 H13         4.5570    0.7730    4.0880 h1        1 SA6      0.068700
     34 HO14        2.3650    0.8920    5.1330 ho        1 SA6      0.417000
     35 H15         4.5090   -1.8910    4.8830 hc        1 SA6      0.066700
     36 H16         4.5480    0.6900    6.5770 hc        1 SA6      0.050700
     37 H16A        5.9440   -0.1610    5.7910 hc        1 SA6      0.050700
     38 H17         5.8290   -0.6930    8.2220 hc        1 SA6      0.046200
     39 H17A        5.5500   -2.1680    7.2160 hc        1 SA6      0.046200
     40 H18         3.5370   -0.5160    8.8550 hc        1 SA6      0.051700
     41 H18A        3.8750   -2.2900    8.9070 hc        1 SA6      0.051700
     42 H19         1.7240   -1.9830    7.7320 ha        1 SA6      0.126000
     43 H20         1.8670   -1.5610    5.3030 ha        1 SA6      0.134000
@<TRIPOS>BOND
     1    1    2 1   
     2    1   21 1   
     3    1   22 1   
     4    1   23 1   
     5    2    3 1   
     6    2   24 1   
     7    2   25 1   
     8    3    4 1   
     9    3    7 1   
    10    3   26 1   
    11    4    5 1   
    12    4    6 1   
    13    4   10 1   
    14    5   27 1   
    15    5   28 1   
    16    5   29 1   
    17    6   30 1   
    18    7    8 2   
    19    7    9 1   
    20    9   10 1   
    21    9   31 1   
    22   10   11 1   
    23   10   13 1   
    24   11   12 2   
    25   11   32 1   
    26   13   14 1   
    27   13   15 1   
    28   13   33 1   
    29   14   34 1   
    30   15   16 1   
    31   15   20 1   
    32   15   35 1   
    33   16   17 1   
    34   16   36 1   
    35   16   37 1   
    36   17   18 1   
    37   17   38 1   
    38   17   39 1   
    39   18   19 1   
    40   18   40 1   
    41   18   41 1   
    42   19   20 2   
    43   19   42 1   
    44   20   43 1   
@<TRIPOS>SUBSTRUCTURE
     1 SA6         1 TEMP              0 ****  ****    0 ROOT
