@<TRIPOS>MOLECULE
SA6
   43    44     1     0     0
SMALL
bcc


@<TRIPOS>ATOM
      1 C1          4.7510    1.5930    0.5280 c3        1 SA6     -0.102100
      2 C2          4.0090    0.3070    0.2700 c3        1 SA6     -0.061400
      3 C3          2.5120    0.4780    0.4040 c3        1 SA6     -0.164700
      4 C4          1.7380   -0.8700    0.4300 c3        1 SA6      0.167800
      5 C5          1.5720   -1.4110    1.8330 c3        1 SA6     -0.129100
      6 O6          2.3920   -1.8300   -0.3980 oh        1 SA6     -0.607800
      7 C7          1.8900    1.2340   -0.7700 c         1 SA6      0.707500
      8 O8          2.3330    2.2410   -1.3390 o         1 SA6     -0.617500
      9 N9          0.6700    0.6510   -1.1040 n         1 SA6     -0.580900
     10 C10         0.3790   -0.5500   -0.3390 c3        1 SA6     -0.030600
     11 C11         0.0520   -1.7660   -1.2190 c         1 SA6      0.586900
     12 O12        -0.4980   -2.7660   -0.7640 o         1 SA6     -0.518100
     13 C13        -0.8150   -0.3350    0.6460 c3        1 SA6      0.151100
     14 O14        -0.5270    0.6480    1.6170 oh        1 SA6     -0.592800
     15 C15        -2.1430   -0.0760   -0.0890 c3        1 SA6     -0.053500
     16 C16        -3.2810   -0.6840    0.7280 c3        1 SA6     -0.075400
     17 C17        -4.6290   -0.3210    0.1440 c3        1 SA6     -0.076400
     18 C18        -4.8360    1.1800    0.1230 c3        1 SA6     -0.052200
     19 C19        -3.6210    1.9120   -0.3080 c2        1 SA6     -0.145200
     20 C20        -2.4050    1.3600   -0.3830 c2        1 SA6     -0.192200
     21 H1          5.8470    1.4370    0.3830 hc        1 SA6      0.045367
     22 H1A         4.4060    2.3890   -0.1780 hc        1 SA6      0.045367
     23 H1B         4.5790    1.9480    1.5730 hc        1 SA6      0.045367
     24 H2          4.2510   -0.0740   -0.7570 hc        1 SA6      0.046200
     25 H2A         4.3430   -0.4730    1.0070 hc        1 SA6      0.046200
     26 H3          2.2700    1.0500    1.3420 hc        1 SA6      0.096700
     27 H5          1.0460   -0.6730    2.4860 hc        1 SA6      0.062033
     28 H5A         0.9880   -2.3630    1.8070 hc        1 SA6      0.062033
     29 H5B         2.5780   -1.6200    2.2720 hc        1 SA6      0.062033
     30 HO6         3.1510   -2.1670    0.0930 ho        1 SA6      0.417000
     31 HN9         0.1800    0.8550   -1.9370 hn        1 SA6      0.328500
     32 H11         0.3730   -1.6940   -2.2800 h4        1 SA6      0.016200
     33 H13        -0.9120   -1.2920    1.2420 h1        1 SA6      0.098700
     34 HO14       -0.5690    1.5150    1.1940 ho        1 SA6      0.413000
     35 H15        -2.1010   -0.6190   -1.0790 hc        1 SA6      0.055700
     36 H16        -3.1660   -1.7990    0.7490 hc        1 SA6      0.053200
     37 H16A       -3.2130   -0.3110    1.7840 hc        1 SA6      0.053200
     38 H17        -4.7030   -0.7250   -0.9000 hc        1 SA6      0.043700
     39 H17A       -5.4410   -0.8030    0.7480 hc        1 SA6      0.043700
     40 H18        -5.6910    1.4320   -0.5600 hc        1 SA6      0.051700
     41 H18A       -5.1190    1.5380    1.1510 hc        1 SA6      0.051700
     42 H19        -3.7740    2.9740   -0.5590 ha        1 SA6      0.124000
     43 H20        -1.5430    1.9640   -0.7040 ha        1 SA6      0.125000
@<TRIPOS>BOND
     1    1    2 1   
     2    1   21 1   
     3    1   22 1   
     4    1   23 1   
     5    2    3 1   
     6    2   24 1   
     7    2   25 1   
     8    3    4 1   
     9    3    7 1   
    10    3   26 1   
    11    4    5 1   
    12    4    6 1   
    13    4   10 1   
    14    5   27 1   
    15    5   28 1   
    16    5   29 1   
    17    6   30 1   
    18    7    8 2   
    19    7    9 1   
    20    9   10 1   
    21    9   31 1   
    22   10   11 1   
    23   10   13 1   
    24   11   12 2   
    25   11   32 1   
    26   13   14 1   
    27   13   15 1   
    28   13   33 1   
    29   14   34 1   
    30   15   16 1   
    31   15   20 1   
    32   15   35 1   
    33   16   17 1   
    34   16   36 1   
    35   16   37 1   
    36   17   18 1   
    37   17   38 1   
    38   17   39 1   
    39   18   19 1   
    40   18   40 1   
    41   18   41 1   
    42   19   20 2   
    43   19   42 1   
    44   20   43 1   
@<TRIPOS>SUBSTRUCTURE
     1 SA6         1 TEMP              0 ****  ****    0 ROOT
