@<TRIPOS>MOLECULE
SA8
   49    51     1     0     0
SMALL
bcc


@<TRIPOS>ATOM
      1 N          -5.5320    0.7250    1.7190 n3        1 SA8     -0.894800
      2 CA         -4.8450    1.4200    0.6370 c3        1 SA8      0.014500
      3 C          -5.7710    2.3460   -0.2240 c         1 SA8      0.888600
      4 OXT        -6.9800    2.4620    0.1260 o         1 SA8     -0.840300
      5 O          -5.2490    2.9370   -1.2090 o         1 SA8     -0.840300
      6 CB         -4.1070    0.4800   -0.3180 c3        1 SA8     -0.064400
      7 CG         -3.0630   -0.3480    0.4210 c3        1 SA8      0.164800
      8 ND         -2.0900   -1.0410   -0.4280 n3        1 SA8     -0.736600
      9 CE         -2.6680   -1.7340   -1.5530 c3        1 SA8      0.149100
     10 C5'        -1.2190   -1.8690    0.3920 c3        1 SA8      0.154800
     11 C4'        -0.2100   -2.7360   -0.3690 c3        1 SA8      0.093100
     12 O4'         0.5600   -1.9700   -1.3090 os        1 SA8     -0.389600
     13 C3'         0.7790   -3.4010    0.6160 c3        1 SA8      0.125100
     14 O3'         0.8820   -4.7870    0.3940 oh        1 SA8     -0.578800
     15 C2'         2.1110   -2.6450    0.4160 c3        1 SA8      0.078100
     16 O2'         3.1110   -3.5780    0.0650 oh        1 SA8     -0.596800
     17 C1'         1.8570   -1.6810   -0.7920 c3        1 SA8      0.225800
     18 N9          1.9850   -0.2830   -0.4490 na        1 SA8     -0.293000
     19 C8          1.0430    0.7690   -0.5830 cc        1 SA8      0.450700
     20 N7          1.5400    1.9680   -0.2490 nd        1 SA8     -0.551100
     21 C5          2.8720    1.7280    0.1250 ca        1 SA8     -0.217200
     22 C6          3.9280    2.5850    0.5810 ca        1 SA8      0.754200
     23 N6          3.7240    3.9390    0.6700 nh        1 SA8     -0.955500
     24 N1          5.1470    2.0270    0.8910 nb        1 SA8     -0.803000
     25 C2          5.2830    0.6840    0.7270 ca        1 SA8      0.676900
     26 N3          4.3920   -0.2410    0.3040 nb        1 SA8     -0.760000
     27 C4          3.1740    0.3080    0.0030 ca        1 SA8      0.435800
     28 HN1        -6.1400    1.3960    2.1620 hn        1 SA8      0.331800
     29 HN2        -6.1330    0.0280    1.3160 hn        1 SA8      0.331800
     30 HA         -4.0850    2.0980    1.1250 h1        1 SA8      0.042700
     31 HB1        -3.6330    1.1230   -1.1070 hc        1 SA8      0.054700
     32 HB2        -4.8450   -0.1950   -0.8230 hc        1 SA8      0.054700
     33 HG1        -3.5990   -1.0850    1.0910 h1        1 SA8      0.032200
     34 HG2        -2.4670    0.3410    1.0870 h1        1 SA8      0.032200
     35 HE1        -1.8410   -2.0830   -2.2280 h1        1 SA8      0.031700
     36 HE2        -3.2910   -2.6230   -1.2590 h1        1 SA8      0.031700
     37 HE3        -3.3120   -1.0210   -2.1320 h1        1 SA8      0.031700
     38 H5'1       -0.6490   -1.1640    1.0630 h1        1 SA8      0.036700
     39 H5'2       -1.8050   -2.5770    1.0530 h1        1 SA8      0.036700
     40 H4'        -0.7320   -3.5110   -0.9960 h1        1 SA8      0.090700
     41 H3'         0.4230   -3.3120    1.6780 h1        1 SA8      0.096700
     42 H2          1.3950   -4.9220   -0.4140 ho        1 SA8      0.418000
     43 H2'         2.3980   -2.0930    1.3490 h1        1 SA8      0.078700
     44 H1          3.9530   -3.1020    0.0950 ho        1 SA8      0.430000
     45 H1'         2.5780   -1.9050   -1.6370 h2        1 SA8      0.093700
     46 H8          0.0120    0.5610   -0.9230 h5        1 SA8      0.123800
     47 HN61        2.8000    4.2810    0.5540 hn        1 SA8      0.445300
     48 HN62        4.4040    4.5180    1.0960 hn        1 SA8      0.445300
     49 H3          6.2890    0.2900    0.9870 h5        1 SA8      0.041100
@<TRIPOS>BOND
     1    1    2 1   
     2    1   28 1   
     3    1   29 1   
     4    2    3 1   
     5    2    6 1   
     6    2   30 1   
     7    3    4 1   
     8    3    5 1   
     9    6    7 1   
    10    6   31 1   
    11    6   32 1   
    12    7    8 1   
    13    7   33 1   
    14    7   34 1   
    15    8    9 1   
    16    8   10 1   
    17    9   35 1   
    18    9   36 1   
    19    9   37 1   
    20   10   11 1   
    21   10   38 1   
    22   10   39 1   
    23   11   12 1   
    24   11   13 1   
    25   11   40 1   
    26   12   17 1   
    27   13   14 1   
    28   13   15 1   
    29   13   41 1   
    30   14   42 1   
    31   15   16 1   
    32   15   17 1   
    33   15   43 1   
    34   16   44 1   
    35   17   18 1   
    36   17   45 1   
    37   18   19 1   
    38   18   27 1   
    39   19   20 2   
    40   19   46 1   
    41   20   21 1   
    42   21   22 ar  
    43   21   27 ar  
    44   22   23 1   
    45   22   24 ar  
    46   23   47 1   
    47   23   48 1   
    48   24   25 ar  
    49   25   26 ar  
    50   25   49 1   
    51   26   27 ar  
@<TRIPOS>SUBSTRUCTURE
     1 SA8         1 TEMP              0 ****  ****    0 ROOT
