@<TRIPOS>MOLECULE
SA8
   49    47     1     0     0
SMALL
bcc


@<TRIPOS>ATOM
      1 N          -4.2330   -1.6690    4.9190 n3        1 SA8     -0.892800
      2 CA         -2.8930   -1.7490    4.4590 c3        1 SA8      0.028500
      3 C          -1.9550   -1.7130    5.6370 c         1 SA8      0.890600
      4 OXT        -1.3930   -2.7750    6.0270 o         1 SA8     -0.852300
      5 O          -1.8170   -0.6510    6.2980 o         1 SA8     -0.852300
      6 CB         -2.5980   -0.5650    3.5340 c3        1 SA8     -0.056400
      7 CG         -2.5920   -1.0410    2.0820 c3        1 SA8      0.162800
      8 ND         -2.2380    0.0630    1.2130 n3        1 SA8     -0.745600
      9 CE         -3.3990    0.8990    0.9980 c3        1 SA8      0.159100
     10 C5'        -1.7700   -0.4590   -0.0680 c3        1 SA8      0.156800
     11 C4'        -0.9480    0.6310   -0.8040 c3        1 SA8      0.113100
     12 O4'         0.3190    0.4610   -0.5900 os        1 SA8     -0.422600
     13 C3'        -1.1180    0.4900   -2.3300 c3        1 SA8      0.102100
     14 O3'        -1.8460    1.5180   -2.8180 oh        1 SA8     -0.642800
     15 C2'         0.3210    0.5240   -2.9140 c3        1 SA8      0.106100
     16 O2'         0.3970    1.4990   -4.0450 oh        1 SA8     -0.594800
     17 C1'         1.0660    0.9120   -1.9410 c3        1 SA8      0.208800
     18 N9          2.3540    0.2840   -2.0260 n3        1 SA8     -0.108400
     19 C8          2.6450   -1.0320   -1.9610 c1        1 SA8      0.185400
     20 N7          3.9900   -1.1710   -2.0820 ne        1 SA8     -0.413400
     21 C5          4.5300    0.0670   -2.2220 cg        1 SA8     -0.179000
     22 C6          5.8450    0.5030   -2.3380 c1        1 SA8      0.591600
     23 N6          7.0020   -0.3290   -2.4440 n3        1 SA8     -0.809400
     24 N1          6.1140    1.8210   -2.4170 n1        1 SA8     -0.598800
     25 C2          5.0950    2.7290   -2.3820 c1        1 SA8      0.388300
     26 N3          3.7990    2.3020   -2.2680 n1        1 SA8     -0.516800
     27 C4          3.5230    0.9670   -2.1880 c1        1 SA8      0.013700
     28 HN1        -4.5920   -2.5150    4.9670 hn        1 SA8      0.336300
     29 HN2        -4.2470   -1.2860    5.7440 hn        1 SA8      0.336300
     30 HA         -2.7670   -2.5860    3.9680 h1        1 SA8      0.042700
     31 HB1        -3.2890    0.1210    3.6500 hc        1 SA8      0.040700
     32 HB2        -1.7250   -0.1880    3.7560 hc        1 SA8      0.040700
     33 HG1        -3.4840   -1.3720    1.8430 h1        1 SA8      0.042200
     34 HG2        -1.9370   -1.7620    1.9770 h1        1 SA8      0.042200
     35 HE1        -4.1990    0.3350    0.9270 h1        1 SA8      0.025700
     36 HE2        -3.5020    1.5160    1.7520 h1        1 SA8      0.025700
     37 HE3        -3.2850    1.4130    0.1680 h1        1 SA8      0.025700
     38 H5'1       -2.5360   -0.7120   -0.6150 h1        1 SA8      0.032700
     39 H5'2       -1.2090   -1.2390    0.0850 h1        1 SA8      0.032700
     40 H4'        -1.2240    1.5190   -0.5130 h1        1 SA8      0.086700
     41 H3'        -1.5500   -0.3620   -2.5440 h1        1 SA8      0.144700
     42 H2         -2.4890    1.2030   -3.3420 ho        1 SA8      0.482000
     43 H2'         0.5880   -0.3670   -3.2130 h1        1 SA8      0.085700
     44 H1          0.0360    1.1360   -4.7760 ho        1 SA8      0.432000
     45 H1'         1.1640    1.8870   -1.9610 h2        1 SA8      0.119700
     46 H8          2.0060   -1.7520   -1.8310 DU        1 SA8      0.228000
     47 HN61        6.9170   -1.2390   -2.4010 hn        1 SA8      0.428300
     48 HN62        7.8320    0.0490   -2.5280 hn        1 SA8      0.428300
     49 H3          5.2920    3.6860   -2.4390 ha        1 SA8      0.121500
@<TRIPOS>BOND
     1    1    2 1   
     2    1   28 1   
     3    1   29 1   
     4    2    3 1   
     5    2    6 1   
     6    2   30 1   
     7    3    4 1   
     8    3    5 1   
     9    6    7 1   
    10    6   31 1   
    11    6   32 1   
    12    7    8 1   
    13    7   33 1   
    14    7   34 1   
    15    8    9 1   
    16    8   10 1   
    17    9   35 1   
    18    9   36 1   
    19    9   37 1   
    20   10   11 1   
    21   10   38 1   
    22   10   39 1   
    23   11   12 1   
    24   11   13 1   
    25   11   40 1   
    26   12   17 1   
    27   13   14 1   
    28   13   15 1   
    29   13   41 1   
    30   14   42 1   
    31   15   16 1   
    32   15   17 1   
    33   15   43 1   
    34   16   44 1   
    35   17   18 1   
    36   17   45 1   
    37   18   19 2   
    38   18   27 1   
    39   19   20 2   
    40   20   21 1   
    41   21   27 3   
    42   22   23 1   
    43   22   24 3   
    44   23   47 1   
    45   23   48 1   
    46   25   26 3   
    47   25   49 1   
@<TRIPOS>SUBSTRUCTURE
     1 SA8         1 TEMP              0 ****  ****    0 ROOT
