@<TRIPOS>MOLECULE
SA8
   51    53     1     0     0
SMALL
bcc


@<TRIPOS>ATOM
      1 N           2.4350   -0.1580    0.5780 nz        1 SA8     -0.827600
      2 CA          2.1510    0.1410   -0.8580 c3        1 SA8     -0.078500
      3 C           3.4700    0.7490   -1.5280 c         1 SA8      0.923600
      4 OXT         4.3110    1.2260   -0.7390 o         1 SA8     -0.755800
      5 O           3.4710    0.7190   -2.7810 o         1 SA8     -0.755800
      6 CB          1.0060    1.1350   -1.0400 c3        1 SA8     -0.102400
      7 CG          0.7000    1.3460   -2.5230 c3        1 SA8      0.127800
      8 ND          1.4270    2.4910   -3.1630 nx        1 SA8     -0.680400
      9 CE          0.8160    3.7920   -2.8090 c3        1 SA8      0.079100
     10 C5'         1.4950    2.2780   -4.6470 c3        1 SA8      0.105800
     11 C4'         2.1230    3.4540   -5.3990 c3        1 SA8      0.081100
     12 O4'         3.4010    3.7440   -4.8320 os        1 SA8     -0.433600
     13 C3'         2.2990    3.1240   -6.9000 c3        1 SA8      0.137100
     14 O3'         1.2340    3.6390   -7.6510 oh        1 SA8     -0.578800
     15 C2'         3.6900    3.6910   -7.2460 c3        1 SA8      0.086100
     16 O2'         3.5140    4.9580   -7.8400 oh        1 SA8     -0.604800
     17 C1'         4.4040    3.8830   -5.8640 c3        1 SA8      0.250800
     18 N9          5.4920    2.9680   -5.6570 na        1 SA8     -0.315000
     19 C8          5.7610    2.0540   -4.6010 cc        1 SA8      0.427700
     20 N7          6.9700    1.4890   -4.6900 nd        1 SA8     -0.531100
     21 C5          7.5630    2.0430   -5.8370 ca        1 SA8     -0.228200
     22 C6          8.8410    1.8590   -6.4680 ca        1 SA8      0.771200
     23 N6          9.7460    0.9780   -5.9500 nv        1 SA8     -0.949500
     24 N1          9.1230    2.5810   -7.6090 nb        1 SA8     -0.785000
     25 C2          8.1690    3.4230   -8.0770 ca        1 SA8      0.699900
     26 N3          6.9290    3.6950   -7.5940 nb        1 SA8     -0.775000
     27 C4          6.6500    2.9870   -6.4600 ca        1 SA8      0.450800
     28 HN1         2.7480   -1.1260    0.6700 hn        1 SA8      0.460800
     29 HN2         3.2200    0.4660    0.8680 hn        1 SA8      0.460800
     30 HA          1.9100   -0.8290   -1.3770 hx        1 SA8      0.111700
     31 HB1         0.0670    0.7380   -0.5670 hc        1 SA8      0.075200
     32 HB2         1.2560    2.1040   -0.5300 hc        1 SA8      0.075200
     33 HG1         0.9860    0.4100   -3.0920 hx        1 SA8      0.109700
     34 HG2        -0.4040    1.5340   -2.6550 hx        1 SA8      0.109700
     35 HE1         1.5200    4.6180   -3.1050 hx        1 SA8      0.099367
     36 HE2         0.6400    3.8370   -1.7020 hx        1 SA8      0.099367
     37 HE3        -0.1590    3.9160   -3.3500 hx        1 SA8      0.099367
     38 H5'1        2.1260    1.3510   -4.8040 hx        1 SA8      0.117700
     39 H5'2        0.4540    2.1140   -5.0430 hx        1 SA8      0.117700
     40 H4'         1.4940    4.3820   -5.2900 h1        1 SA8      0.080700
     41 H3'         2.2770    2.0120   -7.0750 h1        1 SA8      0.096700
     42 H2          1.4310    4.5570   -7.8930 ho        1 SA8      0.443000
     43 H2'         4.2470    2.9960   -7.9280 h1        1 SA8      0.106700
     44 H1          4.3110    5.1460   -8.3570 ho        1 SA8      0.452000
     45 H1'         4.7850    4.9470   -5.7660 h2        1 SA8      0.109700
     46 H8          5.0150    1.8450   -3.8160 h5        1 SA8      0.106800
     47 HN61       10.6400    0.8680   -6.3630 hn        1 SA8      0.455300
     48 HN62        9.5310    0.5070   -5.1070 hn        1 SA8      0.455300
     49 H3          8.4530    3.9780   -8.9990 h5        1 SA8      0.058100
     50 HN3         1.6240    0.0020    1.1720 hn        1 SA8      0.460800
     51 HD1         2.4190    2.4810   -2.8330 hn        1 SA8      0.497800
@<TRIPOS>BOND
     1    1    2 1   
     2    1   28 1   
     3    1   29 1   
     4    1   50 1   
     5    2    3 1   
     6    2    6 1   
     7    2   30 1   
     8    3    4 1   
     9    3    5 1   
    10    6    7 1   
    11    6   31 1   
    12    6   32 1   
    13    7    8 1   
    14    7   33 1   
    15    7   34 1   
    16    8    9 1   
    17    8   10 1   
    18    8   51 1   
    19    9   35 1   
    20    9   36 1   
    21    9   37 1   
    22   10   11 1   
    23   10   38 1   
    24   10   39 1   
    25   11   12 1   
    26   11   13 1   
    27   11   40 1   
    28   12   17 1   
    29   13   14 1   
    30   13   15 1   
    31   13   41 1   
    32   14   42 1   
    33   15   16 1   
    34   15   17 1   
    35   15   43 1   
    36   16   44 1   
    37   17   18 1   
    38   17   45 1   
    39   18   19 1   
    40   18   27 1   
    41   19   20 2   
    42   19   46 1   
    43   20   21 1   
    44   21   22 ar  
    45   21   27 ar  
    46   22   23 1   
    47   22   24 ar  
    48   23   47 1   
    49   23   48 1   
    50   24   25 ar  
    51   25   26 ar  
    52   25   49 1   
    53   26   27 ar  
@<TRIPOS>SUBSTRUCTURE
     1 SA8         1 TEMP              0 ****  ****    0 ROOT
