@<TRIPOS>MOLECULE
SA8
   52    53     1     0     0
SMALL
bcc


@<TRIPOS>ATOM
      1 N           1.4340    0.0130    0.7880 n4        1 SA8      0.095000
      2 CA          2.1240    0.3440   -0.4130 c2        1 SA8     -0.765000
      3 C           4.4800    0.2680    0.2590 c1        1 SA8      0.473000
      4 OXT         4.2340   -0.2320    1.3150 o         1 SA8     -0.258000
      5 O           4.9180    0.7520   -0.7420 o         1 SA8     -0.258000
      6 CB          2.0050    1.6540   -1.0450 c3        1 SA8     -0.032000
      7 CG          1.3280    1.5050   -2.4220 c3        1 SA8     -0.149000
      8 ND          1.6100    2.6630   -3.3450 n4        1 SA8     -0.001000
      9 CE          0.7630    3.8310   -2.9960 c3        1 SA8     -0.193000
     10 C5'         1.4430    2.2650   -4.7760 c3        1 SA8     -0.132000
     11 C4'         2.0610    3.2620   -5.7600 c3        1 SA8     -0.034000
     12 O4'         3.4580    3.3810   -5.4720 os        1 SA8     -0.303000
     13 C3'         1.9050    2.7890   -7.2230 c3        1 SA8     -0.009000
     14 O3'         0.8480    3.4440   -7.8670 oh        1 SA8     -0.286000
     15 C2'         3.2790    3.0740   -7.8720 c3        1 SA8     -0.031000
     16 O2'         3.1920    4.1970   -8.7210 oh        1 SA8     -0.308000
     17 C1'         4.2140    3.5150   -6.6990 c3        1 SA8      0.159000
     18 N9          5.4380    2.7600   -6.5920 na        1 SA8     -0.187000
     19 C8          5.6320    1.3580   -6.6560 c2        1 SA8      0.040000
     20 N7          6.9090    0.9710   -6.4980 n2        1 SA8     -0.131000
     21 C5          7.6260    2.1590   -6.3040 c2        1 SA8     -0.150000
     22 C6          8.9840    2.4660   -6.0980 c2        1 SA8      0.019000
     23 N6          9.9680    1.3680   -6.0710 n4        1 SA8     -0.011000
     24 N1          9.4100    3.7420   -5.9320 n2        1 SA8     -0.139000
     25 C2          8.4610    4.7230   -5.9800 c2        1 SA8      0.027000
     26 N3          7.1220    4.5970   -6.1780 n2        1 SA8     -0.094000
     27 C4          6.7080    3.3170   -6.3430 c2        1 SA8      0.079000
     28 HN1         0.5620   -0.4990    0.6230 hn        1 SA8      0.208667
     29 HN2         2.0550   -0.5810    1.3540 hn        1 SA8      0.208667
     30 HA          2.4520   -0.5190   -0.9980 hx        1 SA8      0.153000
     31 HB1         3.0420    2.0730   -1.1980 hc        1 SA8      0.078500
     32 HB2         1.4310    2.3950   -0.4260 hc        1 SA8      0.078500
     33 HG1         0.2140    1.4150   -2.3110 hx        1 SA8      0.132500
     34 HG2         1.7210    0.5710   -2.9140 hx        1 SA8      0.132500
     35 HE1         0.8910    4.0580   -1.9030 hx        1 SA8      0.142333
     36 HE2        -0.3150    3.5960   -3.2040 hx        1 SA8      0.142333
     37 HE3         1.0770    4.7230   -3.6010 hx        1 SA8      0.142333
     38 H5'1        1.9320    1.2580   -4.9120 hx        1 SA8      0.152000
     39 H5'2        0.3420    2.1730   -5.0030 hx        1 SA8      0.152000
     40 H4'         1.6030    4.2850   -5.6400 h1        1 SA8      0.133000
     41 H3'         1.6440    1.6960   -7.2800 h1        1 SA8      0.145000
     42 H2          1.1050    4.3660   -8.0360 ho        1 SA8      0.236000
     43 H2'         3.6590    2.1740   -8.4220 h1        1 SA8      0.122000
     44 H1          2.8790    3.8910   -9.5850 ho        1 SA8      0.250000
     45 H1'         4.4790    4.6150   -6.8010 h2        1 SA8      0.191000
     46 H8          4.7930    0.6680   -6.8350 h5        1 SA8      0.228000
     47 HN61        9.6430    0.6490   -5.4110 hn        1 SA8      0.279667
     48 HN62       10.0300    0.9590   -7.0130 hn        1 SA8      0.279667
     49 H3          8.8430    5.7640   -5.8400 h5        1 SA8      0.249000
     50 HN3         1.2180    0.8560    1.3210 hn        1 SA8      0.208667
     51 HD1         2.5990    2.9330   -3.2140 hn        1 SA8      0.256000
     52 H63        10.8980    1.7070   -5.7840 hn        1 SA8      0.279667
@<TRIPOS>BOND
     1    1    2 1   
     2    1   28 1   
     3    1   29 1   
     4    1   50 1   
     5    2    6 1   
     6    2   30 1   
     7    3    4 1   
     8    3    5 1   
     9    6    7 1   
    10    6   31 1   
    11    6   32 1   
    12    7    8 1   
    13    7   33 1   
    14    7   34 1   
    15    8    9 1   
    16    8   10 1   
    17    8   51 1   
    18    9   35 1   
    19    9   36 1   
    20    9   37 1   
    21   10   11 1   
    22   10   38 1   
    23   10   39 1   
    24   11   12 1   
    25   11   13 1   
    26   11   40 1   
    27   12   17 1   
    28   13   14 1   
    29   13   15 1   
    30   13   41 1   
    31   14   42 1   
    32   15   16 1   
    33   15   17 1   
    34   15   43 1   
    35   16   44 1   
    36   17   18 1   
    37   17   45 1   
    38   18   19 1   
    39   18   27 1   
    40   19   20 1   
    41   19   46 1   
    42   20   21 1   
    43   21   22 1   
    44   21   27 1   
    45   22   23 1   
    46   22   24 1   
    47   23   47 1   
    48   23   48 1   
    49   23   52 1   
    50   24   25 1   
    51   25   26 1   
    52   25   49 1   
    53   26   27 1   
@<TRIPOS>SUBSTRUCTURE
     1 SA8         1 TEMP              0 ****  ****    0 ROOT
