@<TRIPOS>MOLECULE
SA9
   17    17     1     0     0
SMALL
bcc


@<TRIPOS>ATOM
      1 OAA         2.7970    0.7470    0.0500 oh        1 SA9     -0.604800
      2 CAC        -2.1880    0.7940   -0.0510 ca        1 SA9     -0.092000
      3 CAD        -1.1940    1.7680    0.0220 ca        1 SA9     -0.166000
      4 CAE        -1.8450   -0.5550   -0.1170 ca        1 SA9     -0.213000
      5 CAF         0.1520    1.4000    0.0300 ca        1 SA9     -0.073000
      6 CAG         1.9450   -0.3880   -0.0300 c3        1 SA9      0.185700
      7 CAH        -0.4920   -0.9200   -0.1090 ca        1 SA9      0.120100
      8 CAI         0.5230    0.0570   -0.0350 ca        1 SA9     -0.111300
      9 HOAA        3.6980    0.4050    0.0500 ho        1 SA9      0.403000
     10 HOAB       -0.8750   -2.7900   -0.2180 ho        1 SA9      0.420000
     11 HAC        -3.2490    1.0860   -0.0580 ha        1 SA9      0.132000
     12 HAD        -1.4690    2.8310    0.0740 ha        1 SA9      0.135000
     13 HAE        -2.6240   -1.3270   -0.1750 ha        1 SA9      0.132000
     14 HAF         0.9390    2.1690    0.0880 ha        1 SA9      0.157000
     15 HAG         2.1630   -0.9640   -0.9720 h1        1 SA9      0.039700
     16 HAGA        2.1250   -1.0630    0.8530 h1        1 SA9      0.039700
     17 OAB        -0.0830   -2.2350   -0.1720 oh        1 SA9     -0.504100
@<TRIPOS>BOND
     1    1    6 1   
     2    1    9 1   
     3    2    3 ar  
     4    2    4 ar  
     5    2   11 1   
     6    3    5 ar  
     7    3   12 1   
     8    4    7 ar  
     9    4   13 1   
    10    5    8 ar  
    11    5   14 1   
    12    6    8 1   
    13    6   15 1   
    14    6   16 1   
    15    7    8 ar  
    16    7   17 1   
    17   10   17 1   
@<TRIPOS>SUBSTRUCTURE
     1 SA9         1 TEMP              0 ****  ****    0 ROOT
