@<TRIPOS>MOLECULE
SA9
   17    16     1     0     0
SMALL
bcc


@<TRIPOS>ATOM
      1 OAA         0.8280   -0.0730   -0.8080 o         1 SA9     -0.518100
      2 CAC         3.1610   -0.5170    3.9860 c2        1 SA9     -0.167000
      3 CAD        -0.2090   -0.3070    1.9030 c2        1 SA9     -0.201000
      4 CAE         3.7910    0.1950    3.0510 ce        1 SA9     -0.148000
      5 CAF         0.9610    0.2910    2.1300 cf        1 SA9     -0.125000
      6 CAG         1.7790    0.4580   -0.2320 c         1 SA9      0.576100
      7 CAH         3.3670    0.2930    1.6540 ce        1 SA9      0.188100
      8 CAI         2.0810    0.3230    1.2010 cf        1 SA9     -0.284200
      9 HOAA       -0.4360   -0.8480    0.9730 ha        1 SA9      0.125500
     10 HOAB        4.2000    0.4240   -0.0850 ho        1 SA9      0.423000
     11 HAC         4.7220    0.7460    3.2740 ha        1 SA9      0.148000
     12 HAD         3.5260   -0.5520    5.0210 ha        1 SA9      0.127000
     13 HAE         2.2590   -1.1120    3.7850 ha        1 SA9      0.127000
     14 HAF         1.1420    0.8240    3.0830 ha        1 SA9      0.121000
     15 HAG        -1.0210   -0.2790    2.6420 ha        1 SA9      0.125500
     16 HAGA        2.4780    1.1190   -0.8010 h4        1 SA9     -0.021800
     17 OAB         4.4740    0.3600    0.8400 oh        1 SA9     -0.496100
@<TRIPOS>BOND
     1    1    6 2   
     2    2    4 2   
     3    2   12 1   
     4    2   13 1   
     5    3    5 2   
     6    3    9 1   
     7    3   15 1   
     8    4    7 1   
     9    4   11 1   
    10    5    8 1   
    11    5   14 1   
    12    6    8 1   
    13    6   16 1   
    14    7    8 2   
    15    7   17 1   
    16   10   17 1   
@<TRIPOS>SUBSTRUCTURE
     1 SA9         1 TEMP              0 ****  ****    0 ROOT
