@<TRIPOS>MOLECULE
SAA
   21    18     1     0     0
SMALL
bcc


@<TRIPOS>ATOM
      1 C1          0.2250    0.0210    0.0690 c1        1 SAA     -0.011100
      2 C2          1.6110    0.0400    0.0580 c1        1 SAA     -0.090250
      3 C3          2.3140    0.0330    1.2520 c1        1 SAA     -0.090250
      4 C4          1.6310    0.0080    2.4580 c1        1 SAA     -0.090250
      5 C5          0.2450   -0.0110    2.4690 c1        1 SAA     -0.090250
      6 C6         -0.4580   -0.0050    1.2740 c1        1 SAA     -0.060500
      7 C7         -0.5420    0.0750   -1.2340 c3        1 SAA      0.019900
      8 O8          0.3620    0.1680   -2.3080 oh        1 SAA     -0.640800
      9 C9         -1.3730   -1.1810   -1.3820 c3        1 SAA     -0.068100
     10 C10        -1.4510    1.2840   -1.2350 c         1 SAA      0.908600
     11 O1         -2.5450    1.2490   -0.6140 o         1 SAA     -0.824800
     12 O2         -1.1100    2.3270   -1.8530 o         1 SAA     -0.824800
     13 H2          2.0920    0.0570   -0.7920 ha        1 SAA      0.057000
     14 H3          3.2900    0.0470    1.2450 ha        1 SAA      0.057000
     15 H4          2.1260    0.0030    3.2990 ha        1 SAA      0.057000
     16 H5         -0.2360   -0.0310    3.3180 ha        1 SAA      0.057000
     17 H6         -1.4340   -0.0180    1.2820 ha        1 SAA      0.120500
     18 HO8        -0.0880    0.2880   -3.0650 ho        1 SAA      0.429000
     19 H91        -1.8460   -1.3600   -0.5420 hc        1 SAA      0.029033
     20 H92        -0.7880   -1.9370   -1.5950 hc        1 SAA      0.029033
     21 H93        -2.0250   -1.0580   -2.1040 hc        1 SAA      0.029033
@<TRIPOS>BOND
     1    1    6 3   
     2    1    7 1   
     3    2    3 3   
     4    2   13 1   
     5    3   14 1   
     6    4    5 3   
     7    4   15 1   
     8    5   16 1   
     9    6   17 1   
    10    7    8 1   
    11    7    9 1   
    12    7   10 1   
    13    8   18 1   
    14    9   19 1   
    15    9   20 1   
    16    9   21 1   
    17   10   11 1   
    18   10   12 1   
@<TRIPOS>SUBSTRUCTURE
     1 SAA         1 TEMP              0 ****  ****    0 ROOT
