@<TRIPOS>MOLECULE
SAA
   21    21     1     0     0
SMALL
bcc


@<TRIPOS>ATOM
      1 C1         -0.0220    0.0180   -0.0180 ca        1 SAA     -0.045300
      2 C2          1.2780   -0.4950    0.0680 ca        1 SAA     -0.122000
      3 C3          1.9550   -0.5070    1.2860 ca        1 SAA     -0.152000
      4 C4          1.3430   -0.0060    2.4340 ca        1 SAA     -0.161000
      5 C5          0.0510    0.5150    2.3550 ca        1 SAA     -0.152000
      6 C6         -0.6290    0.5300    1.1390 ca        1 SAA     -0.122000
      7 C7         -0.7800    0.0140   -1.3190 c3        1 SAA      0.054100
      8 O8          0.0950   -0.3500   -2.3830 oh        1 SAA     -0.640800
      9 C9         -1.8870   -1.0340   -1.2710 c3        1 SAA     -0.068100
     10 C10        -1.4190    1.4230   -1.5980 c         1 SAA      0.908600
     11 O1         -0.9070    2.0830   -2.5450 o         1 SAA     -0.824800
     12 O2         -2.3930    1.7940   -0.8930 o         1 SAA     -0.824800
     13 H2          1.7580   -0.8860   -0.8430 ha        1 SAA      0.159000
     14 H3          2.9750   -0.9120    1.3410 ha        1 SAA      0.107500
     15 H4          1.8760   -0.0170    3.3940 ha        1 SAA      0.103000
     16 H5         -0.4310    0.9220    3.2540 ha        1 SAA      0.107500
     17 H6         -1.6400    0.9690    1.0530 ha        1 SAA      0.159000
     18 HO8         0.2690    0.4590   -2.8920 ho        1 SAA      0.429000
     19 H91        -2.3800   -1.0940   -2.2700 hc        1 SAA      0.029033
     20 H92        -1.4730   -2.0380   -1.0150 hc        1 SAA      0.029033
     21 H93        -2.6400   -0.7280   -0.5070 hc        1 SAA      0.029033
@<TRIPOS>BOND
     1    1    2 ar  
     2    1    6 ar  
     3    1    7 1   
     4    2    3 ar  
     5    2   13 1   
     6    3    4 ar  
     7    3   14 1   
     8    4    5 ar  
     9    4   15 1   
    10    5    6 ar  
    11    5   16 1   
    12    6   17 1   
    13    7    8 1   
    14    7    9 1   
    15    7   10 1   
    16    8   18 1   
    17    9   19 1   
    18    9   20 1   
    19    9   21 1   
    20   10   11 1   
    21   10   12 1   
@<TRIPOS>SUBSTRUCTURE
     1 SAA         1 TEMP              0 ****  ****    0 ROOT
