@<TRIPOS>MOLECULE
SAA
   21    21     1     0     0
SMALL
bcc


@<TRIPOS>ATOM
      1 C1         -0.0200    0.0210   -0.0280 ca        1 SAA     -0.045300
      2 C2          1.2860   -0.4810    0.0020 ca        1 SAA     -0.122000
      3 C3          2.0240   -0.4640    1.1850 ca        1 SAA     -0.152000
      4 C4          1.4650    0.0540    2.3520 ca        1 SAA     -0.161000
      5 C5          0.1660    0.5640    2.3280 ca        1 SAA     -0.152000
      6 C6         -0.5730    0.5500    1.1470 ca        1 SAA     -0.122000
      7 C7         -0.8420   -0.0150   -1.2900 c3        1 SAA      0.054100
      8 O8         -0.0180   -0.3930   -2.3890 oh        1 SAA     -0.640800
      9 C9         -1.9360   -1.0700   -1.1670 c3        1 SAA     -0.068100
     10 C10        -1.5050    1.3830   -1.5630 c         1 SAA      0.908600
     11 O1         -1.0480    2.0290   -2.5480 o         1 SAA     -0.824800
     12 O2         -2.4470    1.7610   -0.8180 o         1 SAA     -0.824800
     13 H2          1.7240   -0.8850   -0.9240 ha        1 SAA      0.159000
     14 H3          3.0490   -0.8590    1.1960 ha        1 SAA      0.107500
     15 H4          2.0450    0.0670    3.2840 ha        1 SAA      0.103000
     16 H5         -0.2740    0.9850    3.2420 ha        1 SAA      0.107500
     17 H6         -1.5910    0.9800    1.1040 ha        1 SAA      0.159000
     18 HO8         0.1240    0.4070   -2.9220 ho        1 SAA      0.429000
     19 H91        -2.4780   -1.1530   -2.1380 hc        1 SAA      0.029033
     20 H92        -2.6530   -0.7550   -0.3720 hc        1 SAA      0.029033
     21 H93        -1.5020   -2.0650   -0.9120 hc        1 SAA      0.029033
@<TRIPOS>BOND
     1    1    2 ar  
     2    1    6 ar  
     3    1    7 1   
     4    2    3 ar  
     5    2   13 1   
     6    3    4 ar  
     7    3   14 1   
     8    4    5 ar  
     9    4   15 1   
    10    5    6 ar  
    11    5   16 1   
    12    6   17 1   
    13    7    8 1   
    14    7    9 1   
    15    7   10 1   
    16    8   18 1   
    17    9   19 1   
    18    9   20 1   
    19    9   21 1   
    20   10   11 1   
    21   10   12 1   
@<TRIPOS>SUBSTRUCTURE
     1 SAA         1 TEMP              0 ****  ****    0 ROOT
