@<TRIPOS>MOLECULE
SAA
   21    21     1     0     0
SMALL
bcc


@<TRIPOS>ATOM
      1 C1         -0.1150    0.1870    0.5190 ca        1 SAA     -0.045300
      2 C2         -1.2640    0.1180    1.3150 ca        1 SAA     -0.122000
      3 C3         -1.1650   -0.1560    2.6780 ca        1 SAA     -0.152000
      4 C4          0.0830   -0.3640    3.2630 ca        1 SAA     -0.161000
      5 C5          1.2330   -0.3050    2.4740 ca        1 SAA     -0.152000
      6 C6          1.1380   -0.0340    1.1110 ca        1 SAA     -0.122000
      7 C7         -0.2000    0.5080   -0.9510 c3        1 SAA      0.054100
      8 O8         -1.5620    0.4830   -1.3690 oh        1 SAA     -0.640800
      9 C9          0.3200    1.9200   -1.2040 c3        1 SAA     -0.068100
     10 C10         0.6480   -0.5100   -1.7950 c         1 SAA      0.908600
     11 O1         -0.0090   -1.3190   -2.5070 o         1 SAA     -0.824800
     12 O2          1.9040   -0.4490   -1.7320 o         1 SAA     -0.824800
     13 H2         -2.2480    0.2780    0.8470 ha        1 SAA      0.159000
     14 H3         -2.0740   -0.2090    3.2930 ha        1 SAA      0.107500
     15 H4          0.1610   -0.5780    4.3370 ha        1 SAA      0.103000
     16 H5          2.2180   -0.4800    2.9270 ha        1 SAA      0.107500
     17 H6          2.0360   -0.0160    0.4660 ha        1 SAA      0.159000
     18 HO8        -1.6770   -0.3240   -1.8980 ho        1 SAA      0.429000
     19 H91         1.4110    1.9490   -0.9710 hc        1 SAA      0.029033
     20 H92         0.1660    2.1810   -2.2770 hc        1 SAA      0.029033
     21 H93        -0.2220    2.6620   -0.5720 hc        1 SAA      0.029033
@<TRIPOS>BOND
     1    1    2 ar  
     2    1    6 ar  
     3    1    7 1   
     4    2    3 ar  
     5    2   13 1   
     6    3    4 ar  
     7    3   14 1   
     8    4    5 ar  
     9    4   15 1   
    10    5    6 ar  
    11    5   16 1   
    12    6   17 1   
    13    7    8 1   
    14    7    9 1   
    15    7   10 1   
    16    8   18 1   
    17    9   19 1   
    18    9   20 1   
    19    9   21 1   
    20   10   11 1   
    21   10   12 1   
@<TRIPOS>SUBSTRUCTURE
     1 SAA         1 TEMP              0 ****  ****    0 ROOT
