@<TRIPOS>MOLECULE
SAB
   38    38     1     0     0
SMALL
bcc


@<TRIPOS>ATOM
      1 C1         -0.2090    0.4250    0.2890 ca        1 SAB     -0.102600
      2 C2          1.0810   -0.1040    0.1480 ca        1 SAB     -0.094000
      3 C3          1.8750   -0.2930    1.2810 ca        1 SAB      0.015000
      4 C4          1.4080    0.0510    2.5610 ca        1 SAB     -0.433500
      5 C5          0.1160    0.5950    2.6750 ca        1 SAB      0.015000
      6 C6         -0.6930    0.7790    1.5540 ca        1 SAB     -0.094000
      7 C7         -0.9890    0.6740   -0.9440 c         1 SAB      0.554700
      8 O7         -0.6320    1.2800   -1.9370 o         1 SAB     -0.346100
      9 N          -2.3920    0.0760   -0.9740 n4        1 SAB     -0.678800
     10 C1'        -3.1190    0.3760   -2.2490 c3        1 SAB      0.102800
     11 C2'        -4.5090   -0.2530   -2.3170 c3        1 SAB     -0.103400
     12 C3'        -5.1470    0.0960   -3.6540 c3        1 SAB     -0.107400
     13 C4'        -6.5370   -0.5320   -3.7370 c3        1 SAB      0.101800
     14 N4'        -7.2400   -0.2450   -5.0200 n4        1 SAB     -0.837600
     15 S           2.2920   -0.3210    3.9150 sy        1 SAB      1.451200
     16 O1S         1.5250   -0.2590    5.0530 o         1 SAB     -0.524300
     17 O2S         3.2630   -1.2550    3.6510 o         1 SAB     -0.524300
     18 N3S         3.3200    1.2360    4.0800 n4        1 SAB     -0.806500
     19 H2          1.4820   -0.3660   -0.8490 ha        1 SAB      0.183500
     20 H3          2.8820   -0.7440    1.1570 ha        1 SAB      0.202500
     21 H5         -0.2840    0.8640    3.6750 ha        1 SAB      0.202500
     22 H6         -1.6920    1.2270    1.6860 ha        1 SAB      0.183500
     23 HN         -2.3120   -0.9430   -0.8570 hn        1 SAB      0.467300
     24 H1'1       -2.4790   -0.0020   -3.1010 hx        1 SAB      0.127200
     25 H1'2       -3.1930    1.5000   -2.3420 hx        1 SAB      0.127200
     26 H2'1       -4.4400   -1.3700   -2.2150 hc        1 SAB      0.082700
     27 H2'2       -5.1540    0.1310   -1.4810 hc        1 SAB      0.082700
     28 H3'1       -4.4990   -0.2830   -4.4900 hc        1 SAB      0.086700
     29 H3'2       -5.2180    1.2130   -3.7560 hc        1 SAB      0.086700
     30 H4'1       -7.1880   -0.1410   -2.8980 hx        1 SAB      0.123200
     31 H4'2       -6.4600   -1.6550   -3.6360 hx        1 SAB      0.123200
     32 HN41       -8.1680   -0.6930   -5.0130 hn        1 SAB      0.477133
     33 HN42       -7.3670    0.7670   -5.1470 hn        1 SAB      0.477133
     34 HN31        3.1520    1.6840    4.9870 hn        1 SAB      0.477133
     35 HN32        4.3210    1.0110    4.0450 hn        1 SAB      0.477133
     36 HN3        -2.9250    0.4450   -0.1780 hn        1 SAB      0.467300
     37 H4'3       -6.7050   -0.6100   -5.8170 hn        1 SAB      0.477133
     38 H3S3        3.1470    1.9380    3.3640 hn        1 SAB      0.477133
@<TRIPOS>BOND
     1    1    2 ar  
     2    1    6 ar  
     3    1    7 1   
     4    2    3 ar  
     5    2   19 1   
     6    3    4 ar  
     7    3   20 1   
     8    4    5 ar  
     9    4   15 1   
    10    5    6 ar  
    11    5   21 1   
    12    6   22 1   
    13    7    8 2   
    14    7    9 1   
    15    9   10 1   
    16    9   23 1   
    17    9   36 1   
    18   10   11 1   
    19   10   24 1   
    20   10   25 1   
    21   11   12 1   
    22   11   26 1   
    23   11   27 1   
    24   12   13 1   
    25   12   28 1   
    26   12   29 1   
    27   13   14 1   
    28   13   30 1   
    29   13   31 1   
    30   14   32 1   
    31   14   33 1   
    32   14   37 1   
    33   15   16 2   
    34   15   17 2   
    35   15   18 1   
    36   18   34 1   
    37   18   35 1   
    38   18   38 1   
@<TRIPOS>SUBSTRUCTURE
     1 SAB         1 TEMP              0 ****  ****    0 ROOT
