@<TRIPOS>MOLECULE
SAB
   38    38     1     0     0
SMALL
bcc


@<TRIPOS>ATOM
      1 C1         -0.2090    0.4240    0.2890 ca        1 SAB     -0.102600
      2 C2          1.0790   -0.1120    0.1520 ca        1 SAB     -0.094000
      3 C3          1.8710   -0.2950    1.2880 ca        1 SAB      0.015000
      4 C4          1.4050    0.0620    2.5640 ca        1 SAB     -0.433500
      5 C5          0.1150    0.6130    2.6730 ca        1 SAB      0.015000
      6 C6         -0.6920    0.7910    1.5500 ca        1 SAB     -0.094000
      7 C7         -0.9870    0.6670   -0.9470 c         1 SAB      0.554700
      8 O7         -0.6250    1.2610   -1.9450 o         1 SAB     -0.346100
      9 N          -2.3930    0.0770   -0.9730 n4        1 SAB     -0.678800
     10 C1'        -3.1160    0.3650   -2.2520 c3        1 SAB      0.102800
     11 C2'        -4.5110   -0.2540   -2.3150 c3        1 SAB     -0.103400
     12 C3'        -5.1440    0.0830   -3.6570 c3        1 SAB     -0.107400
     13 C4'        -6.5390   -0.5350   -3.7340 c3        1 SAB      0.101800
     14 N4'        -7.2370   -0.2600   -5.0220 n4        1 SAB     -0.837600
     15 S           2.2860   -0.3030    3.9220 sy        1 SAB      1.451200
     16 O1S         1.5190   -0.2270    5.0590 o         1 SAB     -0.524300
     17 O2S         3.2530   -1.2440    3.6670 o         1 SAB     -0.524300
     18 N3S         3.3220    1.2500    4.0740 n4        1 SAB     -0.806500
     19 H2          1.4790   -0.3840   -0.8420 ha        1 SAB      0.183500
     20 H3          2.8760   -0.7520    1.1680 ha        1 SAB      0.202500
     21 H5         -0.2840    0.8920    3.6710 ha        1 SAB      0.202500
     22 H6         -1.6890    1.2450    1.6780 ha        1 SAB      0.183500
     23 HN         -2.9260    0.4590   -0.1820 hn        1 SAB      0.467300
     24 H1'1       -3.1820    1.4890   -2.3600 hx        1 SAB      0.127200
     25 H1'2       -2.4780   -0.0280   -3.0990 hx        1 SAB      0.127200
     26 H2'1       -4.4500   -1.3700   -2.1980 hc        1 SAB      0.082700
     27 H2'2       -5.1540    0.1450   -1.4850 hc        1 SAB      0.082700
     28 H3'1       -5.2060    1.1990   -3.7740 hc        1 SAB      0.086700
     29 H3'2       -4.4980   -0.3130   -4.4870 hc        1 SAB      0.086700
     30 H4'1       -7.1880   -0.1270   -2.9020 hx        1 SAB      0.123200
     31 H4'2       -6.4710   -1.6570   -3.6170 hx        1 SAB      0.123200
     32 HN41       -8.1680   -0.7010   -5.0110 hn        1 SAB      0.477133
     33 HN42       -7.3550    0.7510   -5.1630 hn        1 SAB      0.477133
     34 HN31        4.3220    1.0200    4.0420 hn        1 SAB      0.477133
     35 HN32        3.1540    1.9470    3.3520 hn        1 SAB      0.477133
     36 HN3        -2.3200   -0.9410   -0.8430 hn        1 SAB      0.467300
     37 H4'3       -6.7040   -0.6400   -5.8130 hn        1 SAB      0.477133
     38 H3S3        3.1560    1.7070    4.9780 hn        1 SAB      0.477133
@<TRIPOS>BOND
     1    1    2 ar  
     2    1    6 ar  
     3    1    7 1   
     4    2    3 ar  
     5    2   19 1   
     6    3    4 ar  
     7    3   20 1   
     8    4    5 ar  
     9    4   15 1   
    10    5    6 ar  
    11    5   21 1   
    12    6   22 1   
    13    7    8 2   
    14    7    9 1   
    15    9   10 1   
    16    9   23 1   
    17    9   36 1   
    18   10   11 1   
    19   10   24 1   
    20   10   25 1   
    21   11   12 1   
    22   11   26 1   
    23   11   27 1   
    24   12   13 1   
    25   12   28 1   
    26   12   29 1   
    27   13   14 1   
    28   13   30 1   
    29   13   31 1   
    30   14   32 1   
    31   14   33 1   
    32   14   37 1   
    33   15   16 2   
    34   15   17 2   
    35   15   18 1   
    36   18   34 1   
    37   18   35 1   
    38   18   38 1   
@<TRIPOS>SUBSTRUCTURE
     1 SAB         1 TEMP              0 ****  ****    0 ROOT
