@<TRIPOS>MOLECULE
SAB
   35    35     1     0     0
SMALL
bcc


@<TRIPOS>ATOM
      1 C1         -0.6310    0.1930   -0.1250 ca        1 SAB     -0.078600
      2 C2         -1.6270    0.2530   -1.1060 ca        1 SAB     -0.122500
      3 C3         -1.2760    0.1590   -2.4510 ca        1 SAB     -0.026000
      4 C4          0.0600    0.0140   -2.8370 ca        1 SAB     -0.363500
      5 C5          1.0450   -0.0430   -1.8450 ca        1 SAB     -0.026000
      6 C6          0.7090    0.0440   -0.4960 ca        1 SAB     -0.122500
      7 C7         -1.0350    0.3180    1.3100 c         1 SAB      0.661700
      8 O7         -1.8660    1.1740    1.6730 o         1 SAB     -0.594100
      9 N          -0.4850   -0.5870    2.1940 n         1 SAB     -0.563900
     10 C1'        -0.7320   -0.5380    3.6080 c3        1 SAB      0.086000
     11 C2'         0.4750   -0.1060    4.4450 c3        1 SAB     -0.104400
     12 C3'         0.1190   -0.1470    5.9150 c3        1 SAB     -0.081400
     13 C4'         1.3130    0.3020    6.7560 c3        1 SAB      0.160800
     14 N4'         1.0710    0.2220    8.1770 n3        1 SAB     -0.916800
     15 S           0.4780   -0.1200   -4.4770 sy        1 SAB      1.525200
     16 O1S         1.7160   -0.7910   -4.5580 o         1 SAB     -0.655300
     17 O2S        -0.6200   -0.6750   -5.1650 o         1 SAB     -0.655300
     18 N3S         0.6700    1.4030   -4.9270 n3        1 SAB     -1.026700
     19 H2         -2.6790    0.3850   -0.8060 ha        1 SAB      0.152000
     20 H3         -2.0650    0.1810   -3.2240 ha        1 SAB      0.157500
     21 H5          2.1010   -0.1780   -2.1390 ha        1 SAB      0.157500
     22 H6          1.5020    0.0070    0.2660 ha        1 SAB      0.152000
     23 HN          0.2250   -1.2020    1.8740 hn        1 SAB      0.311500
     24 H1'1       -1.0490   -1.5700    3.9400 h1        1 SAB      0.065200
     25 H1'2       -1.5870    0.1710    3.8040 h1        1 SAB      0.065200
     26 H2'1        0.7870    0.9320    4.1580 hc        1 SAB      0.045700
     27 H2'2        1.3460   -0.7840    4.2490 hc        1 SAB      0.045700
     28 H3'1       -0.1820   -1.1880    6.2040 hc        1 SAB      0.051200
     29 H3'2       -0.7600    0.5230    6.1090 hc        1 SAB      0.051200
     30 H4'1        1.6010    1.3440    6.4230 h1        1 SAB      0.024700
     31 H4'2        2.1900   -0.3690    6.5290 h1        1 SAB      0.024700
     32 HN41        1.8310    0.6290    8.6830 hn        1 SAB      0.350300
     33 HN42        0.2220    0.6880    8.4260 hn        1 SAB      0.350300
     34 HN31        1.5340    1.8820   -4.8860 hn        1 SAB      0.449800
     35 HN32       -0.0580    1.9600   -5.2980 hn        1 SAB      0.449800
@<TRIPOS>BOND
     1    1    2 ar  
     2    1    6 ar  
     3    1    7 1   
     4    2    3 ar  
     5    2   19 1   
     6    3    4 ar  
     7    3   20 1   
     8    4    5 ar  
     9    4   15 1   
    10    5    6 ar  
    11    5   21 1   
    12    6   22 1   
    13    7    8 2   
    14    7    9 1   
    15    9   10 1   
    16    9   23 1   
    17   10   11 1   
    18   10   24 1   
    19   10   25 1   
    20   11   12 1   
    21   11   26 1   
    22   11   27 1   
    23   12   13 1   
    24   12   28 1   
    25   12   29 1   
    26   13   14 1   
    27   13   30 1   
    28   13   31 1   
    29   14   32 1   
    30   14   33 1   
    31   15   16 2   
    32   15   17 2   
    33   15   18 1   
    34   18   34 1   
    35   18   35 1   
@<TRIPOS>SUBSTRUCTURE
     1 SAB         1 TEMP              0 ****  ****    0 ROOT
