@<TRIPOS>MOLECULE
SAB
   38    38     1     0     0
SMALL
bcc


@<TRIPOS>ATOM
      1 C1         -0.2080    0.4200    0.2900 ca        1 SAB     -0.102600
      2 C2          1.0760   -0.1240    0.1600 ca        1 SAB     -0.094000
      3 C3          1.8650   -0.3030    1.2990 ca        1 SAB      0.015000
      4 C4          1.3990    0.0660    2.5710 ca        1 SAB     -0.433500
      5 C5          0.1120    0.6240    2.6730 ca        1 SAB      0.015000
      6 C6         -0.6930    0.7990    1.5470 ca        1 SAB     -0.094000
      7 C7         -0.9820    0.6580   -0.9490 c         1 SAB      0.554700
      8 O7         -0.6160    1.2440   -1.9510 o         1 SAB     -0.346100
      9 N          -2.3920    0.0740   -0.9740 ny        1 SAB     -0.678800
     10 C1'        -3.1110    0.3610   -2.2560 c3        1 SAB      0.102800
     11 C2'        -4.5080   -0.2540   -2.3180 c3        1 SAB     -0.103400
     12 C3'        -5.1390    0.0800   -3.6620 c3        1 SAB     -0.107400
     13 C4'        -6.5360   -0.5330   -3.7390 c3        1 SAB      0.101800
     14 N4'        -7.2320   -0.2600   -5.0290 nz        1 SAB     -0.837600
     15 S           2.2740   -0.2940    3.9340 sy        1 SAB      1.451200
     16 O1S         1.5050   -0.2060    5.0690 o         1 SAB     -0.524300
     17 O2S         3.2370   -1.2420    3.6880 o         1 SAB     -0.524300
     18 N3S         3.3180    1.2540    4.0770 nz        1 SAB     -0.806500
     19 H2          1.4770   -0.4060   -0.8310 ha        1 SAB      0.183500
     20 H3          2.8680   -0.7670    1.1850 ha        1 SAB      0.202500
     21 H5         -0.2880    0.9140    3.6680 ha        1 SAB      0.202500
     22 H6         -1.6870    1.2600    1.6700 ha        1 SAB      0.183500
     23 HN         -2.3230   -0.9430   -0.8400 hn        1 SAB      0.467300
     24 H1'1       -2.4740   -0.0380   -3.1000 hx        1 SAB      0.127200
     25 H1'2       -3.1730    1.4840   -2.3680 hx        1 SAB      0.127200
     26 H2'1       -4.4520   -1.3690   -2.1960 hc        1 SAB      0.082700
     27 H2'2       -5.1520    0.1510   -1.4900 hc        1 SAB      0.082700
     28 H3'1       -4.4930   -0.3210   -4.4900 hc        1 SAB      0.086700
     29 H3'2       -5.1970    1.1960   -3.7830 hc        1 SAB      0.086700
     30 H4'1       -7.1840   -0.1210   -2.9090 hx        1 SAB      0.123200
     31 H4'2       -6.4720   -1.6560   -3.6190 hx        1 SAB      0.123200
     32 HN41       -8.1640   -0.6980   -5.0170 hn        1 SAB      0.477133
     33 HN42       -7.3460    0.7500   -5.1730 hn        1 SAB      0.477133
     34 HN31        3.1530    1.7180    4.9770 hn        1 SAB      0.477133
     35 HN32        4.3170    1.0180    4.0480 hn        1 SAB      0.477133
     36 HN3        -2.9240    0.4630   -0.1860 hn        1 SAB      0.467300
     37 H4'3       -6.6990   -0.6450   -5.8180 hn        1 SAB      0.477133
     38 H3S3        3.1550    1.9470    3.3490 hn        1 SAB      0.477133
@<TRIPOS>BOND
     1    1    2 ar  
     2    1    6 ar  
     3    1    7 1   
     4    2    3 ar  
     5    2   19 1   
     6    3    4 ar  
     7    3   20 1   
     8    4    5 ar  
     9    4   15 1   
    10    5    6 ar  
    11    5   21 1   
    12    6   22 1   
    13    7    8 2   
    14    7    9 1   
    15    9   10 1   
    16    9   23 1   
    17    9   36 1   
    18   10   11 1   
    19   10   24 1   
    20   10   25 1   
    21   11   12 1   
    22   11   26 1   
    23   11   27 1   
    24   12   13 1   
    25   12   28 1   
    26   12   29 1   
    27   13   14 1   
    28   13   30 1   
    29   13   31 1   
    30   14   32 1   
    31   14   33 1   
    32   14   37 1   
    33   15   16 2   
    34   15   17 2   
    35   15   18 1   
    36   18   34 1   
    37   18   35 1   
    38   18   38 1   
@<TRIPOS>SUBSTRUCTURE
     1 SAB         1 TEMP              0 ****  ****    0 ROOT
