@<TRIPOS>MOLECULE
SAB
   35    31     1     0     0
SMALL
bcc


@<TRIPOS>ATOM
      1 C1          1.4600   -1.1990   -0.0650 c1        1 SAB     -0.057000
      2 C2          2.8360   -1.2530   -0.0970 c1        1 SAB     -0.066500
      3 C3          3.5550   -1.2960    1.0850 c1        1 SAB     -0.066500
      4 C4          2.8910   -1.2830    2.3000 c1        1 SAB     -0.808000
      5 C5          1.5150   -1.2280    2.3310 c1        1 SAB     -0.027000
      6 C6          0.7970   -1.1860    1.1490 c1        1 SAB     -0.137000
      7 C7          0.6700   -1.2150   -1.3610 c2        1 SAB      0.336000
      8 O7          1.2600   -1.2780   -2.4420 o         1 SAB     -0.355000
      9 N          -0.7680   -1.1060   -1.3300 n         1 SAB     -0.378000
     10 C1'        -1.4550   -0.4310   -2.3780 c3        1 SAB     -0.026000
     11 C2'        -2.7820    0.1440   -1.8340 c3        1 SAB     -0.176000
     12 C3'        -3.0630    1.4960   -2.4940 c3        1 SAB     -0.162000
     13 C4'        -3.9410    2.3550   -1.5560 c3        1 SAB     -0.077000
     14 N4'        -4.0540    3.6830   -2.0900 n3        1 SAB     -0.348000
     15 S           3.8080   -1.3930    3.8180 s4        1 SAB      2.080800
     16 O1S         4.8910   -2.3120    3.7040 o         1 SAB     -0.542900
     17 O2S         3.0190   -2.0170    4.8640 o         1 SAB     -0.542900
     18 N3S         4.3320    0.0940    4.2740 n2        1 SAB     -0.953000
     19 H2          3.3030   -1.2620   -0.9500 ha        1 SAB      0.159500
     20 H3          4.5230   -1.3350    1.0630 ha        1 SAB      0.159500
     21 H5          1.0500   -1.2190    3.1800 ha        1 SAB      0.157000
     22 H6         -0.1630   -1.1480    1.1720 ha        1 SAB      0.142000
     23 HN         -1.2400   -1.4900   -0.6470 hn        1 SAB      0.227000
     24 H1'1       -1.6440   -1.0570   -3.0970 h1        1 SAB      0.101000
     25 H1'2       -0.8980    0.2960   -2.7170 h1        1 SAB      0.101000
     26 H2'1       -3.5220   -0.4830   -2.0370 hc        1 SAB      0.087500
     27 H2'2       -2.7110    0.2630   -0.8650 hc        1 SAB      0.087500
     28 H3'1       -3.5320    1.3540   -3.3380 hc        1 SAB      0.090500
     29 H3'2       -2.2090    1.9640   -2.6650 hc        1 SAB      0.090500
     30 H4'1       -4.8460    1.9490   -1.4840 h1        1 SAB      0.063000
     31 H4'2       -3.5280    2.3940   -0.6640 h1        1 SAB      0.063000
     32 HN41       -3.5780    4.2650   -1.5650 hn        1 SAB      0.145000
     33 HN42       -4.9360    3.9330   -2.1030 hn        1 SAB      0.145000
     34 HN31        5.2210    0.2970    4.2350 hn        1 SAB      0.245000
     35 HN32        3.7400    0.7060    4.6010 hn        1 SAB      0.245000
@<TRIPOS>BOND
     1    1    6 1   
     2    1    7 1   
     3    2    3 1   
     4    2   19 1   
     5    3   20 1   
     6    4    5 1   
     7    4   15 1   
     8    5   21 1   
     9    6   22 1   
    10    7    8 1   
    11    7    9 1   
    12    9   10 1   
    13    9   23 1   
    14   10   11 1   
    15   10   24 1   
    16   10   25 1   
    17   11   12 1   
    18   11   26 1   
    19   11   27 1   
    20   12   13 1   
    21   12   28 1   
    22   12   29 1   
    23   13   14 1   
    24   13   30 1   
    25   13   31 1   
    26   14   32 1   
    27   14   33 1   
    28   15   16 1   
    29   15   17 1   
    30   18   34 1   
    31   18   35 1   
@<TRIPOS>SUBSTRUCTURE
     1 SAB         1 TEMP              0 ****  ****    0 ROOT
