@<TRIPOS>MOLECULE
SAC
   18    17     1     0     0
SMALL
bcc


@<TRIPOS>ATOM
      1 C1A         0.5830    0.2030    2.0110 c         1 SAC      0.637100
      2 C2A         0.3220   -0.4560    3.3520 c3        1 SAC     -0.177100
      3 OAC         1.0180    1.3760    1.9700 o         1 SAC     -0.646100
      4 N           0.3880   -0.5710    0.8920 n         1 SAC     -0.513900
      5 CA          0.3040   -0.0100   -0.4400 c3        1 SAC     -0.090300
      6 C          -0.8630   -0.6510   -1.2720 c         1 SAC      0.908600
      7 O          -1.0180   -0.2080   -2.4440 o         1 SAC     -0.832300
      8 OXT        -1.5710   -1.5510   -0.7430 o         1 SAC     -0.832300
      9 CB          1.6180   -0.1900   -1.2280 c3        1 SAC      0.159400
     10 OG          1.6610    0.6500   -2.3610 oh        1 SAC     -0.646800
     11 H2A1        0.5880    0.2600    4.1650 hc        1 SAC      0.050033
     12 H2A2       -0.7570   -0.7280    3.4420 hc        1 SAC      0.050033
     13 H2A3        0.9390   -1.3790    3.4640 hc        1 SAC      0.050033
     14 H          -0.1620   -1.4020    0.9990 hn        1 SAC      0.320500
     15 HA          0.1000    1.0980   -0.3710 h1        1 SAC      0.071700
     16 HB2         2.5090    0.1090   -0.6130 h1        1 SAC      0.021700
     17 HB3         1.7280   -1.2610   -1.5490 h1        1 SAC      0.021700
     18 HG          0.8060    0.5670   -2.8180 ho        1 SAC      0.445000
@<TRIPOS>BOND
     1    1    2 1   
     2    1    3 2   
     3    1    4 1   
     4    2   11 1   
     5    2   12 1   
     6    2   13 1   
     7    4    5 1   
     8    4   14 1   
     9    5    6 1   
    10    5    9 1   
    11    5   15 1   
    12    6    7 1   
    13    6    8 1   
    14    9   10 1   
    15    9   16 1   
    16    9   17 1   
    17   10   18 1   
@<TRIPOS>SUBSTRUCTURE
     1 SAC         1 TEMP              0 ****  ****    0 ROOT
