@<TRIPOS>MOLECULE
SAF
   28    28     1     0     0
SMALL
bcc


@<TRIPOS>ATOM
      1 C1          0.0360   -0.5210    0.0560 ca        1 SAF     -0.163000
      2 C3         -0.0400    0.4110    2.2960 ca        1 SAF     -0.142000
      3 C4          1.3670    0.4350    2.3110 ca        1 SAF      0.148100
      4 C5          2.1060   -0.0130    1.2040 ca        1 SAF     -0.175000
      5 C6          1.4310   -0.4880    0.0830 ca        1 SAF     -0.071000
      6 O4          1.9440    0.9250    3.4530 oh        1 SAF     -0.479100
      7 N2         -2.7490    0.8840    0.1770 n4        1 SAF     -0.685400
      8 C7         -4.1980    0.6920   -0.0720 c3        1 SAF      0.082100
      9 C8         -2.4830    2.2650    0.6580 c3        1 SAF      0.082100
     10 C9         -2.1960   -0.1410    1.1650 c3        1 SAF      0.195800
     11 C10        -2.6740   -1.5550    0.8620 c3        1 SAF     -0.125100
     12 C40        -0.6940   -0.0750    1.1640 ca        1 SAF     -0.139300
     13 H1         -0.4780   -0.9220   -0.8300 ha        1 SAF      0.134000
     14 H3         -0.5890    0.7570    3.1840 ha        1 SAF      0.161000
     15 H5          3.2060    0.0060    1.2270 ha        1 SAF      0.162000
     16 H6          2.0040   -0.8470   -0.7880 ha        1 SAF      0.160000
     17 H4          2.9080    0.8550    3.3680 ho        1 SAF      0.442000
     18 H7C1       -4.5830    1.5430   -0.6960 hx        1 SAF      0.104200
     19 H7C2       -4.3620   -0.2740   -0.6210 hx        1 SAF      0.104200
     20 H7C3       -4.7470    0.6670    0.9060 hx        1 SAF      0.104200
     21 H8C1       -3.1120    2.4740    1.5640 hx        1 SAF      0.104200
     22 H8C2       -2.7390    2.9960   -0.1540 hx        1 SAF      0.104200
     23 H8C3       -1.3960    2.3610    0.9280 hx        1 SAF      0.104200
     24 H9         -2.5960    0.1670    2.1790 hx        1 SAF      0.105700
     25 H101       -2.1250   -2.2540    1.5450 hc        1 SAF      0.077367
     26 H102       -2.4530   -1.8570   -0.1910 hc        1 SAF      0.077367
     27 H103       -3.7680   -1.6650    1.0570 hc        1 SAF      0.077367
     28 H21        -2.2420    0.7490   -0.7100 hn        1 SAF      0.448800
@<TRIPOS>BOND
     1    1    5 ar  
     2    1   12 ar  
     3    1   13 1   
     4    2    3 ar  
     5    2   12 ar  
     6    2   14 1   
     7    3    4 ar  
     8    3    6 1   
     9    4    5 ar  
    10    4   15 1   
    11    5   16 1   
    12    6   17 1   
    13    7    8 1   
    14    7    9 1   
    15    7   10 1   
    16    7   28 1   
    17    8   18 1   
    18    8   19 1   
    19    8   20 1   
    20    9   21 1   
    21    9   22 1   
    22    9   23 1   
    23   10   11 1   
    24   10   12 1   
    25   10   24 1   
    26   11   25 1   
    27   11   26 1   
    28   11   27 1   
@<TRIPOS>SUBSTRUCTURE
     1 SAF         1 TEMP              0 ****  ****    0 ROOT
