@<TRIPOS>MOLECULE
SAF
   28    28     1     0     0
SMALL
bcc


@<TRIPOS>ATOM
      1 C1         -0.0060   -0.6030    0.0070 ca        1 SAF     -0.163000
      2 C3         -0.0250    0.2200    2.2910 ca        1 SAF     -0.142000
      3 C4          1.3810    0.1740    2.2970 ca        1 SAF      0.148100
      4 C5          2.0910   -0.2540    1.1640 ca        1 SAF     -0.175000
      5 C6          1.3880   -0.6400    0.0260 ca        1 SAF     -0.071000
      6 O4          1.9870    0.5790    3.4560 oh        1 SAF     -0.479100
      7 N2         -2.7180    0.9290    0.2170 n4        1 SAF     -0.685400
      8 C7         -4.1760    0.8210   -0.0300 c3        1 SAF      0.082100
      9 C8         -2.3820    2.2700    0.7630 c3        1 SAF      0.082100
     10 C9         -2.2120   -0.1690    1.1500 c3        1 SAF      0.195800
     11 C10        -2.7600   -1.5410    0.7830 c3        1 SAF     -0.125100
     12 C40        -0.7090   -0.1770    1.1410 ca        1 SAF     -0.139300
     13 H1         -0.5440   -0.9350   -0.8930 ha        1 SAF      0.134000
     14 H3         -0.5520    0.5490    3.1990 ha        1 SAF      0.161000
     15 H5          3.1920   -0.2900    1.1790 ha        1 SAF      0.162000
     16 H6          1.9380   -0.9830   -0.8660 ha        1 SAF      0.160000
     17 H4          2.9470    0.4660    3.3610 ho        1 SAF      0.442000
     18 H7C1       -4.5220    1.7190   -0.6090 hx        1 SAF      0.104200
     19 H7C2       -4.3910   -0.1080   -0.6230 hx        1 SAF      0.104200
     20 H7C3       -4.7210    0.7750    0.9500 hx        1 SAF      0.104200
     21 H8C1       -2.9950    2.4650    1.6820 hx        1 SAF      0.104200
     22 H8C2       -1.2900    2.2990    1.0290 hx        1 SAF      0.104200
     23 H8C3       -2.6060    3.0520   -0.0110 hx        1 SAF      0.104200
     24 H9         -2.5910    0.1090    2.1810 hx        1 SAF      0.105700
     25 H101       -2.5590   -1.8020   -0.2840 hc        1 SAF      0.077367
     26 H102       -2.2440   -2.2990    1.4270 hc        1 SAF      0.077367
     27 H103       -3.8570   -1.6070    0.9810 hc        1 SAF      0.077367
     28 H21        -2.2240    0.8130   -0.6790 hn        1 SAF      0.448800
@<TRIPOS>BOND
     1    1    5 ar  
     2    1   12 ar  
     3    1   13 1   
     4    2    3 ar  
     5    2   12 ar  
     6    2   14 1   
     7    3    4 ar  
     8    3    6 1   
     9    4    5 ar  
    10    4   15 1   
    11    5   16 1   
    12    6   17 1   
    13    7    8 1   
    14    7    9 1   
    15    7   10 1   
    16    7   28 1   
    17    8   18 1   
    18    8   19 1   
    19    8   20 1   
    20    9   21 1   
    21    9   22 1   
    22    9   23 1   
    23   10   11 1   
    24   10   12 1   
    25   10   24 1   
    26   11   25 1   
    27   11   26 1   
    28   11   27 1   
@<TRIPOS>SUBSTRUCTURE
     1 SAF         1 TEMP              0 ****  ****    0 ROOT
