@<TRIPOS>MOLECULE
SAF
   27    24     1     0     0
SMALL
bcc


@<TRIPOS>ATOM
      1 C1          1.3220   -0.4260   -0.9410 c1        1 SAF     -0.061500
      2 C3          1.1950   -0.0410    1.4670 c1        1 SAF     -0.100500
      3 C4          2.5600   -0.0250    1.5330 c1        1 SAF      0.102600
      4 C5          3.3380   -0.2120    0.3460 c1        1 SAF     -0.155500
      5 C6          2.7040   -0.4100   -0.8740 c1        1 SAF     -0.061500
      6 O4          3.1720    0.0650    2.7390 oh        1 SAF     -0.483600
      7 N2         -1.4950    0.4960   -0.8770 n3        1 SAF     -0.734600
      8 C7         -2.8770    0.2540   -1.0410 c3        1 SAF      0.154600
      9 C8         -1.2870    1.8880   -0.5480 c3        1 SAF      0.154600
     10 C9         -1.0040   -0.3200    0.1830 c3        1 SAF      0.191600
     11 C10        -1.4210   -1.7350   -0.0480 c3        1 SAF     -0.092100
     12 C40         0.5550   -0.2400    0.2390 c1        1 SAF     -0.015100
     13 H1          0.8540   -0.5720   -1.8390 ha        1 SAF      0.083000
     14 H3          0.6860    0.0810    2.2510 ha        1 SAF      0.091500
     15 H5          4.3460   -0.2010    0.3960 ha        1 SAF      0.074500
     16 H6          3.2650   -0.5460   -1.7300 ha        1 SAF      0.083000
     17 H4          3.4470    0.8380    2.8540 ho        1 SAF      0.418000
     18 H7C1       -3.0140   -0.6420   -1.5140 h1        1 SAF      0.032700
     19 H7C2       -3.2820    0.2270   -0.2100 h1        1 SAF      0.032700
     20 H7C3       -3.3080    1.0300   -1.6210 h1        1 SAF      0.032700
     21 H8C1       -1.6840    2.4520   -1.2460 h1        1 SAF      0.032700
     22 H8C2       -1.7220    2.0920    0.3360 h1        1 SAF      0.032700
     23 H8C3       -0.4090    2.0550   -0.4930 h1        1 SAF      0.032700
     24 H9         -1.3910    0.0090    1.0740 h1        1 SAF      0.025700
     25 H101       -2.3450   -1.8480    0.2250 hc        1 SAF      0.043033
     26 H102       -0.8860   -2.2950    0.4430 hc        1 SAF      0.043033
     27 H103       -1.3220   -1.9740   -1.1040 hc        1 SAF      0.043033
@<TRIPOS>BOND
     1    1    5 3   
     2    1   13 1   
     3    2   12 3   
     4    2   14 1   
     5    3    4 3   
     6    3    6 1   
     7    4   15 1   
     8    5   16 1   
     9    6   17 1   
    10    7    8 1   
    11    7    9 1   
    12    7   10 1   
    13    8   18 1   
    14    8   19 1   
    15    8   20 1   
    16    9   21 1   
    17    9   22 1   
    18    9   23 1   
    19   10   11 1   
    20   10   12 1   
    21   10   24 1   
    22   11   25 1   
    23   11   26 1   
    24   11   27 1   
@<TRIPOS>SUBSTRUCTURE
     1 SAF         1 TEMP              0 ****  ****    0 ROOT
