@<TRIPOS>MOLECULE
SAF
   28    28     1     0     0
SMALL
bcc


@<TRIPOS>ATOM
      1 C1          0.0280   -0.4980   -0.0300 ca        1 SAF     -0.159000
      2 C3          0.0550    0.3160    2.2560 ca        1 SAF     -0.202000
      3 C4          1.4560    0.3020    2.2250 ca        1 SAF      0.149100
      4 C5          2.1500   -0.1000    1.0650 ca        1 SAF     -0.114000
      5 C6          1.4260   -0.4960   -0.0510 ca        1 SAF     -0.081000
      6 O4          2.2300    0.6840    3.2880 oh        1 SAF     -0.470100
      7 N2         -2.7140    0.9200    0.1990 nx        1 SAF     -0.685400
      8 C7         -4.1770    0.7720    0.0070 c3        1 SAF      0.082600
      9 C8         -2.3870    2.2920    0.6660 c3        1 SAF      0.082600
     10 C9         -2.1550   -0.1220    1.1670 c3        1 SAF      0.196800
     11 C10        -2.6730   -1.5230    0.8710 c3        1 SAF     -0.125100
     12 C40        -0.6530   -0.0940    1.1210 ca        1 SAF     -0.134300
     13 H1         -0.5230   -0.8460   -0.9160 ha        1 SAF      0.133000
     14 H3         -0.4720    0.6240    3.1710 ha        1 SAF      0.144000
     15 H5          3.2520   -0.0980    1.0680 ha        1 SAF      0.180000
     16 H6          1.9580   -0.8210   -0.9600 ha        1 SAF      0.162000
     17 H4          1.6530    0.8690    4.0460 ho        1 SAF      0.433000
     18 H7C1       -4.3910   -0.1880   -0.5340 hx        1 SAF      0.104033
     19 H7C2       -4.5600    1.6350   -0.6020 hx        1 SAF      0.104033
     20 H7C3       -4.6890    0.7630    1.0060 hx        1 SAF      0.104033
     21 H8C1       -2.6600    3.0310   -0.1340 hx        1 SAF      0.104033
     22 H8C2       -1.2850    2.3570    0.8830 hx        1 SAF      0.104033
     23 H8C3       -2.9660    2.5190    1.6000 hx        1 SAF      0.104033
     24 H9         -2.5190    0.1920    2.1930 hx        1 SAF      0.102700
     25 H101       -2.1260   -2.2380    1.5370 hc        1 SAF      0.077700
     26 H102       -3.7650   -1.6080    1.0910 hc        1 SAF      0.077700
     27 H103       -2.4830   -1.8250   -0.1880 hc        1 SAF      0.077700
     28 H21        -2.2470    0.7690   -0.7060 hn        1 SAF      0.449800
@<TRIPOS>BOND
     1    1    5 ar  
     2    1   12 ar  
     3    1   13 1   
     4    2    3 ar  
     5    2   12 ar  
     6    2   14 1   
     7    3    4 ar  
     8    3    6 1   
     9    4    5 ar  
    10    4   15 1   
    11    5   16 1   
    12    6   17 1   
    13    7    8 1   
    14    7    9 1   
    15    7   10 1   
    16    7   28 1   
    17    8   18 1   
    18    8   19 1   
    19    8   20 1   
    20    9   21 1   
    21    9   22 1   
    22    9   23 1   
    23   10   11 1   
    24   10   12 1   
    25   10   24 1   
    26   11   25 1   
    27   11   26 1   
    28   11   27 1   
@<TRIPOS>SUBSTRUCTURE
     1 SAF         1 TEMP              0 ****  ****    0 ROOT
