@<TRIPOS>MOLECULE
SAF
   27    27     1     0     0
SMALL
bcc


@<TRIPOS>ATOM
      1 C1          0.9850    0.9140   -0.3200 ca        1 SAF     -0.140000
      2 C3         -0.7650   -0.5850   -1.0660 ca        1 SAF     -0.158000
      3 C4         -0.2650   -0.4820   -2.3740 ca        1 SAF      0.119100
      4 C5          0.8540    0.3110   -2.6610 ca        1 SAF     -0.213000
      5 C6          1.4720    1.0050   -1.6220 ca        1 SAF     -0.098000
      6 O4         -0.9340   -1.2000   -3.3410 oh        1 SAF     -0.500100
      7 N2          0.3380   -0.3220    2.3430 n3        1 SAF     -0.734600
      8 C7         -0.0800   -0.1240    3.7120 c3        1 SAF      0.154600
      9 C8          0.8630   -1.6500    2.1080 c3        1 SAF      0.154600
     10 C9         -0.6970    0.0450    1.3630 c3        1 SAF      0.225800
     11 C10        -1.3760    1.3830    1.6670 c3        1 SAF     -0.092100
     12 C40        -0.1340    0.1200   -0.0400 ca        1 SAF     -0.049300
     13 H1          1.4800    1.4620    0.4950 ha        1 SAF      0.148000
     14 H3         -1.6430   -1.2180   -0.8730 ha        1 SAF      0.149000
     15 H5          1.2360    0.3830   -3.6880 ha        1 SAF      0.132000
     16 H6          2.3530    1.6290   -1.8350 ha        1 SAF      0.133000
     17 H4         -0.4900   -1.0420   -4.1870 ho        1 SAF      0.418000
     18 H7C1        0.7120   -0.5240    4.3990 h1        1 SAF      0.032700
     19 H7C2       -0.1880    0.9760    3.9020 h1        1 SAF      0.032700
     20 H7C3       -1.0530   -0.6300    3.9600 h1        1 SAF      0.032700
     21 H8C1        1.7400   -1.8130    2.7870 h1        1 SAF      0.032700
     22 H8C2        0.1090   -2.4640    2.2950 h1        1 SAF      0.032700
     23 H8C3        1.2110   -1.7240    1.0450 h1        1 SAF      0.032700
     24 H9         -1.5130   -0.7480    1.3660 h1        1 SAF      0.025700
     25 H101       -0.6230    2.1980    1.7830 hc        1 SAF      0.043033
     26 H102       -2.0560    1.6430    0.8200 hc        1 SAF      0.043033
     27 H103       -1.9850    1.3130    2.6000 hc        1 SAF      0.043033
@<TRIPOS>BOND
     1    1    5 ar  
     2    1   12 ar  
     3    1   13 1   
     4    2    3 ar  
     5    2   12 ar  
     6    2   14 1   
     7    3    4 ar  
     8    3    6 1   
     9    4    5 ar  
    10    4   15 1   
    11    5   16 1   
    12    6   17 1   
    13    7    8 1   
    14    7    9 1   
    15    7   10 1   
    16    8   18 1   
    17    8   19 1   
    18    8   20 1   
    19    9   21 1   
    20    9   22 1   
    21    9   23 1   
    22   10   11 1   
    23   10   12 1   
    24   10   24 1   
    25   11   25 1   
    26   11   26 1   
    27   11   27 1   
@<TRIPOS>SUBSTRUCTURE
     1 SAF         1 TEMP              0 ****  ****    0 ROOT
