@<TRIPOS>MOLECULE
SAG
   40    41     1     0     0
SMALL
bcc


@<TRIPOS>ATOM
      1 F3          0.1810    0.9660   -0.3110 f         1 SAG     -0.131900
      2 C3          1.4460    0.5230   -0.1240 ca        1 SAG      0.131900
      3 C2          2.0060    0.5430    1.1650 ca        1 SAG     -0.157000
      4 C4          2.1920    0.0440   -1.2190 ca        1 SAG     -0.148000
      5 C5          3.4910   -0.4080   -1.0110 ca        1 SAG     -0.103000
      6 C6          4.0570   -0.3840    0.2640 ca        1 SAG     -0.116000
      7 C1          3.3160    0.0930    1.3490 ca        1 SAG     -0.084300
      8 C7          3.9160    0.1630    2.7140 c3        1 SAG      0.175700
      9 O8          4.6840   -1.0430    2.9010 os        1 SAG     -0.307900
     10 C9          5.2760   -1.2020    4.1250 ca        1 SAG      0.190100
     11 C10         5.9640   -2.4260    4.2910 ca        1 SAG     -0.195500
     12 C11         6.6030   -2.6890    5.4890 ca        1 SAG     -0.039000
     13 C14         5.2420   -0.2610    5.1660 ca        1 SAG     -0.195500
     14 C13         5.8920   -0.5430    6.3630 ca        1 SAG     -0.039000
     15 C12         6.5770   -1.7510    6.5420 ca        1 SAG     -0.248900
     16 C15         7.2680   -2.0980    7.7780 ce        1 SAG      0.594800
     17 N16         7.3630   -1.3130    8.8030 n2        1 SAG     -0.739900
     18 C17         8.0450   -1.7520    9.9950 c3        1 SAG      0.089500
     19 C18         9.5040   -2.1880    9.8300 c3        1 SAG     -0.126100
     20 C19         8.0370   -0.6540   11.0650 c         1 SAG      0.551100
     21 O20         8.3750   -0.7630   12.2310 o         1 SAG     -0.409100
     22 N21         7.5670    0.7280   10.6660 nz        1 SAG     -0.745400
     23 H2          1.4070    0.9130    2.0100 ha        1 SAG      0.148000
     24 H4          1.7400    0.0310   -2.2210 ha        1 SAG      0.159000
     25 H5          4.0770   -0.7880   -1.8620 ha        1 SAG      0.147000
     26 H6          5.0820   -0.7490    0.4240 ha        1 SAG      0.147000
     27 H7C1        4.6060    1.0460    2.7930 h1        1 SAG      0.055200
     28 H7C2        3.1230    0.2210    3.5070 h1        1 SAG      0.055200
     29 H10         5.9770   -3.1510    3.4630 ha        1 SAG      0.162000
     30 H14         4.7100    0.6940    5.0470 ha        1 SAG      0.162000
     31 H11         7.1370   -3.6450    5.6170 ha        1 SAG      0.135500
     32 H13         5.8550    0.2010    7.1730 ha        1 SAG      0.135500
     33 H15         7.7180   -3.1220    7.7690 h4        1 SAG     -0.008200
     34 H17         7.4730   -2.6070   10.4860 h1        1 SAG      0.115700
     35 H181       10.1200   -1.3870    9.3560 hc        1 SAG      0.075700
     36 H182        9.9390   -2.4440   10.8270 hc        1 SAG      0.075700
     37 H183        9.5450   -3.0980    9.1810 hc        1 SAG      0.075700
     38 H211        8.1280    1.0630    9.8760 hn        1 SAG      0.470800
     39 H212        6.5880    0.6760   10.3630 hn        1 SAG      0.470800
     40 H213        7.6500    1.3820   11.4520 hn        1 SAG      0.470800
@<TRIPOS>BOND
     1    1    2 1   
     2    2    3 ar  
     3    2    4 ar  
     4    3    7 ar  
     5    3   23 1   
     6    4    5 ar  
     7    4   24 1   
     8    5    6 ar  
     9    5   25 1   
    10    6    7 ar  
    11    6   26 1   
    12    7    8 1   
    13    8    9 1   
    14    8   27 1   
    15    8   28 1   
    16    9   10 1   
    17   10   11 ar  
    18   10   13 ar  
    19   11   12 ar  
    20   11   29 1   
    21   12   15 ar  
    22   12   31 1   
    23   13   14 ar  
    24   13   30 1   
    25   14   15 ar  
    26   14   32 1   
    27   15   16 1   
    28   16   17 2   
    29   16   33 1   
    30   17   18 1   
    31   18   19 1   
    32   18   20 1   
    33   18   34 1   
    34   19   35 1   
    35   19   36 1   
    36   19   37 1   
    37   20   21 2   
    38   20   22 1   
    39   22   38 1   
    40   22   39 1   
    41   22   40 1   
@<TRIPOS>SUBSTRUCTURE
     1 SAG         1 TEMP              0 ****  ****    0 ROOT
