@<TRIPOS>MOLECULE
SAG
   39    40     1     0     0
SMALL
bcc


@<TRIPOS>ATOM
      1 F3         -6.3940   -1.7800   -1.3880 f         1 SAG     -0.139900
      2 C3         -5.9490   -0.8550   -0.5040 ca        1 SAG      0.124900
      3 C2         -4.5650   -0.6860   -0.3100 ca        1 SAG     -0.138000
      4 C4         -6.8710   -0.0720    0.2150 ca        1 SAG     -0.161000
      5 C5         -6.3980    0.8770    1.1170 ca        1 SAG     -0.105000
      6 C6         -5.0300    1.0540    1.3110 ca        1 SAG     -0.140000
      7 C1         -4.1130    0.2700    0.5990 ca        1 SAG     -0.068300
      8 C7         -2.6550    0.4580    0.8600 c3        1 SAG      0.172700
      9 O8         -1.9420    0.0750   -0.3250 os        1 SAG     -0.324900
     10 C9         -0.5710    0.2170   -0.2710 ca        1 SAG      0.144100
     11 C10         0.0970   -0.1030   -1.4710 ca        1 SAG     -0.191500
     12 C11         1.4790   -0.0030   -1.5240 ca        1 SAG     -0.061000
     13 C14         0.1480    0.6330    0.8550 ca        1 SAG     -0.191500
     14 C13         1.5370    0.7290    0.7830 ca        1 SAG     -0.061000
     15 C12         2.2140    0.4120   -0.4000 ca        1 SAG     -0.191900
     16 C15         3.6750    0.4990   -0.5210 ce        1 SAG      0.489800
     17 N16         4.4450    0.8330    0.4560 n2        1 SAG     -0.608900
     18 C17         5.8720    0.9490    0.2700 c3        1 SAG      0.054500
     19 C18         6.6320    0.7700    1.5850 c3        1 SAG     -0.082100
     20 C19         6.4960    0.0010   -0.7760 c         1 SAG      0.626100
     21 O20         7.1520    0.4480   -1.7360 o         1 SAG     -0.608100
     22 N21         6.3000   -1.3470   -0.6240 n         1 SAG     -0.670000
     23 H2         -3.8490   -1.2970   -0.8800 ha        1 SAG      0.165000
     24 H4         -7.9490   -0.2150    0.0560 ha        1 SAG      0.150000
     25 H5         -7.1150    1.4940    1.6810 ha        1 SAG      0.139000
     26 H6         -4.6700    1.8120    2.0220 ha        1 SAG      0.136000
     27 H7C1       -2.4260    1.5320    1.0990 h1        1 SAG      0.053700
     28 H7C2       -2.3300   -0.1980    1.7140 h1        1 SAG      0.053700
     29 H10        -0.4870   -0.4260   -2.3450 ha        1 SAG      0.147000
     30 H14        -0.3610    0.8870    1.7950 ha        1 SAG      0.147000
     31 H11         2.0030   -0.2510   -2.4610 ha        1 SAG      0.147000
     32 H13         2.0990    1.0580    1.6720 ha        1 SAG      0.147000
     33 H15         4.0510    0.2500   -1.5410 h4        1 SAG     -0.017200
     34 H17         6.0790    2.0000   -0.1080 h1        1 SAG      0.096700
     35 H181        6.4490   -0.2360    2.0310 hc        1 SAG      0.047700
     36 H182        7.7250    0.8860    1.3870 hc        1 SAG      0.047700
     37 H183        6.3140    1.5450    2.3220 hc        1 SAG      0.047700
     38 H211        5.8520   -1.7050    0.1800 hn        1 SAG      0.313500
     39 H212        6.7370   -1.9800   -1.2460 hn        1 SAG      0.313500
@<TRIPOS>BOND
     1    1    2 1   
     2    2    3 ar  
     3    2    4 ar  
     4    3    7 ar  
     5    3   23 1   
     6    4    5 ar  
     7    4   24 1   
     8    5    6 ar  
     9    5   25 1   
    10    6    7 ar  
    11    6   26 1   
    12    7    8 1   
    13    8    9 1   
    14    8   27 1   
    15    8   28 1   
    16    9   10 1   
    17   10   11 ar  
    18   10   13 ar  
    19   11   12 ar  
    20   11   29 1   
    21   12   15 ar  
    22   12   31 1   
    23   13   14 ar  
    24   13   30 1   
    25   14   15 ar  
    26   14   32 1   
    27   15   16 1   
    28   16   17 2   
    29   16   33 1   
    30   17   18 1   
    31   18   19 1   
    32   18   20 1   
    33   18   34 1   
    34   19   35 1   
    35   19   36 1   
    36   19   37 1   
    37   20   21 2   
    38   20   22 1   
    39   22   38 1   
    40   22   39 1   
@<TRIPOS>SUBSTRUCTURE
     1 SAG         1 TEMP              0 ****  ****    0 ROOT
