@<TRIPOS>MOLECULE
SAG
   40    41     1     0     0
SMALL
bcc


@<TRIPOS>ATOM
      1 F3          0.1630    0.8880   -0.3160 f         1 SAG     -0.131900
      2 C3          1.4420    0.4860   -0.1290 ca        1 SAG      0.131900
      3 C2          1.9920    0.4990    1.1650 ca        1 SAG     -0.157000
      4 C4          2.2110    0.0550   -1.2270 ca        1 SAG     -0.148000
      5 C5          3.5230   -0.3570   -1.0190 ca        1 SAG     -0.103000
      6 C6          4.0790   -0.3390    0.2600 ca        1 SAG     -0.116000
      7 C1          3.3150    0.0900    1.3490 ca        1 SAG     -0.084300
      8 C7          3.9030    0.1530    2.7190 c3        1 SAG      0.175700
      9 O8          4.7130   -1.0280    2.8880 os        1 SAG     -0.307900
     10 C9          5.3020   -1.1910    4.1120 ca        1 SAG      0.190100
     11 C10         6.0340   -2.3920    4.2580 ca        1 SAG     -0.195500
     12 C11         6.6740   -2.6570    5.4550 ca        1 SAG     -0.039000
     13 C14         5.2270   -0.2740    5.1720 ca        1 SAG     -0.195500
     14 C13         5.8780   -0.5570    6.3680 ca        1 SAG     -0.039000
     15 C12         6.6060   -1.7430    6.5270 ca        1 SAG     -0.248900
     16 C15         7.3020   -2.0910    7.7600 ce        1 SAG      0.594800
     17 N16         7.3570   -1.3260    8.8030 n2        1 SAG     -0.739900
     18 C17         8.0470   -1.7660    9.9910 c3        1 SAG      0.089500
     19 C18         9.5250   -2.1340    9.8290 c3        1 SAG     -0.126100
     20 C19         7.9840   -0.6960   11.0880 c         1 SAG      0.551100
     21 O20         8.3160   -0.8200   12.2530 o         1 SAG     -0.409100
     22 N21         7.4590    0.6740   10.7180 n4        1 SAG     -0.745400
     23 H2          1.3750    0.8300    2.0130 ha        1 SAG      0.148000
     24 H4          1.7660    0.0470   -2.2330 ha        1 SAG      0.159000
     25 H5          4.1280   -0.6990   -1.8730 ha        1 SAG      0.147000
     26 H6          5.1160   -0.6720    0.4200 ha        1 SAG      0.147000
     27 H7C1        3.1040    0.1660    3.5080 h1        1 SAG      0.055200
     28 H7C2        4.5600    1.0590    2.8220 h1        1 SAG      0.055200
     29 H10         6.0780   -3.0990    3.4150 ha        1 SAG      0.162000
     30 H14         4.6610    0.6630    5.0690 ha        1 SAG      0.162000
     31 H11         7.2410   -3.5950    5.5670 ha        1 SAG      0.135500
     32 H13         5.8100    0.1680    7.1930 ha        1 SAG      0.135500
     33 H15         7.7920   -3.0950    7.7310 h4        1 SAG     -0.008200
     34 H17         7.5090   -2.6560   10.4560 h1        1 SAG      0.115700
     35 H181       10.1100   -1.2960    9.3800 hc        1 SAG      0.075700
     36 H182        9.6100   -3.0250    9.1570 hc        1 SAG      0.075700
     37 H183        9.9630   -2.3970   10.8230 hc        1 SAG      0.075700
     38 H211        6.4850    0.5880   10.4050 hn        1 SAG      0.470800
     39 H212        8.0120    1.0520    9.9420 hn        1 SAG      0.470800
     40 H213        7.5070    1.3110   11.5200 hn        1 SAG      0.470800
@<TRIPOS>BOND
     1    1    2 1   
     2    2    3 ar  
     3    2    4 ar  
     4    3    7 ar  
     5    3   23 1   
     6    4    5 ar  
     7    4   24 1   
     8    5    6 ar  
     9    5   25 1   
    10    6    7 ar  
    11    6   26 1   
    12    7    8 1   
    13    8    9 1   
    14    8   27 1   
    15    8   28 1   
    16    9   10 1   
    17   10   11 ar  
    18   10   13 ar  
    19   11   12 ar  
    20   11   29 1   
    21   12   15 ar  
    22   12   31 1   
    23   13   14 ar  
    24   13   30 1   
    25   14   15 ar  
    26   14   32 1   
    27   15   16 1   
    28   16   17 2   
    29   16   33 1   
    30   17   18 1   
    31   18   19 1   
    32   18   20 1   
    33   18   34 1   
    34   19   35 1   
    35   19   36 1   
    36   19   37 1   
    37   20   21 2   
    38   20   22 1   
    39   22   38 1   
    40   22   39 1   
    41   22   40 1   
@<TRIPOS>SUBSTRUCTURE
     1 SAG         1 TEMP              0 ****  ****    0 ROOT
