@<TRIPOS>MOLECULE
SAG
   40    41     1     0     0
SMALL
bcc


@<TRIPOS>ATOM
      1 F3          0.2500    1.0480   -0.3530 f         1 SAG     -0.131900
      2 C3          1.5010    0.5710   -0.1560 ca        1 SAG      0.131900
      3 C2          2.0580    0.5930    1.1360 ca        1 SAG     -0.157000
      4 C4          2.2360    0.0530   -1.2400 ca        1 SAG     -0.148000
      5 C5          3.5200   -0.4350   -1.0220 ca        1 SAG     -0.103000
      6 C6          4.0820   -0.4090    0.2550 ca        1 SAG     -0.116000
      7 C1          3.3530    0.1060    1.3300 ca        1 SAG     -0.084300
      8 C7          3.9510    0.1780    2.6950 c3        1 SAG      0.175700
      9 O8          4.6820   -1.0480    2.9030 os        1 SAG     -0.307900
     10 C9          5.2650   -1.2060    4.1310 ca        1 SAG      0.190100
     11 C10         5.9150   -2.4490    4.3170 ca        1 SAG     -0.195500
     12 C11         6.5420   -2.7130    5.5210 ca        1 SAG     -0.039000
     13 C14         5.2570   -0.2490    5.1570 ca        1 SAG     -0.195500
     14 C13         5.8950   -0.5330    6.3610 ca        1 SAG     -0.039000
     15 C12         6.5420   -1.7590    6.5600 ca        1 SAG     -0.248900
     16 C15         7.2180   -2.1100    7.8030 ce        1 SAG      0.594800
     17 N16         7.3370   -1.3110    8.8150 n2        1 SAG     -0.739900
     18 C17         8.0010   -1.7540   10.0170 c3        1 SAG      0.089500
     19 C18         9.4440   -2.2420    9.8630 c3        1 SAG     -0.126100
     20 C19         8.0290   -0.6380   11.0680 c         1 SAG      0.551100
     21 O20         8.3580   -0.7400   12.2370 o         1 SAG     -0.409100
     22 N21         7.6110    0.7530   10.6440 n4        1 SAG     -0.745400
     23 H2          1.4680    0.9920    1.9730 ha        1 SAG      0.148000
     24 H4          1.7860    0.0400   -2.2440 ha        1 SAG      0.159000
     25 H5          4.0970   -0.8440   -1.8650 ha        1 SAG      0.147000
     26 H6          5.0960   -0.8020    0.4230 ha        1 SAG      0.147000
     27 H7C1        4.6680    1.0410    2.7640 h1        1 SAG      0.055200
     28 H7C2        3.1590    0.2720    3.4850 h1        1 SAG      0.055200
     29 H10         5.9070   -3.1860    3.5000 ha        1 SAG      0.162000
     30 H14         4.7550    0.7190    5.0230 ha        1 SAG      0.162000
     31 H11         7.0450   -3.6830    5.6650 ha        1 SAG      0.135500
     32 H13         5.8790    0.2230    7.1600 ha        1 SAG      0.135500
     33 H15         7.6330   -3.1480    7.8120 h4        1 SAG     -0.008200
     34 H17         7.3990   -2.5800   10.5200 h1        1 SAG      0.115700
     35 H181       10.0890   -1.4710    9.3780 hc        1 SAG      0.075700
     36 H182        9.4560   -3.1630    9.2290 hc        1 SAG      0.075700
     37 H183        9.8690   -2.4960   10.8650 hc        1 SAG      0.075700
     38 H211        6.6310    0.7310   10.3380 hn        1 SAG      0.470800
     39 H212        7.7140    1.4160   11.4190 hn        1 SAG      0.470800
     40 H213        8.1860    1.0540    9.8510 hn        1 SAG      0.470800
@<TRIPOS>BOND
     1    1    2 1   
     2    2    3 ar  
     3    2    4 ar  
     4    3    7 ar  
     5    3   23 1   
     6    4    5 ar  
     7    4   24 1   
     8    5    6 ar  
     9    5   25 1   
    10    6    7 ar  
    11    6   26 1   
    12    7    8 1   
    13    8    9 1   
    14    8   27 1   
    15    8   28 1   
    16    9   10 1   
    17   10   11 ar  
    18   10   13 ar  
    19   11   12 ar  
    20   11   29 1   
    21   12   15 ar  
    22   12   31 1   
    23   13   14 ar  
    24   13   30 1   
    25   14   15 ar  
    26   14   32 1   
    27   15   16 1   
    28   16   17 2   
    29   16   33 1   
    30   17   18 1   
    31   18   19 1   
    32   18   20 1   
    33   18   34 1   
    34   19   35 1   
    35   19   36 1   
    36   19   37 1   
    37   20   21 2   
    38   20   22 1   
    39   22   38 1   
    40   22   39 1   
    41   22   40 1   
@<TRIPOS>SUBSTRUCTURE
     1 SAG         1 TEMP              0 ****  ****    0 ROOT
