@<TRIPOS>MOLECULE
SAH
   45    47     1     0     0
SMALL
bcc


@<TRIPOS>ATOM
      1 N          -0.0500    1.4740    6.0040 n3        1 SAH     -0.895800
      2 CA         -1.1250    0.7900    5.2950 c3        1 SAH      0.017500
      3 CB         -0.6170   -0.2050    4.2480 c3        1 SAH     -0.061400
      4 CG          0.1310    0.4960    3.1450 c3        1 SAH      0.016700
      5 SD          0.6440   -0.7310    1.9590 ss        1 SAH     -0.318200
      6 C          -2.1400    0.0410    6.2250 c         1 SAH      0.890600
      7 O          -1.9750    0.1350    7.4740 o         1 SAH     -0.837800
      8 OXT        -3.0770   -0.5930    5.6680 o         1 SAH     -0.837800
      9 C5'         1.6920    0.2390    0.9170 c3        1 SAH     -0.050300
     10 C4'         2.5630   -0.6390    0.0440 c3        1 SAH      0.111100
     11 O4'         1.7840   -1.5350   -0.7660 os        1 SAH     -0.388600
     12 C3'         3.4070    0.2200   -0.9310 c3        1 SAH      0.125100
     13 O3'         4.7450   -0.2080   -0.9790 oh        1 SAH     -0.575800
     14 C2'         2.6740    0.1060   -2.2880 c3        1 SAH      0.077100
     15 O2'         3.5920   -0.3530   -3.2560 oh        1 SAH     -0.592800
     16 C1'         1.5700   -0.9820   -2.0630 c3        1 SAH      0.220800
     17 N9          0.2220   -0.4790   -2.1970 na        1 SAH     -0.296000
     18 C8         -0.8260   -0.4580   -1.2390 cc        1 SAH      0.434700
     19 N7         -1.9850   -0.0040   -1.7380 nd        1 SAH     -0.550100
     20 C5         -1.7210    0.2920   -3.0840 ca        1 SAH     -0.220200
     21 C6         -2.5330    0.8070   -4.1490 ca        1 SAH      0.757200
     22 N6         -3.8610    1.0710   -3.9340 nh        1 SAH     -0.959500
     23 N1         -1.9600    1.0060   -5.3850 nb        1 SAH     -0.803000
     24 C2         -0.6460    0.6850   -5.5260 ca        1 SAH      0.678900
     25 N3          0.2360    0.1900   -4.6280 nb        1 SAH     -0.759000
     26 C4         -0.3290   -0.0040   -3.3950 ca        1 SAH      0.438800
     27 HN1         0.5560    0.7800    6.4050 hn        1 SAH      0.333300
     28 HN2        -0.4700    1.9590    6.7800 hn        1 SAH      0.333300
     29 HA         -1.7180    1.5900    4.7620 h1        1 SAH      0.040700
     30 HB1         0.0410   -0.9710    4.7330 hc        1 SAH      0.065200
     31 HB2        -1.5190   -0.7380    3.8390 hc        1 SAH      0.065200
     32 HG1        -0.5230    1.2500    2.6450 h1        1 SAH      0.059700
     33 HG2         1.0290    1.0250    3.5460 h1        1 SAH      0.059700
     34 H5'1        1.0650    0.9100    0.2790 h1        1 SAH      0.065700
     35 H5'2        2.3540    0.8890    1.5440 h1        1 SAH      0.065700
     36 H4'         3.2100   -1.3160    0.6670 h1        1 SAH      0.109700
     37 H3'         3.4630    1.2900   -0.5920 h1        1 SAH      0.094700
     38 HO3'        4.7730   -1.0420   -1.4680 ho        1 SAH      0.419000
     39 H2'         2.2420    1.0950   -2.5930 h1        1 SAH      0.076700
     40 HO2'        3.1450   -0.2870   -4.1120 ho        1 SAH      0.428000
     41 H1'         1.7040   -1.8430   -2.7870 h2        1 SAH      0.099700
     42 H8         -0.6410   -0.7830   -0.1920 h5        1 SAH      0.124800
     43 HN61       -4.4070    1.5050   -4.6340 hn        1 SAH      0.447300
     44 HN62       -4.2140    0.9970   -3.0110 hn        1 SAH      0.447300
     45 H2         -0.2380    0.8610   -6.5440 h5        1 SAH      0.042100
@<TRIPOS>BOND
     1    1    2 1   
     2    1   27 1   
     3    1   28 1   
     4    2    3 1   
     5    2    6 1   
     6    2   29 1   
     7    3    4 1   
     8    3   30 1   
     9    3   31 1   
    10    4    5 1   
    11    4   32 1   
    12    4   33 1   
    13    5    9 1   
    14    6    7 1   
    15    6    8 1   
    16    9   10 1   
    17    9   34 1   
    18    9   35 1   
    19   10   11 1   
    20   10   12 1   
    21   10   36 1   
    22   11   16 1   
    23   12   13 1   
    24   12   14 1   
    25   12   37 1   
    26   13   38 1   
    27   14   15 1   
    28   14   16 1   
    29   14   39 1   
    30   15   40 1   
    31   16   17 1   
    32   16   41 1   
    33   17   18 1   
    34   17   26 1   
    35   18   19 2   
    36   18   42 1   
    37   19   20 1   
    38   20   21 ar  
    39   20   26 ar  
    40   21   22 1   
    41   21   23 ar  
    42   22   43 1   
    43   22   44 1   
    44   23   24 ar  
    45   24   25 ar  
    46   24   45 1   
    47   25   26 ar  
@<TRIPOS>SUBSTRUCTURE
     1 SAH         1 TEMP              0 ****  ****    0 ROOT
