@<TRIPOS>MOLECULE
SAI
   46    48     1     0     0
SMALL
bcc


@<TRIPOS>ATOM
      1 N           0.1730    1.3250    2.5400 nz        1 SAI     -0.839600
      2 CA          0.7980    1.9560    1.3440 c3        1 SAI     -0.077500
      3 CB          2.1550    1.3730    0.9900 c3        1 SAI     -0.085400
      4 CG          3.2430    1.7000    1.9780 c3        1 SAI     -0.016300
      5 SE          3.1420    0.5450    3.3320 ss        1 SAI     -0.322200
      6 C          -0.1670    1.7590    0.0690 c         1 SAI      0.937600
      7 O           0.1580    2.4220   -0.9300 o         1 SAI     -0.760800
      8 OXT        -1.1220    0.9630    0.2480 o         1 SAI     -0.760800
      9 C5'         3.7530    1.4520    4.7200 c3        1 SAI     -0.044300
     10 C4'         2.6450    1.7400    5.7150 c3        1 SAI      0.103100
     11 O4'         3.2270    2.0920    6.9800 os        1 SAI     -0.401600
     12 C3'         1.7100    2.8900    5.2770 c3        1 SAI      0.124100
     13 O3'         0.3820    2.4400    5.1390 oh        1 SAI     -0.623800
     14 C2'         1.8950    4.0020    6.3310 c3        1 SAI      0.087100
     15 O2'         0.6950    4.1240    7.0640 oh        1 SAI     -0.599800
     16 C1'         3.0200    3.4750    7.2820 c3        1 SAI      0.230800
     17 N9          4.2590    4.2070    7.1680 na        1 SAI     -0.302000
     18 C8          5.5690    3.7000    6.9730 cc        1 SAI      0.418700
     19 N7          6.5200    4.6410    7.0480 nd        1 SAI     -0.538100
     20 C5          5.8370    5.8360    7.3220 ca        1 SAI     -0.231200
     21 C6          6.2740    7.1890    7.5260 ca        1 SAI      0.770200
     22 N6          7.6010    7.5060    7.4410 nv        1 SAI     -0.953500
     23 N1          5.3300    8.1550    7.7980 nb        1 SAI     -0.791000
     24 C2          4.0290    7.7690    7.8510 ca        1 SAI      0.696900
     25 N3          3.4720    6.5450    7.6770 nb        1 SAI     -0.766000
     26 C4          4.4050    5.5820    7.4130 ca        1 SAI      0.453800
     27 HN1        -0.4970    0.6150    2.1850 hn        1 SAI      0.451467
     28 HN2        -0.3460    2.0220    3.0740 hn        1 SAI      0.451467
     29 HA          0.8860    3.0600    1.5350 hx        1 SAI      0.082700
     30 HB1         2.4210    1.8140   -0.0160 hc        1 SAI      0.098700
     31 HB2         2.0820    0.2610    0.8460 hc        1 SAI      0.098700
     32 HG1         4.2450    1.5870    1.4940 h1        1 SAI      0.074200
     33 HG2         3.1570    2.7500    2.3450 h1        1 SAI      0.074200
     34 H5'1        4.2610    2.3940    4.4030 h1        1 SAI      0.092700
     35 H5'2        4.5210    0.8050    5.2190 h1        1 SAI      0.092700
     36 H4'         2.0530    0.8030    5.9200 h1        1 SAI      0.096700
     37 H3'         1.9870    3.2710    4.2550 h1        1 SAI      0.084700
     38 HO3'       -0.0300    2.4040    6.0140 ho        1 SAI      0.449000
     39 H2'         2.1640    4.9740    5.8390 h1        1 SAI      0.094700
     40 HO2'        0.7170    4.9870    7.5000 ho        1 SAI      0.443000
     41 H1'         2.6740    3.4990    8.3610 h2        1 SAI      0.110700
     42 H8          5.7280    2.6300    6.7850 h5        1 SAI      0.083800
     43 HN61        7.9130    8.4310    7.6040 hn        1 SAI      0.453300
     44 HN62        8.2580    6.7840    7.2790 hn        1 SAI      0.453300
     45 H2          3.3130    8.5900    8.0750 h5        1 SAI      0.055100
     46 HN3         0.8810    0.8900    3.1500 hn        1 SAI      0.451467
@<TRIPOS>BOND
     1    1    2 1   
     2    1   27 1   
     3    1   28 1   
     4    1   46 1   
     5    2    3 1   
     6    2    6 1   
     7    2   29 1   
     8    3    4 1   
     9    3   30 1   
    10    3   31 1   
    11    4    5 1   
    12    4   32 1   
    13    4   33 1   
    14    5    9 1   
    15    6    7 1   
    16    6    8 1   
    17    9   10 1   
    18    9   34 1   
    19    9   35 1   
    20   10   11 1   
    21   10   12 1   
    22   10   36 1   
    23   11   16 1   
    24   12   13 1   
    25   12   14 1   
    26   12   37 1   
    27   13   38 1   
    28   14   15 1   
    29   14   16 1   
    30   14   39 1   
    31   15   40 1   
    32   16   17 1   
    33   16   41 1   
    34   17   18 1   
    35   17   26 1   
    36   18   19 2   
    37   18   42 1   
    38   19   20 1   
    39   20   21 ar  
    40   20   26 ar  
    41   21   22 1   
    42   21   23 ar  
    43   22   43 1   
    44   22   44 1   
    45   23   24 ar  
    46   24   25 ar  
    47   24   45 1   
    48   25   26 ar  
@<TRIPOS>SUBSTRUCTURE
     1 SAI         1 TEMP              0 ****  ****    0 ROOT
