@<TRIPOS>MOLECULE
SAI
   46    48     1     0     0
SMALL
bcc


@<TRIPOS>ATOM
      1 N           0.1650    1.3210    2.5510 n4        1 SAI     -0.839600
      2 CA          0.8400    1.8850    1.3470 c3        1 SAI     -0.077500
      3 CB          2.1860    1.2470    1.0520 c3        1 SAI     -0.085400
      4 CG          3.2590    1.5790    2.0550 c3        1 SAI     -0.016300
      5 SE          3.0870    0.4810    3.4490 ss        1 SAI     -0.322200
      6 C          -0.0990    1.6680    0.0560 c         1 SAI      0.937600
      7 O           0.2710    2.2810   -0.9590 o         1 SAI     -0.760800
      8 OXT        -1.0830    0.9080    0.2410 o         1 SAI     -0.760800
      9 C5'         3.6920    1.4230    4.8160 c3        1 SAI     -0.044300
     10 C4'         2.5690    1.7840    5.7700 c3        1 SAI      0.103100
     11 O4'         3.1300    2.1670    7.0350 os        1 SAI     -0.401600
     12 C3'         1.6830    2.9440    5.2640 c3        1 SAI      0.124100
     13 O3'         0.3450    2.5300    5.1090 oh        1 SAI     -0.623800
     14 C2'         1.8770    4.0900    6.2790 c3        1 SAI      0.087100
     15 O2'         0.6640    4.2790    6.9750 oh        1 SAI     -0.599800
     16 C1'         2.9600    3.5660    7.2790 c3        1 SAI      0.230800
     17 N9          4.2240    4.2540    7.1710 na        1 SAI     -0.302000
     18 C8          5.5220    3.7000    7.0300 cc        1 SAI      0.418700
     19 N7          6.5000    4.6120    7.0940 nd        1 SAI     -0.538100
     20 C5          5.8490    5.8380    7.3040 ca        1 SAI     -0.231200
     21 C6          6.3250    7.1840    7.4670 ca        1 SAI      0.770200
     22 N6          7.6620    7.4560    7.4060 nh        1 SAI     -0.953500
     23 N1          5.4050    8.1880    7.6770 nb        1 SAI     -0.791000
     24 C2          4.0920    7.8460    7.7100 ca        1 SAI      0.696900
     25 N3          3.5000    6.6340    7.5680 nb        1 SAI     -0.766000
     26 C4          4.4080    5.6330    7.3660 ca        1 SAI      0.453800
     27 HN1        -0.5180    0.6190    2.2050 hn        1 SAI      0.451467
     28 HN2         0.8440    0.8880    3.1950 hn        1 SAI      0.451467
     29 HA          0.9580    2.9920    1.4980 hx        1 SAI      0.082700
     30 HB1         2.0820    0.1330    0.9480 hc        1 SAI      0.098700
     31 HB2         2.4900    1.6400    0.0370 hc        1 SAI      0.098700
     32 HG1         4.2680    1.4170    1.6010 h1        1 SAI      0.074200
     33 HG2         3.1960    2.6450    2.3780 h1        1 SAI      0.074200
     34 H5'1        4.2370    2.3360    4.4760 h1        1 SAI      0.092700
     35 H5'2        4.4260    0.7730    5.3600 h1        1 SAI      0.092700
     36 H4'         1.9430    0.8750    5.9950 h1        1 SAI      0.096700
     37 H3'         1.9970    3.2760    4.2360 h1        1 SAI      0.084700
     38 HO3'       -0.0900    2.5420    5.9740 ho        1 SAI      0.449000
     39 H2'         2.1890    5.0330    5.7580 h1        1 SAI      0.094700
     40 HO2'        0.7030    5.1570    7.3780 ho        1 SAI      0.443000
     41 H1'         2.5880    3.6430    8.3470 h2        1 SAI      0.110700
     42 H8          5.6520    2.6190    6.8880 h5        1 SAI      0.083800
     43 HN61        8.3000    6.7070    7.2890 hn        1 SAI      0.453300
     44 HN62        8.0000    8.3760    7.5410 hn        1 SAI      0.453300
     45 H2          3.3970    8.6970    7.8820 h5        1 SAI      0.055100
     46 HN3        -0.3450    2.0540    3.0430 hn        1 SAI      0.451467
@<TRIPOS>BOND
     1    1    2 1   
     2    1   27 1   
     3    1   28 1   
     4    1   46 1   
     5    2    3 1   
     6    2    6 1   
     7    2   29 1   
     8    3    4 1   
     9    3   30 1   
    10    3   31 1   
    11    4    5 1   
    12    4   32 1   
    13    4   33 1   
    14    5    9 1   
    15    6    7 1   
    16    6    8 1   
    17    9   10 1   
    18    9   34 1   
    19    9   35 1   
    20   10   11 1   
    21   10   12 1   
    22   10   36 1   
    23   11   16 1   
    24   12   13 1   
    25   12   14 1   
    26   12   37 1   
    27   13   38 1   
    28   14   15 1   
    29   14   16 1   
    30   14   39 1   
    31   15   40 1   
    32   16   17 1   
    33   16   41 1   
    34   17   18 1   
    35   17   26 1   
    36   18   19 2   
    37   18   42 1   
    38   19   20 1   
    39   20   21 ar  
    40   20   26 ar  
    41   21   22 1   
    42   21   23 ar  
    43   22   43 1   
    44   22   44 1   
    45   23   24 ar  
    46   24   25 ar  
    47   24   45 1   
    48   25   26 ar  
@<TRIPOS>SUBSTRUCTURE
     1 SAI         1 TEMP              0 ****  ****    0 ROOT
