@<TRIPOS>MOLECULE
SAI
   45    47     1     0     0
SMALL
bcc


@<TRIPOS>ATOM
      1 N          -0.1450    1.6050    5.7210 n3        1 SAI     -0.895800
      2 CA         -1.2040    0.8960    5.0140 c3        1 SAI      0.017500
      3 CB         -0.6730   -0.0950    3.9730 c3        1 SAI     -0.061400
      4 CG          0.0660    0.6140    2.8690 c3        1 SAI      0.016700
      5 SE          0.6070   -0.6100    1.6920 ss        1 SAI     -0.318200
      6 C          -2.2070    0.1320    5.9450 c         1 SAI      0.890600
      7 O          -2.0480    0.2360    7.1940 o         1 SAI     -0.837800
      8 OXT        -3.1290   -0.5240    5.3880 o         1 SAI     -0.837800
      9 C5'         1.6390    0.3750    0.6480 c3        1 SAI     -0.050300
     10 C4'         2.5300   -0.4910   -0.2180 c3        1 SAI      0.111100
     11 O4'         1.7700   -1.4070   -1.0250 os        1 SAI     -0.388600
     12 C3'         3.3600    0.3790   -1.1950 c3        1 SAI      0.125100
     13 O3'         4.7060   -0.0240   -1.2360 oh        1 SAI     -0.575800
     14 C2'         2.6340    0.2440   -2.5530 c3        1 SAI      0.077100
     15 O2'         3.5630   -0.2040   -3.5160 oh        1 SAI     -0.592800
     16 C1'         1.5500   -0.8650   -2.3260 c3        1 SAI      0.220800
     17 N9          0.1930   -0.3890   -2.4660 na        1 SAI     -0.296000
     18 C8         -0.8590   -0.3830   -1.5120 cc        1 SAI      0.434700
     19 N7         -2.0240    0.0460   -2.0170 nd        1 SAI     -0.550100
     20 C5         -1.7620    0.3390   -3.3640 ca        1 SAI     -0.220200
     21 C6         -2.5800    0.8330   -4.4340 ca        1 SAI      0.757200
     22 N6         -3.9140    1.0720   -4.2240 nh        1 SAI     -0.959500
     23 N1         -2.0070    1.0350   -5.6690 nb        1 SAI     -0.803000
     24 C2         -0.6870    0.7390   -5.8050 ca        1 SAI      0.678900
     25 N3          0.2020    0.2670   -4.9010 nb        1 SAI     -0.759000
     26 C4         -0.3630    0.0690   -3.6690 ca        1 SAI      0.438800
     27 HN1        -0.5770    2.0860    6.4940 hn        1 SAI      0.333300
     28 HN2         0.4740    0.9250    6.1290 hn        1 SAI      0.333300
     29 HA         -1.8100    1.6800    4.4740 h1        1 SAI      0.040700
     30 HB1        -0.0010   -0.8460    4.4650 hc        1 SAI      0.065200
     31 HB2        -1.5620   -0.6490    3.5650 hc        1 SAI      0.065200
     32 HG1        -0.6020    1.3510    2.3630 h1        1 SAI      0.059700
     33 HG2         0.9510    1.1620    3.2700 h1        1 SAI      0.059700
     34 H5'1        1.0000    1.0300    0.0040 h1        1 SAI      0.065700
     35 H5'2        2.2850    1.0410    1.2740 h1        1 SAI      0.065700
     36 H4'         3.1870   -1.1520    0.4120 h1        1 SAI      0.109700
     37 H3'         3.3930    1.4510   -0.8610 h1        1 SAI      0.094700
     38 HO3'        4.7520   -0.8590   -1.7200 ho        1 SAI      0.419000
     39 H2'         2.1830    1.2220   -2.8650 h1        1 SAI      0.076700
     40 HO2'        3.1180   -0.1510   -4.3730 ho        1 SAI      0.428000
     41 H1'         1.7030   -1.7280   -3.0440 h2        1 SAI      0.099700
     42 H8         -0.6710   -0.6980   -0.4620 h5        1 SAI      0.124800
     43 HN61       -4.4660    1.4910   -4.9290 hn        1 SAI      0.447300
     44 HN62       -4.2680    0.9960   -3.3030 hn        1 SAI      0.447300
     45 H2         -0.2790    0.9180   -6.8230 h5        1 SAI      0.042100
@<TRIPOS>BOND
     1    1    2 1   
     2    1   27 1   
     3    1   28 1   
     4    2    3 1   
     5    2    6 1   
     6    2   29 1   
     7    3    4 1   
     8    3   30 1   
     9    3   31 1   
    10    4    5 1   
    11    4   32 1   
    12    4   33 1   
    13    5    9 1   
    14    6    7 1   
    15    6    8 1   
    16    9   10 1   
    17    9   34 1   
    18    9   35 1   
    19   10   11 1   
    20   10   12 1   
    21   10   36 1   
    22   11   16 1   
    23   12   13 1   
    24   12   14 1   
    25   12   37 1   
    26   13   38 1   
    27   14   15 1   
    28   14   16 1   
    29   14   39 1   
    30   15   40 1   
    31   16   17 1   
    32   16   41 1   
    33   17   18 1   
    34   17   26 1   
    35   18   19 2   
    36   18   42 1   
    37   19   20 1   
    38   20   21 ar  
    39   20   26 ar  
    40   21   22 1   
    41   21   23 ar  
    42   22   43 1   
    43   22   44 1   
    44   23   24 ar  
    45   24   25 ar  
    46   24   45 1   
    47   25   26 ar  
@<TRIPOS>SUBSTRUCTURE
     1 SAI         1 TEMP              0 ****  ****    0 ROOT
