@<TRIPOS>MOLECULE
SAI
   47    49     1     0     0
SMALL
bcc


@<TRIPOS>ATOM
      1 N           3.5640    0.5820    1.2690 n4        1 SAI     -0.832600
      2 CA          3.4700    1.9990    1.7490 c3        1 SAI     -0.002500
      3 CB          2.6180    2.1360    3.0080 c3        1 SAI     -0.103400
      4 CG          1.1340    2.1710    2.7600 c3        1 SAI     -0.041300
      5 SE          0.2220    2.1870    4.2730 ss        1 SAI     -0.240200
      6 C           4.8980    2.5200    2.1060 c         1 SAI      0.910600
      7 O           5.7920    1.6680    2.3870 o         1 SAI     -0.803800
      8 OXT         5.0690    3.7630    2.1480 o         1 SAI     -0.803800
      9 C5'         0.5210    3.8100    4.9170 c3        1 SAI     -0.048300
     10 C4'         0.2240    3.8650    6.4030 c3        1 SAI      0.112100
     11 O4'         1.1390    3.0690    7.1730 os        1 SAI     -0.405600
     12 C3'         0.3460    5.3120    6.9350 c3        1 SAI      0.087100
     13 O3'        -0.7490    5.6810    7.7340 oh        1 SAI     -0.570800
     14 C2'         1.6670    5.3390    7.7480 c3        1 SAI      0.082100
     15 O2'         1.4100    5.6280    9.1080 oh        1 SAI     -0.585800
     16 C1'         2.1810    3.8700    7.7410 c3        1 SAI      0.244800
     17 N9          3.4030    3.6020    6.9960 na        1 SAI     -0.281000
     18 C8          3.6460    2.3380    6.4000 cc        1 SAI      0.482700
     19 N7          4.7390    2.2950    5.6220 nd        1 SAI     -0.576100
     20 C5          5.2730    3.5870    5.6830 ca        1 SAI     -0.140200
     21 C6          6.3700    4.2190    5.0610 ca        1 SAI      0.575200
     22 N6          7.1080    3.5090    4.0080 n4        1 SAI     -0.840300
     23 N1          6.7100    5.4970    5.3650 nb        1 SAI     -0.687000
     24 C2          5.9070    6.1550    6.2520 ca        1 SAI      0.673900
     25 N3          4.7780    5.7210    6.8650 nb        1 SAI     -0.649000
     26 C4          4.4500    4.4350    6.5760 ca        1 SAI      0.458800
     27 HN1         4.3880    0.1550    1.7340 hn        1 SAI      0.458467
     28 HN2         3.7150    0.5660    0.2600 hn        1 SAI      0.458467
     29 HA          3.0430    2.6270    0.9160 hx        1 SAI      0.116700
     30 HB1         2.8690    1.3240    3.7440 hc        1 SAI      0.088200
     31 HB2         2.9330    3.1120    3.4780 hc        1 SAI      0.088200
     32 HG1         0.8670    3.0470    2.1200 h1        1 SAI      0.079200
     33 HG2         0.7820    1.2450    2.2390 h1        1 SAI      0.079200
     34 H5'1        1.5750    4.1220    4.7220 h1        1 SAI      0.075700
     35 H5'2       -0.1540    4.5370    4.3960 h1        1 SAI      0.075700
     36 H4'        -0.7890    3.4250    6.6260 h1        1 SAI      0.119700
     37 H3'         0.3580    6.0660    6.1020 h1        1 SAI      0.106700
     38 HO3'       -0.7770    5.0860    8.4980 ho        1 SAI      0.426000
     39 H2'         2.3840    6.0830    7.3200 h1        1 SAI      0.094700
     40 HO2'        1.0400    6.5230    9.1410 ho        1 SAI      0.439000
     41 H1'         2.3260    3.4830    8.7980 h2        1 SAI      0.138700
     42 H8          2.9610    1.4930    6.5910 h5        1 SAI      0.111800
     43 HN61        6.8370    2.5060    3.9910 hn        1 SAI      0.492467
     44 HN62        6.8090    3.9010    3.0810 hn        1 SAI      0.492467
     45 H2          6.2190    7.1990    6.4880 h5        1 SAI      0.092100
     46 HN3         2.7210    0.0590    1.5040 hn        1 SAI      0.458467
     47 H63         8.1160    3.6120    4.1270 hn        1 SAI      0.492467
@<TRIPOS>BOND
     1    1    2 1   
     2    1   27 1   
     3    1   28 1   
     4    1   46 1   
     5    2    3 1   
     6    2    6 1   
     7    2   29 1   
     8    3    4 1   
     9    3   30 1   
    10    3   31 1   
    11    4    5 1   
    12    4   32 1   
    13    4   33 1   
    14    5    9 1   
    15    6    7 1   
    16    6    8 1   
    17    9   10 1   
    18    9   34 1   
    19    9   35 1   
    20   10   11 1   
    21   10   12 1   
    22   10   36 1   
    23   11   16 1   
    24   12   13 1   
    25   12   14 1   
    26   12   37 1   
    27   13   38 1   
    28   14   15 1   
    29   14   16 1   
    30   14   39 1   
    31   15   40 1   
    32   16   17 1   
    33   16   41 1   
    34   17   18 1   
    35   17   26 1   
    36   18   19 2   
    37   18   42 1   
    38   19   20 1   
    39   20   21 ar  
    40   20   26 ar  
    41   21   22 1   
    42   21   23 ar  
    43   22   43 1   
    44   22   44 1   
    45   22   47 1   
    46   23   24 ar  
    47   24   25 ar  
    48   24   45 1   
    49   25   26 ar  
@<TRIPOS>SUBSTRUCTURE
     1 SAI         1 TEMP              0 ****  ****    0 ROOT
