@<TRIPOS>MOLECULE
SAK
   35    37     1     0     0
SMALL
bcc


@<TRIPOS>ATOM
      1 CAG        -0.0060   -0.0470   -0.0410 ca        1 SAK     -0.070500
      2 CAE         1.3830   -0.0420   -0.0300 ca        1 SAK     -0.188000
      3 CAO         2.0570    0.0300    1.2020 ca        1 SAK      0.134100
      4 OAC         3.4310    0.0290    1.1500 oh        1 SAK     -0.495100
      5 CAF         1.3440    0.0970    2.4080 ca        1 SAK     -0.188000
      6 CAH        -0.0480    0.0980    2.3760 ca        1 SAK     -0.070500
      7 CAR        -0.7290    0.0300    1.1570 ca        1 SAK     -0.134300
      8 CAU        -2.2250    0.0470    1.1080 c3        1 SAK      0.203400
      9 OAM        -2.6860   -0.7500    2.2240 os        1 SAK     -0.319900
     10 CAK        -2.7710    1.4650    1.1830 c3        1 SAK     -0.211400
     11 CAN        -4.2760    1.4660    1.2290 c         1 SAK      0.594700
     12 OAB        -4.9310    2.3610    0.6880 o         1 SAK     -0.513100
     13 CAT        -4.8590    0.3530    1.9830 ca        1 SAK     -0.305600
     14 CAS        -4.0430   -0.6990    2.4520 ca        1 SAK      0.226100
     15 CAJ        -4.5510   -1.7550    3.2160 ca        1 SAK     -0.240000
     16 CAP        -5.9230   -1.7610    3.5190 ca        1 SAK      0.220100
     17 OAL        -6.3360   -2.8310    4.2790 os        1 SAK     -0.317900
     18 CAA        -7.7230   -2.8890    4.5970 c3        1 SAK      0.111700
     19 CAI        -6.7740   -0.7500    3.0620 ca        1 SAK     -0.346000
     20 CAQ        -6.2340    0.2960    2.2970 ca        1 SAK      0.247100
     21 OAD        -7.0190    1.3150    1.8320 oh        1 SAK     -0.456100
     22 HAG        -0.5400   -0.1100   -1.0020 ha        1 SAK      0.142500
     23 HAE         1.9620   -0.0970   -0.9630 ha        1 SAK      0.145500
     24 HOAC        3.7650    0.0710    2.0580 ho        1 SAK      0.421000
     25 HAF         1.8780    0.1460    3.3670 ha        1 SAK      0.145500
     26 HAH        -0.6210    0.1400    3.3160 ha        1 SAK      0.142500
     27 HAU        -2.5930   -0.4570    0.1680 h1        1 SAK      0.064700
     28 HAK        -2.4110    2.0510    0.2970 hc        1 SAK      0.087700
     29 HAKA       -2.3930    1.9730    2.1100 hc        1 SAK      0.087700
     30 HAJ        -3.8940   -2.5590    3.5720 ha        1 SAK      0.172000
     31 HAA        -7.8090   -3.8270    5.2030 h1        1 SAK      0.049367
     32 HAAA       -8.3370   -2.9620    3.6670 h1        1 SAK      0.049367
     33 HAAB       -8.0260   -2.0000    5.2010 h1        1 SAK      0.049367
     34 HAI        -7.8470   -0.7590    3.2900 ha        1 SAK      0.144000
     35 HOAD       -7.9300    1.1540    2.1230 ho        1 SAK      0.421000
@<TRIPOS>BOND
     1    1    2 ar  
     2    1    7 ar  
     3    1   22 1   
     4    2    3 ar  
     5    2   23 1   
     6    3    4 1   
     7    3    5 ar  
     8    4   24 1   
     9    5    6 ar  
    10    5   25 1   
    11    6    7 ar  
    12    6   26 1   
    13    7    8 1   
    14    8    9 1   
    15    8   10 1   
    16    8   27 1   
    17    9   14 1   
    18   10   11 1   
    19   10   28 1   
    20   10   29 1   
    21   11   12 2   
    22   11   13 1   
    23   13   14 ar  
    24   13   20 ar  
    25   14   15 ar  
    26   15   16 ar  
    27   15   30 1   
    28   16   17 1   
    29   16   19 ar  
    30   17   18 1   
    31   18   31 1   
    32   18   32 1   
    33   18   33 1   
    34   19   20 ar  
    35   19   34 1   
    36   20   21 1   
    37   21   35 1   
@<TRIPOS>SUBSTRUCTURE
     1 SAK         1 TEMP              0 ****  ****    0 ROOT
