@<TRIPOS>MOLECULE
SAK
   35    37     1     0     0
SMALL
bcc


@<TRIPOS>ATOM
      1 CAG        -0.0010   -0.0410   -0.0370 ca        1 SAK     -0.070500
      2 CAE         1.3890   -0.0360   -0.0240 ca        1 SAK     -0.188000
      3 CAO         2.0600    0.0370    1.2090 ca        1 SAK      0.134100
      4 OAC         3.4340    0.0370    1.1590 oh        1 SAK     -0.495100
      5 CAF         1.3460    0.1050    2.4130 ca        1 SAK     -0.188000
      6 CAH        -0.0460    0.1050    2.3800 ca        1 SAK     -0.070500
      7 CAR        -0.7250    0.0360    1.1600 ca        1 SAK     -0.134300
      8 CAU        -2.2210    0.0520    1.1080 c3        1 SAK      0.203400
      9 OAM        -2.6830   -0.7460    2.2230 os        1 SAK     -0.319900
     10 CAK        -2.7680    1.4690    1.1840 c3        1 SAK     -0.211400
     11 CAN        -4.2740    1.4690    1.2280 c         1 SAK      0.594700
     12 OAB        -4.9280    2.3650    0.6870 o         1 SAK     -0.513100
     13 CAT        -4.8570    0.3550    1.9810 ca        1 SAK     -0.305600
     14 CAS        -4.0400   -0.6970    2.4500 ca        1 SAK      0.226100
     15 CAJ        -4.5490   -1.7540    3.2120 ca        1 SAK     -0.240000
     16 CAP        -5.9210   -1.7610    3.5130 ca        1 SAK      0.220100
     17 OAL        -6.3350   -2.8320    4.2710 os        1 SAK     -0.317900
     18 CAA        -7.7230   -2.8920    4.5860 c3        1 SAK      0.111700
     19 CAI        -6.7730   -0.7500    3.0550 ca        1 SAK     -0.346000
     20 CAQ        -6.2320    0.2970    2.2920 ca        1 SAK      0.247100
     21 OAD        -7.0170    1.3160    1.8270 oh        1 SAK     -0.456100
     22 HAG        -0.5330   -0.1060   -0.9990 ha        1 SAK      0.142500
     23 HAE         1.9690   -0.0910   -0.9560 ha        1 SAK      0.145500
     24 HOAC        3.7670    0.0810    2.0670 ho        1 SAK      0.421000
     25 HAF         1.8780    0.1560    3.3730 ha        1 SAK      0.145500
     26 HAH        -0.6210    0.1480    3.3180 ha        1 SAK      0.142500
     27 HAU        -2.5880   -0.4510    0.1670 h1        1 SAK      0.064700
     28 HAK        -2.3920    1.9770    2.1120 hc        1 SAK      0.087700
     29 HAKA       -2.4080    2.0560    0.3000 hc        1 SAK      0.087700
     30 HAJ        -3.8920   -2.5580    3.5680 ha        1 SAK      0.172000
     31 HAA        -8.0270   -2.0030    5.1910 h1        1 SAK      0.049367
     32 HAAA       -7.8090   -3.8300    5.1910 h1        1 SAK      0.049367
     33 HAAB       -8.3350   -2.9640    3.6550 h1        1 SAK      0.049367
     34 HAI        -7.8460   -0.7600    3.2820 ha        1 SAK      0.144000
     35 HOAD       -7.9290    1.1550    2.1170 ho        1 SAK      0.421000
@<TRIPOS>BOND
     1    1    2 ar  
     2    1    7 ar  
     3    1   22 1   
     4    2    3 ar  
     5    2   23 1   
     6    3    4 1   
     7    3    5 ar  
     8    4   24 1   
     9    5    6 ar  
    10    5   25 1   
    11    6    7 ar  
    12    6   26 1   
    13    7    8 1   
    14    8    9 1   
    15    8   10 1   
    16    8   27 1   
    17    9   14 1   
    18   10   11 1   
    19   10   28 1   
    20   10   29 1   
    21   11   12 2   
    22   11   13 1   
    23   13   14 ar  
    24   13   20 ar  
    25   14   15 ar  
    26   15   16 ar  
    27   15   30 1   
    28   16   17 1   
    29   16   19 ar  
    30   17   18 1   
    31   18   31 1   
    32   18   32 1   
    33   18   33 1   
    34   19   20 ar  
    35   19   34 1   
    36   20   21 1   
    37   21   35 1   
@<TRIPOS>SUBSTRUCTURE
     1 SAK         1 TEMP              0 ****  ****    0 ROOT
