@<TRIPOS>MOLECULE
SAK
   35    37     1     0     0
SMALL
bcc


@<TRIPOS>ATOM
      1 CAG        -3.4260   -0.5050   -1.1860 ca        1 SAK     -0.070500
      2 CAE        -4.7590   -0.1550   -1.0040 ca        1 SAK     -0.188000
      3 CAO        -5.1140    0.6230    0.1120 ca        1 SAK      0.135100
      4 OAC        -6.4460    0.9400    0.2380 oh        1 SAK     -0.495100
      5 CAF        -4.1440    1.0430    1.0330 ca        1 SAK     -0.188000
      6 CAH        -2.8150    0.6760    0.8380 ca        1 SAK     -0.070500
      7 CAR        -2.4510   -0.1000   -0.2660 ca        1 SAK     -0.136300
      8 CAU        -1.0280   -0.5150   -0.4800 c3        1 SAK      0.203400
      9 OAM        -0.2030    0.6040   -0.0850 os        1 SAK     -0.319900
     10 CAK        -0.6810   -1.7550    0.3290 c3        1 SAK     -0.206400
     11 CAN         0.7790   -2.0950    0.2070 c         1 SAK      0.604700
     12 OAB         1.1580   -3.2750    0.2710 o         1 SAK     -0.576100
     13 CAT         1.6830   -0.9600    0.0530 ca        1 SAK     -0.364600
     14 CAS         1.1510    0.3480   -0.0740 ca        1 SAK      0.229100
     15 CAJ         1.9610    1.4800   -0.1600 ca        1 SAK     -0.241000
     16 CAP         3.3580    1.3060   -0.1230 ca        1 SAK      0.220100
     17 OAL         4.0810    2.4730   -0.2030 os        1 SAK     -0.317900
     18 CAA         5.5010    2.3430   -0.1850 c3        1 SAK      0.110700
     19 CAI         3.9310    0.0380   -0.0240 ca        1 SAK     -0.298000
     20 CAQ         3.0900   -1.0890    0.0590 ca        1 SAK      0.269100
     21 OAD         3.7560   -2.2750    0.1520 oh        1 SAK     -0.499100
     22 HAG        -3.1400   -1.1080   -2.0620 ha        1 SAK      0.143000
     23 HAE        -5.5350   -0.4690   -1.7160 ha        1 SAK      0.146000
     24 HOAC       -6.5510    1.4830    1.0320 ho        1 SAK      0.422000
     25 HAF        -4.4290    1.6570    1.8990 ha        1 SAK      0.146000
     26 HAH        -2.0410    1.0080    1.5480 ha        1 SAK      0.143000
     27 HAU        -0.8340   -0.7040   -1.5750 h1        1 SAK      0.064700
     28 HAK        -0.9070   -1.5810    1.4150 hc        1 SAK      0.091700
     29 HAKA       -1.3070   -2.6180   -0.0180 hc        1 SAK      0.091700
     30 HAJ         1.5240    2.4820   -0.2520 ha        1 SAK      0.172000
     31 HAA         5.8510    1.7440   -1.0600 h1        1 SAK      0.050700
     32 HAAA        5.8560    3.4020   -0.2600 h1        1 SAK      0.050700
     33 HAAB        5.8400    1.8780    0.7720 h1        1 SAK      0.050700
     34 HAI         5.0180   -0.1160   -0.0070 ha        1 SAK      0.162000
     35 HOAD        3.1290   -3.0160    0.2040 ho        1 SAK      0.464000
@<TRIPOS>BOND
     1    1    2 ar  
     2    1    7 ar  
     3    1   22 1   
     4    2    3 ar  
     5    2   23 1   
     6    3    4 1   
     7    3    5 ar  
     8    4   24 1   
     9    5    6 ar  
    10    5   25 1   
    11    6    7 ar  
    12    6   26 1   
    13    7    8 1   
    14    8    9 1   
    15    8   10 1   
    16    8   27 1   
    17    9   14 1   
    18   10   11 1   
    19   10   28 1   
    20   10   29 1   
    21   11   12 2   
    22   11   13 1   
    23   13   14 ar  
    24   13   20 ar  
    25   14   15 ar  
    26   15   16 ar  
    27   15   30 1   
    28   16   17 1   
    29   16   19 ar  
    30   17   18 1   
    31   18   31 1   
    32   18   32 1   
    33   18   33 1   
    34   19   20 ar  
    35   19   34 1   
    36   20   21 1   
    37   21   35 1   
@<TRIPOS>SUBSTRUCTURE
     1 SAK         1 TEMP              0 ****  ****    0 ROOT
