@<TRIPOS>MOLECULE
SAL
   15    15     1     0     0
SMALL
bcc


@<TRIPOS>ATOM
      1 C1'         0.0610    0.1100   -0.0450 c         1 SAL      0.916200
      2 O1'         1.3300    0.1750   -0.0810 o         1 SAL     -0.835800
      3 O2'        -0.5940    0.0810    1.0320 o         1 SAL     -0.835800
      4 C1         -0.7010    0.0640   -1.3550 ca        1 SAL     -0.213600
      5 C2         -0.0670    0.0910   -2.6140 ca        1 SAL      0.176100
      6 C3         -0.8280    0.0460   -3.8000 ca        1 SAL     -0.212000
      7 C4         -2.2140   -0.0250   -3.7260 ca        1 SAL     -0.118000
      8 C5         -2.8520   -0.0520   -2.4870 ca        1 SAL     -0.211000
      9 C6         -2.0950   -0.0070   -1.3170 ca        1 SAL     -0.069000
     10 O2          1.2870    0.1590   -2.7920 oh        1 SAL     -0.555100
     11 H3         -0.3110    0.0680   -4.7680 ha        1 SAL      0.121000
     12 H4         -2.8060   -0.0600   -4.6520 ha        1 SAL      0.100000
     13 H5         -3.9470   -0.1080   -2.4330 ha        1 SAL      0.104000
     14 H6         -2.5810   -0.0270   -0.3270 ha        1 SAL      0.150000
     15 HO2         1.7220    0.1860   -1.9120 ho        1 SAL      0.481000
@<TRIPOS>BOND
     1    1    2 1   
     2    1    3 1   
     3    1    4 1   
     4    4    5 ar  
     5    4    9 ar  
     6    5    6 ar  
     7    5   10 1   
     8    6    7 ar  
     9    6   11 1   
    10    7    8 ar  
    11    7   12 1   
    12    8    9 ar  
    13    8   13 1   
    14    9   14 1   
    15   10   15 1   
@<TRIPOS>SUBSTRUCTURE
     1 SAL         1 TEMP              0 ****  ****    0 ROOT
