@<TRIPOS>MOLECULE
SAL
   15    15     1     0     0
SMALL
bcc


@<TRIPOS>ATOM
      1 C1'         0.2030   -0.1230    1.6510 c         1 SAL      0.916200
      2 O1'        -0.9160   -0.1900    2.2500 o         1 SAL     -0.835800
      3 O2'         1.3070   -0.0950    2.2610 o         1 SAL     -0.835800
      4 C1          0.2130   -0.0750    0.1360 ca        1 SAL     -0.213600
      5 C2         -0.9620   -0.1010   -0.6420 ca        1 SAL      0.176100
      6 C3         -0.8910   -0.0540   -2.0490 ca        1 SAL     -0.212000
      7 C4          0.3480    0.0200   -2.6740 ca        1 SAL     -0.118000
      8 C5          1.5180    0.0460   -1.9160 ca        1 SAL     -0.211000
      9 C6          1.4420   -0.0010   -0.5240 ca        1 SAL     -0.069000
     10 O2         -2.2260   -0.1720   -0.1230 oh        1 SAL     -0.555100
     11 H3         -1.8210   -0.0750   -2.6320 ha        1 SAL      0.121000
     12 H4          0.4020    0.0570   -3.7710 ha        1 SAL      0.100000
     13 H5          2.4950    0.1040   -2.4120 ha        1 SAL      0.104000
     14 H6          2.3550    0.0190    0.0940 ha        1 SAL      0.150000
     15 HO2        -2.1660   -0.2000    0.8560 ho        1 SAL      0.481000
@<TRIPOS>BOND
     1    1    2 1   
     2    1    3 1   
     3    1    4 1   
     4    4    5 ar  
     5    4    9 ar  
     6    5    6 ar  
     7    5   10 1   
     8    6    7 ar  
     9    6   11 1   
    10    7    8 ar  
    11    7   12 1   
    12    8    9 ar  
    13    8   13 1   
    14    9   14 1   
    15   10   15 1   
@<TRIPOS>SUBSTRUCTURE
     1 SAL         1 TEMP              0 ****  ****    0 ROOT
