@<TRIPOS>MOLECULE
SAM
   49    51     1     0     0
SMALL
bcc


@<TRIPOS>ATOM
      1 N          -6.6820   -0.3890    1.2870 n3        1 SAM     -0.905800
      2 CA         -5.9670    0.7690    0.7850 c3        1 SAM      0.012500
      3 C          -6.8300    1.7980   -0.0540 c         1 SAM      0.902600
      4 O          -6.1760    2.6700   -0.6840 o         1 SAM     -0.803800
      5 OXT        -8.0750    1.6560   -0.0180 o         1 SAM     -0.803800
      6 CB         -4.7930    0.3820   -0.1190 c3        1 SAM     -0.082400
      7 CG         -3.7350   -0.3770    0.6410 c3        1 SAM      0.053900
      8 SD         -2.2360   -0.1040   -0.2330 s4        1 SAM     -0.172900
      9 CE         -2.4710   -0.9980   -1.6960 c3        1 SAM     -0.031800
     10 C5'        -1.0690   -1.0290    0.6970 c3        1 SAM     -0.021100
     11 C4'        -0.1390   -1.9430   -0.0760 c3        1 SAM      0.112100
     12 O4'         0.6160   -1.1840   -1.0260 os        1 SAM     -0.433600
     13 C3'         0.8400   -2.6880    0.8630 c3        1 SAM      0.134100
     14 O3'         0.5290   -4.0530    0.9350 oh        1 SAM     -0.571800
     15 C2'         2.2470   -2.3760    0.3120 c3        1 SAM      0.087100
     16 O2'         2.7420   -3.5300   -0.3300 oh        1 SAM     -0.596800
     17 C1'         2.0290   -1.2700   -0.7720 c3        1 SAM      0.240800
     18 N9          2.5440    0.0240   -0.3990 na        1 SAM     -0.306000
     19 C8          1.9380    1.2950   -0.5900 cc        1 SAM      0.408700
     20 N7          2.7530    2.3210   -0.3180 nd        1 SAM     -0.523100
     21 C5          3.9770    1.7350    0.0430 ca        1 SAM     -0.234200
     22 C6          5.2470    2.2870    0.4280 ca        1 SAM      0.774200
     23 N6          5.4120    3.6380    0.5260 nh        1 SAM     -0.948500
     24 N1          6.2850    1.4210    0.7020 nb        1 SAM     -0.788000
     25 C2          6.0430    0.0910    0.5960 ca        1 SAM      0.701900
     26 N3          4.9060   -0.5670    0.2540 nb        1 SAM     -0.771000
     27 C4          3.8740    0.2840   -0.0200 ca        1 SAM      0.460800
     28 HN1        -7.3010   -0.0790    2.0140 hn        1 SAM      0.351300
     29 HN2        -7.2660   -0.7470    0.5490 hn        1 SAM      0.351300
     30 HA         -5.5650    1.3440    1.6680 h1        1 SAM      0.044700
     31 HB1        -4.3860    1.3530   -0.5290 hc        1 SAM      0.077200
     32 HB2        -5.1650   -0.2320   -0.9800 hc        1 SAM      0.077200
     33 HG1        -4.0300   -1.4480    0.7630 h1        1 SAM      0.121200
     34 HG2        -3.6100    0.0540    1.6700 h1        1 SAM      0.121200
     35 HE1        -1.5090   -1.0660   -2.2650 h1        1 SAM      0.129033
     36 HE2        -2.8740   -2.0310   -1.5680 h1        1 SAM      0.129033
     37 HE3        -3.2090   -0.4310   -2.3260 h1        1 SAM      0.129033
     38 H5'1       -0.4560   -0.2520    1.2340 h1        1 SAM      0.126700
     39 H5'2       -1.5740   -1.6510    1.4840 h1        1 SAM      0.126700
     40 H4'        -0.7310   -2.6890   -0.6800 h1        1 SAM      0.088700
     41 H3'         0.7450   -2.3150    1.9210 h1        1 SAM      0.097700
     42 HO3'        0.9030   -4.5020    0.1630 ho        1 SAM      0.436000
     43 H2'         2.9260   -2.0480    1.1420 h1        1 SAM      0.104700
     44 HO2'        3.7070   -3.5000   -0.2700 ho        1 SAM      0.444000
     45 H1'         2.4870   -1.5880   -1.7600 h2        1 SAM      0.111700
     46 H8          0.9000    1.3750   -0.9320 h5        1 SAM      0.073800
     47 HN61        4.6570    4.2350    0.2920 hn        1 SAM      0.456300
     48 HN62        6.2900    4.0260    0.7710 hn        1 SAM      0.456300
     49 H2          6.9170   -0.5590    0.8240 h5        1 SAM      0.057100
@<TRIPOS>BOND
     1    1    2 1   
     2    1   28 1   
     3    1   29 1   
     4    2    3 1   
     5    2    6 1   
     6    2   30 1   
     7    3    4 1   
     8    3    5 1   
     9    6    7 1   
    10    6   31 1   
    11    6   32 1   
    12    7    8 1   
    13    7   33 1   
    14    7   34 1   
    15    8    9 1   
    16    8   10 1   
    17    9   35 1   
    18    9   36 1   
    19    9   37 1   
    20   10   11 1   
    21   10   38 1   
    22   10   39 1   
    23   11   12 1   
    24   11   13 1   
    25   11   40 1   
    26   12   17 1   
    27   13   14 1   
    28   13   15 1   
    29   13   41 1   
    30   14   42 1   
    31   15   16 1   
    32   15   17 1   
    33   15   43 1   
    34   16   44 1   
    35   17   18 1   
    36   17   45 1   
    37   18   19 1   
    38   18   27 1   
    39   19   20 2   
    40   19   46 1   
    41   20   21 1   
    42   21   22 ar  
    43   21   27 ar  
    44   22   23 1   
    45   22   24 ar  
    46   23   47 1   
    47   23   48 1   
    48   24   25 ar  
    49   25   26 ar  
    50   25   49 1   
    51   26   27 ar  
@<TRIPOS>SUBSTRUCTURE
     1 SAM         1 TEMP              0 ****  ****    0 ROOT
