@<TRIPOS>MOLECULE
SAN
   19    19     1     0     0
SMALL
bcc


@<TRIPOS>ATOM
      1 C1          0.0330    0.0740    2.7130 ca        1 SAN      0.234600
      2 N1          0.0610    0.1990    4.0860 nh        1 SAN     -0.848200
      3 C2         -1.1990    0.0650    2.0060 ca        1 SAN     -0.237000
      4 C3         -1.2070    0.0140    0.6240 ca        1 SAN      0.031000
      5 C4         -0.0200   -0.0340   -0.1210 ca        1 SAN     -0.457500
      6 C5          1.1940   -0.0420    0.5810 ca        1 SAN      0.031000
      7 C6          1.2380    0.0090    1.9630 ca        1 SAN     -0.237000
      8 S          -0.0520   -0.1230   -1.7920 sy        1 SAN      1.537200
      9 N2         -0.0240    1.4140   -2.2550 n3        1 SAN     -1.026700
     10 O1          1.1350   -0.7520   -2.2350 o         1 SAN     -0.665800
     11 O2         -1.2810   -0.6960   -2.1920 o         1 SAN     -0.665800
     12 HN11        0.9080   -0.0220    4.5510 hn        1 SAN      0.418800
     13 HN12       -0.7780    0.0170    4.5820 hn        1 SAN      0.418800
     14 H2         -2.1510    0.1000    2.5560 ha        1 SAN      0.139000
     15 H3         -2.1740   -0.0100    0.0880 ha        1 SAN      0.150000
     16 H5          2.1390   -0.1100    0.0110 ha        1 SAN      0.150000
     17 H6          2.2090   -0.0010    2.4780 ha        1 SAN      0.139000
     18 HN21        0.8070    1.9150   -2.4370 hn        1 SAN      0.443800
     19 HN22       -0.8380    1.9530   -2.4080 hn        1 SAN      0.443800
@<TRIPOS>BOND
     1    1    2 1   
     2    1    3 ar  
     3    1    7 ar  
     4    2   12 1   
     5    2   13 1   
     6    3    4 ar  
     7    3   14 1   
     8    4    5 ar  
     9    4   15 1   
    10    5    6 ar  
    11    5    8 1   
    12    6    7 ar  
    13    6   16 1   
    14    7   17 1   
    15    8    9 1   
    16    8   10 2   
    17    8   11 2   
    18    9   18 1   
    19    9   19 1   
@<TRIPOS>SUBSTRUCTURE
     1 SAN         1 TEMP              0 ****  ****    0 ROOT
