@<TRIPOS>MOLECULE
SAN
   20    20     1     0     0
SMALL
bcc


@<TRIPOS>ATOM
      1 C1         -0.0410    0.0180    0.0190 ca        1 SAN      0.321600
      2 N1         -0.7540    0.0620   -1.1230 nv        1 SAN     -0.799200
      3 C2          1.3950    0.0920    0.0060 ca        1 SAN     -0.241000
      4 C3          2.1040    0.0380    1.1740 ca        1 SAN      0.064000
      5 C4          1.4770   -0.0840    2.4470 ca        1 SAN     -0.674500
      6 C5          0.0550   -0.1550    2.4470 ca        1 SAN      0.064000
      7 C6         -0.6850   -0.1040    1.2990 ca        1 SAN     -0.241000
      8 S           2.3090   -0.2360    3.7620 sy        1 SAN      1.520200
      9 N2          2.4230    1.6720    4.2360 nz        1 SAN     -0.779500
     10 O1          1.6210   -0.6770    4.8740 o         1 SAN     -0.581800
     11 O2          3.6570   -0.4840    3.6090 o         1 SAN     -0.581800
     12 HN11       -0.2990    0.1300   -2.0040 hn        1 SAN      0.462800
     13 HN12       -1.7460   -0.0060   -1.1050 hn        1 SAN      0.462800
     14 H2          1.9260    0.1800   -0.9560 ha        1 SAN      0.170000
     15 H3          3.2110    0.0710    1.1360 ha        1 SAN      0.165000
     16 H5         -0.4640   -0.2750    3.4190 ha        1 SAN      0.165000
     17 H6         -1.7850   -0.1700    1.3490 ha        1 SAN      0.170000
     18 HN21        2.0040    1.8290    5.1480 hn        1 SAN      0.445133
     19 HN22        3.3950    1.9610    4.2830 hn        1 SAN      0.445133
     20 H23         1.9480    2.2590    3.5610 hn        1 SAN      0.445133
@<TRIPOS>BOND
     1    1    2 1   
     2    1    3 ar  
     3    1    7 ar  
     4    2   12 1   
     5    2   13 1   
     6    3    4 ar  
     7    3   14 1   
     8    4    5 ar  
     9    4   15 1   
    10    5    6 ar  
    11    5    8 1   
    12    6    7 ar  
    13    6   16 1   
    14    7   17 1   
    15    8    9 1   
    16    8   10 2   
    17    8   11 2   
    18    9   18 1   
    19    9   19 1   
    20    9   20 1   
@<TRIPOS>SUBSTRUCTURE
     1 SAN         1 TEMP              0 ****  ****    0 ROOT
