@<TRIPOS>MOLECULE
SAN
   20    20     1     0     0
SMALL
bcc


@<TRIPOS>ATOM
      1 C1          0.0190    0.0480   -0.0190 ca        1 SAN      0.321600
      2 N1         -0.6230    0.1040   -1.2020 nh        1 SAN     -0.799200
      3 C2          1.4480   -0.0970    0.0500 ca        1 SAN     -0.241000
      4 C3          2.0830   -0.1600    1.2590 ca        1 SAN      0.064000
      5 C4          1.3840   -0.0810    2.4970 ca        1 SAN     -0.674500
      6 C5         -0.0310    0.0640    2.4170 ca        1 SAN      0.064000
      7 C6         -0.6980    0.1300    1.2250 ca        1 SAN     -0.241000
      8 S           2.1170   -0.2470    3.8680 sy        1 SAN      1.520200
      9 N2          2.5020    1.6550    4.2040 n4        1 SAN     -0.779500
     10 O1          1.3160   -0.4850    4.9650 o         1 SAN     -0.581800
     11 O2          3.4160   -0.7070    3.8150 o         1 SAN     -0.581800
     12 HN11       -1.6130    0.1870   -1.2390 hn        1 SAN      0.462800
     13 HN12       -0.1210    0.0290   -2.0570 hn        1 SAN      0.462800
     14 H2          2.0320   -0.1700   -0.8830 ha        1 SAN      0.170000
     15 H3          3.1820   -0.2970    1.2860 ha        1 SAN      0.165000
     16 H5         -0.6080    0.1040    3.3620 ha        1 SAN      0.165000
     17 H6         -1.7950    0.2350    1.2140 ha        1 SAN      0.170000
     18 HN21        2.0690    1.9490    5.0740 hn        1 SAN      0.445133
     19 HN22        2.1580    2.2480    3.4600 hn        1 SAN      0.445133
     20 H23         3.5050    1.7970    4.2890 hn        1 SAN      0.445133
@<TRIPOS>BOND
     1    1    2 1   
     2    1    3 ar  
     3    1    7 ar  
     4    2   12 1   
     5    2   13 1   
     6    3    4 ar  
     7    3   14 1   
     8    4    5 ar  
     9    4   15 1   
    10    5    6 ar  
    11    5    8 1   
    12    6    7 ar  
    13    6   16 1   
    14    7   17 1   
    15    8    9 1   
    16    8   10 2   
    17    8   11 2   
    18    9   18 1   
    19    9   19 1   
    20    9   20 1   
@<TRIPOS>SUBSTRUCTURE
     1 SAN         1 TEMP              0 ****  ****    0 ROOT
