@<TRIPOS>MOLECULE
SAN
   21    21     1     0     0
SMALL
bcc


@<TRIPOS>ATOM
      1 C1          0.0540    0.0050   -0.0170 ca        1 SAN      0.052600
      2 N1         -0.6530   -0.0390   -1.3010 n4        1 SAN     -0.724000
      3 C2          1.4590    0.0450    0.0030 ca        1 SAN     -0.116000
      4 C3          2.1200    0.0430    1.2300 ca        1 SAN      0.029000
      5 C4          1.4120    0.0070    2.4450 ca        1 SAN     -0.449500
      6 C5          0.0070   -0.0160    2.3960 ca        1 SAN      0.029000
      7 C6         -0.6790   -0.0150    1.1820 ca        1 SAN     -0.116000
      8 S           2.2100   -0.1820    3.8820 sy        1 SAN      1.457200
      9 N2          2.4290    1.6200    4.3690 n4        1 SAN     -0.804500
     10 O1          1.3790   -0.6220    4.8820 o         1 SAN     -0.524800
     11 O2          3.5180   -0.5620    3.7020 o         1 SAN     -0.524800
     12 HN11       -0.1090    0.4480   -2.0270 hn        1 SAN      0.488133
     13 HN12       -1.5770    0.4080   -1.2170 hn        1 SAN      0.488133
     14 H2          2.0580    0.0650   -0.9280 ha        1 SAN      0.198000
     15 H3          3.2310    0.0390    1.2340 ha        1 SAN      0.205000
     16 H5         -0.5810   -0.0680    3.3370 ha        1 SAN      0.205000
     17 H6         -1.7850   -0.0430    1.1930 ha        1 SAN      0.198000
     18 HN21        1.9830    1.8030    5.2740 hn        1 SAN      0.474467
     19 HN22        3.4230    1.8430    4.4790 hn        1 SAN      0.474467
     20 H13        -0.7840   -1.0230   -1.5870 hn        1 SAN      0.488133
     21 H23         2.0440    2.2880    3.7050 hn        1 SAN      0.474467
@<TRIPOS>BOND
     1    1    2 1   
     2    1    3 ar  
     3    1    7 ar  
     4    2   12 1   
     5    2   13 1   
     6    2   20 1   
     7    3    4 ar  
     8    3   14 1   
     9    4    5 ar  
    10    4   15 1   
    11    5    6 ar  
    12    5    8 1   
    13    6    7 ar  
    14    6   16 1   
    15    7   17 1   
    16    8    9 1   
    17    8   10 2   
    18    8   11 2   
    19    9   18 1   
    20    9   19 1   
    21    9   21 1   
@<TRIPOS>SUBSTRUCTURE
     1 SAN         1 TEMP              0 ****  ****    0 ROOT
