@<TRIPOS>MOLECULE
SAP
   45    47     1     0     0
SMALL
bcc


@<TRIPOS>ATOM
      1 PG         -5.4690   -0.5680    0.0480 p5        1 SAP      1.556200
      2 S1G        -7.0010   -1.6110   -0.3080 s         1 SAP     -0.745000
      3 O2G        -5.7310    1.0010    0.0340 oh        1 SAP     -0.809400
      4 O3G        -4.9350   -0.6890    1.5420 oh        1 SAP     -0.809400
      5 PB         -2.6590   -0.6840   -1.6410 p5        1 SAP      1.694800
      6 O1B        -2.9670   -0.0760   -2.9330 o         1 SAP     -0.851000
      7 O2B        -2.0290   -1.9820   -1.4060 o         1 SAP     -0.851000
      8 O3B        -4.1830   -0.7080   -0.7890 os        1 SAP     -0.796800
      9 PA         -1.7020    1.5240    0.5030 p5        1 SAP      1.623800
     10 O1A        -0.8210    2.6160    0.0330 o         1 SAP     -0.895000
     11 O2A        -3.0050    1.6700    1.1910 o         1 SAP     -0.895000
     12 O3A        -1.9810    0.4220   -0.6470 os        1 SAP     -0.823800
     13 O5'        -0.6850    0.6870    1.5140 os        1 SAP     -0.579200
     14 C5'         0.5430    0.3020    0.9970 c3        1 SAP      0.202400
     15 C4'         1.6490    1.2940    1.4100 c3        1 SAP      0.062100
     16 O4'         2.8340    0.5650    1.7860 os        1 SAP     -0.421600
     17 C3'         2.0250    2.2970    0.3000 c3        1 SAP      0.116100
     18 O3'         1.7380    3.6190    0.7010 oh        1 SAP     -0.649800
     19 C2'         3.5500    2.1630    0.1120 c3        1 SAP      0.108100
     20 O2'         4.3030    3.2620    0.5690 oh        1 SAP     -0.596800
     21 C1'         3.9420    0.9020    0.9560 c3        1 SAP      0.214800
     22 N9          4.3230   -0.2450    0.1530 na        1 SAP     -0.267000
     23 C8          3.4710   -1.1430   -0.5370 cc        1 SAP      0.445700
     24 N7          4.1230   -2.1520   -1.1370 nd        1 SAP     -0.562100
     25 C5          5.4760   -1.9460   -0.8290 ca        1 SAP     -0.214200
     26 C6          6.6660   -2.6680   -1.1590 ca        1 SAP      0.722200
     27 N6          6.5990   -3.7530   -2.0200 nh        1 SAP     -0.941500
     28 N1          7.8680   -2.2360   -0.6600 nb        1 SAP     -0.805000
     29 C2          7.8560   -1.1060    0.1020 ca        1 SAP      0.656900
     30 N3          6.8290   -0.3150    0.4780 nb        1 SAP     -0.717000
     31 C4          5.6210   -0.7520    0.0020 ca        1 SAP      0.446800
     32 HOG2       -5.0040    1.5710    0.3080 ho        1 SAP      0.513000
     33 HOG3       -4.2240   -0.0940    1.8040 ho        1 SAP      0.513000
     34 H5'1        0.7970   -0.7080    1.4250 h1        1 SAP      0.034200
     35 H5'2        0.4830    0.2290   -0.1250 h1        1 SAP      0.034200
     36 H4'         1.3320    1.8400    2.3420 h1        1 SAP      0.090700
     37 H3'         1.4870    2.0620   -0.6580 h1        1 SAP      0.098700
     38 HO3'        0.7870    3.7560    0.5220 ho        1 SAP      0.490000
     39 H2'         3.8220    2.0500   -0.9710 h1        1 SAP      0.084700
     40 HO2'        3.7900    3.7160    1.2510 ho        1 SAP      0.427000
     41 H1'         4.8030    1.1400    1.6500 h2        1 SAP      0.104700
     42 H8          2.3780   -0.9940   -0.5380 h5        1 SAP      0.106800
     43 HN61        5.6960   -4.1450   -2.1530 hn        1 SAP      0.424300
     44 HN62        7.3670   -4.3800   -2.0370 hn        1 SAP      0.424300
     45 H2          8.8540   -0.7920    0.4740 h5        1 SAP      0.034100
@<TRIPOS>BOND
     1    1    2 2   
     2    1    3 1   
     3    1    4 1   
     4    1    8 1   
     5    3   32 1   
     6    4   33 1   
     7    5    6 1   
     8    5    7 1   
     9    5    8 1   
    10    5   12 1   
    11    9   10 1   
    12    9   11 1   
    13    9   12 1   
    14    9   13 1   
    15   13   14 1   
    16   14   15 1   
    17   14   34 1   
    18   14   35 1   
    19   15   16 1   
    20   15   17 1   
    21   15   36 1   
    22   16   21 1   
    23   17   18 1   
    24   17   19 1   
    25   17   37 1   
    26   18   38 1   
    27   19   20 1   
    28   19   21 1   
    29   19   39 1   
    30   20   40 1   
    31   21   22 1   
    32   21   41 1   
    33   22   23 1   
    34   22   31 1   
    35   23   24 2   
    36   23   42 1   
    37   24   25 1   
    38   25   26 ar  
    39   25   31 ar  
    40   26   27 1   
    41   26   28 ar  
    42   27   43 1   
    43   27   44 1   
    44   28   29 ar  
    45   29   30 ar  
    46   29   45 1   
    47   30   31 ar  
@<TRIPOS>SUBSTRUCTURE
     1 SAP         1 TEMP              0 ****  ****    0 ROOT
