@<TRIPOS>MOLECULE
SAP
   45    47     1     0     0
SMALL
bcc


@<TRIPOS>ATOM
      1 PG          0.3930   -1.0050   -1.2940 p5        1 SAP      1.556200
      2 S1G         0.7940    0.8250   -1.0670 s         1 SAP     -0.745000
      3 O2G         1.6650   -1.9600   -1.2700 oh        1 SAP     -0.809400
      4 O3G        -0.3930   -1.6530   -0.0720 oh        1 SAP     -0.809400
      5 PB         -1.2270   -2.2910   -3.8410 p5        1 SAP      1.694800
      6 O1B        -0.3030   -2.1920   -4.9680 o         1 SAP     -0.851000
      7 O2B        -2.6120   -1.8270   -3.7940 o         1 SAP     -0.851000
      8 O3B        -0.3950   -1.5150   -2.5170 os        1 SAP     -0.796800
      9 PA         -0.8290   -5.0560   -2.2310 p5        1 SAP      1.623800
     10 O1A        -0.5660   -6.2850   -3.0120 o         1 SAP     -0.895000
     11 O2A         0.0080   -4.5010   -1.1430 o         1 SAP     -0.895000
     12 O3A        -1.1450   -3.7830   -3.1780 os        1 SAP     -0.823800
     13 O5'        -2.3320   -5.3740   -1.6030 os        1 SAP     -0.579200
     14 C5'        -3.3220   -5.7540   -2.4980 c3        1 SAP      0.202400
     15 C4'        -3.4810   -7.2870   -2.5240 c3        1 SAP      0.062100
     16 O4'        -4.8830   -7.6260   -2.5540 os        1 SAP     -0.421600
     17 C3'        -2.7920   -7.9600   -3.7280 c3        1 SAP      0.116100
     18 O3'        -1.7680   -8.8300   -3.2980 oh        1 SAP     -0.649800
     19 C2'        -3.8850   -8.7970   -4.4240 c3        1 SAP      0.108100
     20 O2'        -3.7380  -10.1920   -4.2910 oh        1 SAP     -0.596800
     21 C1'        -5.2180   -8.3650   -3.7240 c3        1 SAP      0.214800
     22 N9         -6.0950   -7.5760   -4.5710 na        1 SAP     -0.267000
     23 C8         -5.9820   -6.2020   -4.8950 cc        1 SAP      0.445700
     24 N7         -6.9930   -5.7400   -5.6480 nd        1 SAP     -0.562100
     25 C5         -7.8430   -6.8400   -5.8300 ca        1 SAP     -0.214200
     26 C6         -9.0840   -7.0020   -6.5240 ca        1 SAP      0.722200
     27 N6         -9.5980   -5.9540   -7.2720 nh        1 SAP     -0.941500
     28 N1         -9.7180   -8.2180   -6.4820 nb        1 SAP     -0.805000
     29 C2         -9.0950   -9.2210   -5.8010 ca        1 SAP      0.656900
     30 N3         -7.9280   -9.2260   -5.1220 nb        1 SAP     -0.717000
     31 C4         -7.3000   -8.0090   -5.1400 ca        1 SAP      0.446800
     32 HOG2        1.5030   -2.9100   -1.2820 ho        1 SAP      0.513000
     33 HOG3       -0.5240   -2.6080   -0.0900 ho        1 SAP      0.513000
     34 H5'1       -4.2940   -5.3040   -2.1500 h1        1 SAP      0.034200
     35 H5'2       -3.0800   -5.3700   -3.5280 h1        1 SAP      0.034200
     36 H4'        -3.0960   -7.7190   -1.5590 h1        1 SAP      0.090700
     37 H3'        -2.3710   -7.1930   -4.4350 h1        1 SAP      0.098700
     38 HO3'       -0.9830   -8.2690   -3.1440 ho        1 SAP      0.490000
     39 H2'        -3.9050   -8.6080   -5.5300 h1        1 SAP      0.084700
     40 HO2'       -3.2250  -10.3660   -3.4900 ho        1 SAP      0.427000
     41 H1'        -5.7970   -9.2720   -3.3770 h2        1 SAP      0.104700
     42 H8         -5.1310   -5.6040   -4.5260 h5        1 SAP      0.106800
     43 HN61       -9.2230   -5.0560   -7.0740 hn        1 SAP      0.424300
     44 HN62      -10.5550   -5.9940   -7.5310 hn        1 SAP      0.424300
     45 H2         -9.6430  -10.1870   -5.8050 h5        1 SAP      0.034100
@<TRIPOS>BOND
     1    1    2 2   
     2    1    3 1   
     3    1    4 1   
     4    1    8 1   
     5    3   32 1   
     6    4   33 1   
     7    5    6 1   
     8    5    7 1   
     9    5    8 1   
    10    5   12 1   
    11    9   10 1   
    12    9   11 1   
    13    9   12 1   
    14    9   13 1   
    15   13   14 1   
    16   14   15 1   
    17   14   34 1   
    18   14   35 1   
    19   15   16 1   
    20   15   17 1   
    21   15   36 1   
    22   16   21 1   
    23   17   18 1   
    24   17   19 1   
    25   17   37 1   
    26   18   38 1   
    27   19   20 1   
    28   19   21 1   
    29   19   39 1   
    30   20   40 1   
    31   21   22 1   
    32   21   41 1   
    33   22   23 1   
    34   22   31 1   
    35   23   24 2   
    36   23   42 1   
    37   24   25 1   
    38   25   26 ar  
    39   25   31 ar  
    40   26   27 1   
    41   26   28 ar  
    42   27   43 1   
    43   27   44 1   
    44   28   29 ar  
    45   29   30 ar  
    46   29   45 1   
    47   30   31 ar  
@<TRIPOS>SUBSTRUCTURE
     1 SAP         1 TEMP              0 ****  ****    0 ROOT
