@<TRIPOS>MOLECULE
SAP
   46    48     1     0     0
SMALL
bcc


@<TRIPOS>ATOM
      1 PG         -0.8380   -2.0460   -0.7550 p5        1 SAP      1.525200
      2 S1G         0.9130   -1.4540   -1.0240 s         1 SAP     -0.713000
      3 O2G        -1.0480   -3.3400    0.1410 oh        1 SAP     -0.774400
      4 O3G        -1.6510   -0.9860    0.1210 oh        1 SAP     -0.774400
      5 PB         -3.1090   -2.6510   -3.0020 p5        1 SAP      1.717800
      6 O1B        -3.9800   -3.5160   -2.2100 o         1 SAP     -0.834000
      7 O2B        -3.3600   -1.4100   -3.7160 o         1 SAP     -0.834000
      8 O3B        -1.8370   -2.3530   -1.8940 os        1 SAP     -0.791800
      9 PA         -1.7150   -4.6220   -5.1550 p5        1 SAP      1.799500
     10 O1A        -0.4130   -5.2410   -4.9850 o         1 SAP     -0.848300
     11 O2A        -1.9360   -3.7810   -6.4880 oh        1 SAP     -0.784400
     12 O3A        -2.3130   -3.6230   -4.1050 os        1 SAP     -0.812800
     13 O5'        -2.8850   -5.7300   -5.2810 os        1 SAP     -0.584200
     14 C5'        -2.5450   -7.0850   -5.3580 c3        1 SAP      0.186400
     15 C4'        -2.6440   -7.8060   -4.0040 c3        1 SAP      0.059100
     16 O4'        -3.3410   -7.0140   -3.0340 os        1 SAP     -0.398600
     17 C3'        -3.3650   -9.1720   -4.0870 c3        1 SAP      0.088100
     18 O3'        -2.4750  -10.2540   -3.9640 oh        1 SAP     -0.579800
     19 C2'        -4.4260   -9.1180   -2.9590 c3        1 SAP      0.087100
     20 O2'        -3.9420   -9.7200   -1.7740 oh        1 SAP     -0.591800
     21 C1'        -4.6180   -7.5900   -2.7160 c3        1 SAP      0.223800
     22 N9         -5.7020   -6.9550   -3.4180 na        1 SAP     -0.288000
     23 C8         -6.0560   -5.5860   -3.2220 cc        1 SAP      0.459700
     24 N7         -7.0200   -5.1630   -4.0460 nd        1 SAP     -0.567100
     25 C5         -7.3130   -6.2620   -4.8700 ca        1 SAP     -0.207200
     26 C6         -8.2370   -6.4390   -5.9480 ca        1 SAP      0.726200
     27 N6         -9.1200   -5.4250   -6.2760 nh        1 SAP     -0.938500
     28 N1         -8.2690   -7.6450   -6.6060 nb        1 SAP     -0.794000
     29 C2         -7.4280   -8.6170   -6.1650 ca        1 SAP      0.668900
     30 N3         -6.5220   -8.5980   -5.1600 nb        1 SAP     -0.750000
     31 C4         -6.4670   -7.3970   -4.5110 ca        1 SAP      0.454800
     32 HOG2       -1.8970   -3.7790    0.0800 ho        1 SAP      0.492500
     33 HOG3       -1.2470   -0.1380    0.2890 ho        1 SAP      0.492500
     34 H5'1       -3.2650   -7.5450   -6.0920 h1        1 SAP      0.054700
     35 H5'2       -1.4900   -7.1880   -5.7400 h1        1 SAP      0.054700
     36 H4'        -1.6080   -7.9320   -3.5780 h1        1 SAP      0.083700
     37 H3'        -3.8610   -9.3250   -5.0850 h1        1 SAP      0.114700
     38 HO3'       -2.1960  -10.3120   -3.0410 ho        1 SAP      0.404000
     39 H2'        -5.3580   -9.6830   -3.2070 h1        1 SAP      0.131700
     40 HO2'       -3.2190   -9.1710   -1.4400 ho        1 SAP      0.406000
     41 H1'        -4.7570   -7.3560   -1.6160 h2        1 SAP      0.104700
     42 H8         -5.5220   -4.9640   -2.4700 h5        1 SAP      0.149800
     43 HN61       -2.4810   -3.0000   -6.4280 ho        1 SAP      0.486000
     44 HN62       -8.8860   -4.5190   -5.9420 hn        1 SAP      0.427800
     45 H2         -7.4940   -9.5750   -6.7240 h5        1 SAP      0.041100
     46 H63        -9.5820   -5.4750   -7.1530 hn        1 SAP      0.427800
@<TRIPOS>BOND
     1    1    2 2   
     2    1    3 1   
     3    1    4 1   
     4    1    8 1   
     5    3   32 1   
     6    4   33 1   
     7    5    6 1   
     8    5    7 1   
     9    5    8 1   
    10    5   12 1   
    11    9   10 2   
    12    9   11 1   
    13    9   12 1   
    14    9   13 1   
    15   11   43 1   
    16   13   14 1   
    17   14   15 1   
    18   14   34 1   
    19   14   35 1   
    20   15   16 1   
    21   15   17 1   
    22   15   36 1   
    23   16   21 1   
    24   17   18 1   
    25   17   19 1   
    26   17   37 1   
    27   18   38 1   
    28   19   20 1   
    29   19   21 1   
    30   19   39 1   
    31   20   40 1   
    32   21   22 1   
    33   21   41 1   
    34   22   23 1   
    35   22   31 1   
    36   23   24 2   
    37   23   42 1   
    38   24   25 1   
    39   25   26 ar  
    40   25   31 ar  
    41   26   27 1   
    42   26   28 ar  
    43   27   44 1   
    44   27   46 1   
    45   28   29 ar  
    46   29   30 ar  
    47   29   45 1   
    48   30   31 ar  
@<TRIPOS>SUBSTRUCTURE
     1 SAP         1 TEMP              0 ****  ****    0 ROOT
