@<TRIPOS>MOLECULE
SAP
   45    47     1     0     0
SMALL
bcc


@<TRIPOS>ATOM
      1 PG          0.4140   -0.9980   -1.3470 p5        1 SAP      1.556200
      2 S1G         0.8180    0.8320   -1.1300 s         1 SAP     -0.745000
      3 O2G         1.6860   -1.9530   -1.3290 oh        1 SAP     -0.809400
      4 O3G        -0.3620   -1.6410   -0.1160 oh        1 SAP     -0.809400
      5 PB         -1.2260   -2.2930   -3.8760 p5        1 SAP      1.694800
      6 O1B        -0.3100   -2.1990   -5.0110 o         1 SAP     -0.851000
      7 O2B        -2.6110   -1.8280   -3.8200 o         1 SAP     -0.851000
      8 O3B        -0.3830   -1.5120   -2.5620 os        1 SAP     -0.796800
      9 PA         -0.8170   -5.0520   -2.2590 p5        1 SAP      1.623800
     10 O1A        -0.5610   -6.2840   -3.0360 o         1 SAP     -0.895000
     11 O2A         0.0280   -4.4930   -1.1790 o         1 SAP     -0.895000
     12 O3A        -1.1400   -3.7820   -3.2070 os        1 SAP     -0.823800
     13 O5'        -2.3160   -5.3670   -1.6180 os        1 SAP     -0.579200
     14 C5'        -3.3130   -5.7500   -2.5040 c3        1 SAP      0.202400
     15 C4'        -3.4730   -7.2830   -2.5220 c3        1 SAP      0.062100
     16 O4'        -4.8740   -7.6210   -2.5400 os        1 SAP     -0.421600
     17 C3'        -2.7930   -7.9610   -3.7290 c3        1 SAP      0.116100
     18 O3'        -1.7660   -8.8290   -3.3030 oh        1 SAP     -0.649800
     19 C2'        -3.8920   -8.8000   -4.4130 c3        1 SAP      0.108100
     20 O2'        -3.7440  -10.1940   -4.2760 oh        1 SAP     -0.596800
     21 C1'        -5.2200   -8.3640   -3.7040 c3        1 SAP      0.214800
     22 N9         -6.1020   -7.5780   -4.5480 na        1 SAP     -0.267000
     23 C8         -5.9900   -6.2050   -4.8780 cc        1 SAP      0.445700
     24 N7         -7.0070   -5.7450   -5.6250 nd        1 SAP     -0.562100
     25 C5         -7.8590   -6.8460   -5.7960 ca        1 SAP     -0.214200
     26 C6         -9.1060   -7.0090   -6.4800 ca        1 SAP      0.722200
     27 N6         -9.6250   -5.9650   -7.2280 nv        1 SAP     -0.941500
     28 N1         -9.7400   -8.2250   -6.4290 nb        1 SAP     -0.805000
     29 C2         -9.1130   -9.2260   -5.7490 ca        1 SAP      0.656900
     30 N3         -7.9400   -9.2290   -5.0790 nb        1 SAP     -0.717000
     31 C4         -7.3110   -8.0130   -5.1060 ca        1 SAP      0.446800
     32 HOG2        1.5230   -2.9040   -1.3350 ho        1 SAP      0.513000
     33 HOG3       -0.4940   -2.5950   -0.1300 ho        1 SAP      0.513000
     34 H5'1       -4.2820   -5.2970   -2.1500 h1        1 SAP      0.034200
     35 H5'2       -3.0780   -5.3690   -3.5370 h1        1 SAP      0.034200
     36 H4'        -3.0800   -7.7120   -1.5580 h1        1 SAP      0.090700
     37 H3'        -2.3770   -7.1970   -4.4420 h1        1 SAP      0.098700
     38 HO3'       -0.9790   -8.2680   -3.1570 ho        1 SAP      0.490000
     39 H2'        -3.9200   -8.6150   -5.5200 h1        1 SAP      0.084700
     40 HO2'       -3.2260  -10.3650   -3.4780 ho        1 SAP      0.427000
     41 H1'        -5.7960   -9.2700   -3.3500 h2        1 SAP      0.104700
     42 H8         -5.1360   -5.6070   -4.5180 h5        1 SAP      0.106800
     43 HN61       -9.2480   -5.0660   -7.0370 hn        1 SAP      0.424300
     44 HN62      -10.5830   -6.0040   -7.4800 hn        1 SAP      0.424300
     45 H2         -9.6610  -10.1910   -5.7450 h5        1 SAP      0.034100
@<TRIPOS>BOND
     1    1    2 2   
     2    1    3 1   
     3    1    4 1   
     4    1    8 1   
     5    3   32 1   
     6    4   33 1   
     7    5    6 1   
     8    5    7 1   
     9    5    8 1   
    10    5   12 1   
    11    9   10 1   
    12    9   11 1   
    13    9   12 1   
    14    9   13 1   
    15   13   14 1   
    16   14   15 1   
    17   14   34 1   
    18   14   35 1   
    19   15   16 1   
    20   15   17 1   
    21   15   36 1   
    22   16   21 1   
    23   17   18 1   
    24   17   19 1   
    25   17   37 1   
    26   18   38 1   
    27   19   20 1   
    28   19   21 1   
    29   19   39 1   
    30   20   40 1   
    31   21   22 1   
    32   21   41 1   
    33   22   23 1   
    34   22   31 1   
    35   23   24 2   
    36   23   42 1   
    37   24   25 1   
    38   25   26 ar  
    39   25   31 ar  
    40   26   27 1   
    41   26   28 ar  
    42   27   43 1   
    43   27   44 1   
    44   28   29 ar  
    45   29   30 ar  
    46   29   45 1   
    47   30   31 ar  
@<TRIPOS>SUBSTRUCTURE
     1 SAP         1 TEMP              0 ****  ****    0 ROOT
