@<TRIPOS>MOLECULE
SAQ
   32    35     1     0     0
SMALL
bcc


@<TRIPOS>ATOM
      1 N1          0.0060   -0.1660   -0.0120 n         1 SAQ     -0.502400
      2 N3         -0.1390   -0.2660    2.3900 nc        1 SAQ     -0.609100
      3 C4          1.2560   -0.1070    2.4850 ca        1 SAQ      0.160400
      4 C5          2.0570    0.0250    1.3070 ca        1 SAQ     -0.183600
      5 C6          1.4010   -0.0030   -0.0170 c         1 SAQ      0.707100
      6 C7          3.4450    0.1790    1.3650 ca        1 SAQ     -0.057000
      7 C8          4.0320    0.2100    2.6220 ca        1 SAQ     -0.106200
      8 C10         1.8580   -0.0800    3.7600 ca        1 SAQ     -0.081000
      9 N12         5.3770    0.2930    3.0260 na        1 SAQ     -0.288300
     10 C13         5.3410    0.3210    4.4620 cc        1 SAQ      0.611700
     11 C2         -0.6740   -0.2870    1.1960 cd        1 SAQ      0.481800
     12 C9          3.2380    0.0830    3.8370 ca        1 SAQ      0.131400
     13 N14         4.0810    0.1420    4.9640 nd        1 SAQ     -0.615100
     14 N15         6.4960    0.5640    5.2300 nh        1 SAQ     -0.772200
     15 O16         1.9940    0.1060   -1.1060 o         1 SAQ     -0.630500
     16 C25         7.7490    0.0300    4.7150 c3        1 SAQ      0.261100
     17 C11         8.7930   -0.0790    5.7610 cc        1 SAQ     -0.167400
     18 S1          9.7560    1.2020    6.2560 ss        1 SAQ      0.067200
     19 C12        10.6170    0.2820    7.3430 cc        1 SAQ     -0.168100
     20 C131       10.1880   -1.0300    7.3600 cd        1 SAQ     -0.159000
     21 C14         9.1210   -1.2420    6.4360 cd        1 SAQ     -0.134000
     22 HN1        -0.4840   -0.1930   -0.8760 hn        1 SAQ      0.337500
     23 H7          4.0270    0.2690    0.4350 ha        1 SAQ      0.163000
     24 H10         1.2520   -0.1850    4.6730 ha        1 SAQ      0.170000
     25 HN12        6.0830    0.7240    2.4870 hn        1 SAQ      0.299700
     26 H2         -1.7760   -0.4130    1.1230 h5        1 SAQ      0.051800
     27 HN15        6.3490    0.3740    6.2050 hn        1 SAQ      0.430800
     28 H25         7.6060   -0.9870    4.2420 h1        1 SAQ      0.055200
     29 H25A        8.0980    0.7350    3.9030 h1        1 SAQ      0.055200
     30 H9         11.4180    0.6900    7.9590 h4        1 SAQ      0.175000
     31 H101       10.6000   -1.8190    7.9920 ha        1 SAQ      0.158000
     32 H11         8.6390   -2.2110    6.2890 ha        1 SAQ      0.157000
@<TRIPOS>BOND
     1    1    5 1   
     2    1   11 1   
     3    1   22 1   
     4    2    3 1   
     5    2   11 2   
     6    3    4 ar  
     7    3    8 ar  
     8    4    5 1   
     9    4    6 ar  
    10    5   15 2   
    11    6    7 ar  
    12    6   23 1   
    13    7    9 1   
    14    7   12 ar  
    15    8   12 ar  
    16    8   24 1   
    17    9   10 1   
    18    9   25 1   
    19   10   13 2   
    20   10   14 1   
    21   11   26 1   
    22   12   13 1   
    23   14   16 1   
    24   14   27 1   
    25   16   17 1   
    26   16   28 1   
    27   16   29 1   
    28   17   18 1   
    29   17   21 2   
    30   18   19 1   
    31   19   20 2   
    32   19   30 1   
    33   20   21 1   
    34   20   31 1   
    35   21   32 1   
@<TRIPOS>SUBSTRUCTURE
     1 SAQ         1 TEMP              0 ****  ****    0 ROOT
