@<TRIPOS>MOLECULE
SAQ
   32    25     1     0     0
SMALL
bcc


@<TRIPOS>ATOM
      1 N1         -4.9350   -0.2610   -3.9930 n3        1 SAQ     -0.342000
      2 N3         -4.9350   -0.6760   -1.5400 n1        1 SAQ     -0.182000
      3 C4         -3.4810   -0.5600   -1.5110 c1        1 SAQ     -0.071000
      4 C5         -2.7890   -0.3080   -2.6690 c1        1 SAQ     -0.071000
      5 C6         -3.5320   -0.1500   -3.9680 c1        1 SAQ      0.344000
      6 C7         -1.3810   -0.1180   -2.6280 c2        1 SAQ     -0.069000
      7 C8         -0.6920   -0.1870   -1.3920 c1        1 SAQ     -0.034500
      8 C10        -2.7900   -0.6300   -0.2730 c2        1 SAQ     -0.069000
      9 N12         0.6300   -0.1100   -1.0820 n1        1 SAQ     -0.216000
     10 C13         0.7610   -0.3120    0.2620 c1        1 SAQ      0.134000
     11 C2         -5.6510   -0.5210   -2.7880 c2        1 SAQ      0.058000
     12 C9         -1.3840   -0.4400   -0.2330 c1        1 SAQ     -0.034500
     13 N14        -0.4850   -0.5160    0.7840 n1        1 SAQ     -0.216000
     14 N15         1.5370   -0.0930    1.4320 n2        1 SAQ     -0.258000
     15 O16        -2.9270    0.1350   -4.9810 o         1 SAQ     -0.355000
     16 C25         2.7270    0.7230    1.3660 c3        1 SAQ      0.020000
     17 C11         3.5710    0.4800    2.6020 c2        1 SAQ     -0.427000
     18 S1          3.0430    0.0080    3.9850 ss        1 SAQ      0.584000
     19 C12         4.2210    0.0880    4.9900 c1        1 SAQ     -0.432000
     20 C131        5.3880    0.5740    4.2730 c1        1 SAQ     -0.158000
     21 C14         4.9770    0.8230    2.7570 c1        1 SAQ     -0.131000
     22 HN1        -5.3930   -0.1610   -4.7910 hn        1 SAQ      0.251000
     23 H7         -0.8940    0.0950   -3.4450 ha        1 SAQ      0.166500
     24 H10        -3.2960   -0.7290    0.5640 ha        1 SAQ      0.166500
     25 HN12        1.3120    0.0500   -1.6720 DU        1 SAQ      0.186500
     26 H2         -6.6350   -0.5990   -2.8060 h5        1 SAQ      0.181000
     27 HN15        1.2960   -0.4880    2.2230 hn        1 SAQ      0.228000
     28 H25         2.4720    1.6720    1.3240 h1        1 SAQ      0.094500
     29 H25A        3.2440    0.4870    0.5620 h1        1 SAQ      0.094500
     30 H9          4.1860   -0.1490    5.9440 DU        1 SAQ      0.186500
     31 H101        6.2660    0.7210    4.6540 DU        1 SAQ      0.186500
     32 H11         5.5680    1.1500    2.0490 DU        1 SAQ      0.186500
@<TRIPOS>BOND
     1    1    5 1   
     2    1   11 1   
     3    1   22 1   
     4    2   11 1   
     5    3    4 1   
     6    3    8 1   
     7    4    6 1   
     8    5   15 1   
     9    6    7 1   
    10    6   23 1   
    11    8   12 1   
    12    8   24 1   
    13    9   10 1   
    14   10   13 1   
    15   11   26 1   
    16   14   16 1   
    17   14   27 1   
    18   16   17 1   
    19   16   28 1   
    20   16   29 1   
    21   17   18 1   
    22   17   21 1   
    23   18   19 1   
    24   19   20 1   
    25   20   21 1   
@<TRIPOS>SUBSTRUCTURE
     1 SAQ         1 TEMP              0 ****  ****    0 ROOT
