@<TRIPOS>MOLECULE
SAQ
   32    35     1     0     0
SMALL
bcc


@<TRIPOS>ATOM
      1 N1          6.0540   -0.4270   -0.1020 n         1 SAQ     -0.502400
      2 N3          4.8680    1.6670   -0.2040 nc        1 SAQ     -0.609100
      3 C4          3.6440    0.9840   -0.0860 ca        1 SAQ      0.160400
      4 C5          3.6120   -0.4410    0.0250 ca        1 SAQ     -0.183600
      5 C6          4.8840   -1.1940    0.0200 c         1 SAQ      0.707100
      6 C7          2.4130   -1.1520    0.1390 ca        1 SAQ     -0.057000
      7 C8          1.2350   -0.4190    0.1500 ca        1 SAQ     -0.106200
      8 C10         2.4440    1.7240   -0.0790 ca        1 SAQ     -0.081000
      9 N12        -0.1140   -0.8140    0.1930 na        1 SAQ     -0.288300
     10 C13        -0.8680    0.4090    0.2180 cc        1 SAQ      0.611700
     11 C2          5.9680    0.9590   -0.2060 cd        1 SAQ      0.481800
     12 C9          1.2400    1.0340    0.0430 ca        1 SAQ      0.131400
     13 N14        -0.0820    1.5180    0.0740 nd        1 SAQ     -0.615100
     14 N15        -2.2610    0.4190    0.4250 nh        1 SAQ     -0.772200
     15 O16         4.9790   -2.4310    0.1150 o         1 SAQ     -0.630500
     16 C25        -3.0160   -0.6870   -0.1450 c3        1 SAQ      0.261100
     17 C11        -4.4570   -0.3770   -0.2910 cc        1 SAQ     -0.167400
     18 S1         -5.5730   -0.5190    0.9530 ss        1 SAQ      0.067200
     19 C12        -6.8590   -0.0530    0.0060 cc        1 SAQ     -0.168100
     20 C131       -6.4700    0.2280   -1.2880 cd        1 SAQ     -0.159000
     21 C14        -5.0650    0.0400   -1.4630 cd        1 SAQ     -0.135000
     22 HN1         6.9370   -0.8840   -0.1120 hn        1 SAQ      0.337500
     23 H7          2.4300   -2.2500    0.2140 ha        1 SAQ      0.163000
     24 H10         2.4570    2.8210   -0.1690 ha        1 SAQ      0.170000
     25 HN12       -0.4240   -1.6570    0.6040 hn        1 SAQ      0.299700
     26 H2          6.9350    1.5000   -0.3000 h5        1 SAQ      0.051800
     27 HN15       -2.6640    1.3190    0.2380 hn        1 SAQ      0.430800
     28 H25        -2.6100   -0.9930   -1.1560 h1        1 SAQ      0.055200
     29 H25A       -2.8860   -1.5680    0.5510 h1        1 SAQ      0.055200
     30 H9         -7.8780    0.0160    0.3840 h4        1 SAQ      0.175000
     31 H101       -7.1350    0.5530   -2.0900 ha        1 SAQ      0.158000
     32 H11        -4.5510    0.2040   -2.4120 ha        1 SAQ      0.157000
@<TRIPOS>BOND
     1    1    5 1   
     2    1   11 1   
     3    1   22 1   
     4    2    3 1   
     5    2   11 2   
     6    3    4 ar  
     7    3    8 ar  
     8    4    5 1   
     9    4    6 ar  
    10    5   15 2   
    11    6    7 ar  
    12    6   23 1   
    13    7    9 1   
    14    7   12 ar  
    15    8   12 ar  
    16    8   24 1   
    17    9   10 1   
    18    9   25 1   
    19   10   13 2   
    20   10   14 1   
    21   11   26 1   
    22   12   13 1   
    23   14   16 1   
    24   14   27 1   
    25   16   17 1   
    26   16   28 1   
    27   16   29 1   
    28   17   18 1   
    29   17   21 2   
    30   18   19 1   
    31   19   20 2   
    32   19   30 1   
    33   20   21 1   
    34   20   31 1   
    35   21   32 1   
@<TRIPOS>SUBSTRUCTURE
     1 SAQ         1 TEMP              0 ****  ****    0 ROOT
