@<TRIPOS>MOLECULE
SAQ
   33    36     1     0     0
SMALL
bcc


@<TRIPOS>ATOM
      1 N1          0.0920    0.1050   -0.1180 n         1 SAQ     -0.491400
      2 N3          0.0770    0.9660    2.1320 nc        1 SAQ     -0.617100
      3 C4          1.3710    0.4640    2.3410 ca        1 SAQ      0.174400
      4 C5          2.0620   -0.2410    1.2990 ca        1 SAQ     -0.139600
      5 C6          1.3820   -0.4340   -0.0090 c         1 SAQ      0.699100
      6 C7          3.3460   -0.7540    1.4600 ca        1 SAQ     -0.057000
      7 C8          3.9560   -0.5580    2.6990 ca        1 SAQ     -0.071200
      8 C10         1.9880    0.6600    3.5910 ca        1 SAQ     -0.042000
      9 N12         5.2280   -0.9050    3.1800 na        1 SAQ     -0.253300
     10 C13         5.2390   -0.4640    4.5310 cc        1 SAQ      0.409700
     11 C2         -0.4790    0.7710    0.9600 cd        1 SAQ      0.516800
     12 C9          3.2760    0.1500    3.7750 ca        1 SAQ      0.086400
     13 N14         4.1120    0.2000    4.9050 nd        1 SAQ     -0.486100
     14 N15         6.4020   -0.6200    5.4050 n4        1 SAQ     -0.693000
     15 O16         1.8930   -1.0300   -0.9710 o         1 SAQ     -0.588500
     16 C25         7.3980    0.5090    5.2060 c3        1 SAQ      0.232100
     17 C11         8.5650    0.3110    6.0670 cc        1 SAQ     -0.303400
     18 S1          8.8890    1.2000    7.4460 ss        1 SAQ      0.170200
     19 C12        10.3300    0.4510    7.7340 cc        1 SAQ     -0.136100
     20 C131       10.6240   -0.5080    6.7750 cd        1 SAQ     -0.152000
     21 C14         9.6000   -0.5870    5.7980 cd        1 SAQ     -0.103000
     22 HN1        -0.4060    0.0020   -0.9760 hn        1 SAQ      0.356500
     23 H7          3.8400   -1.2860    0.6300 ha        1 SAQ      0.183000
     24 H10         1.4720    1.2020    4.4010 ha        1 SAQ      0.189000
     25 HN12        5.8310   -1.5710    2.7700 hn        1 SAQ      0.323700
     26 H2         -1.5060    1.1720    0.8030 h5        1 SAQ      0.074800
     27 HN15        6.8640   -1.5190    5.2260 hn        1 SAQ      0.468800
     28 H25         7.6850    0.5040    4.1140 hx        1 SAQ      0.116700
     29 H25A        6.8540    1.4720    5.4340 hx        1 SAQ      0.116700
     30 H9         10.9760    0.6950    8.5820 h4        1 SAQ      0.203000
     31 H101       11.5280   -1.1240    6.7610 ha        1 SAQ      0.184000
     32 H11         9.6430   -1.2590    4.9370 ha        1 SAQ      0.158000
     33 H152        6.0770   -0.6160    6.3840 hn        1 SAQ      0.468800
@<TRIPOS>BOND
     1    1    5 1   
     2    1   11 1   
     3    1   22 1   
     4    2    3 1   
     5    2   11 2   
     6    3    4 ar  
     7    3    8 ar  
     8    4    5 1   
     9    4    6 ar  
    10    5   15 2   
    11    6    7 ar  
    12    6   23 1   
    13    7    9 1   
    14    7   12 ar  
    15    8   12 ar  
    16    8   24 1   
    17    9   10 1   
    18    9   25 1   
    19   10   13 2   
    20   10   14 1   
    21   11   26 1   
    22   12   13 1   
    23   14   16 1   
    24   14   27 1   
    25   14   33 1   
    26   16   17 1   
    27   16   28 1   
    28   16   29 1   
    29   17   18 1   
    30   17   21 2   
    31   18   19 1   
    32   19   20 2   
    33   19   30 1   
    34   20   21 1   
    35   20   31 1   
    36   21   32 1   
@<TRIPOS>SUBSTRUCTURE
     1 SAQ         1 TEMP              0 ****  ****    0 ROOT
