@<TRIPOS>MOLECULE
SAR
   12    11     1     0     0
SMALL
bcc


@<TRIPOS>ATOM
      1 N           1.5500   -0.1130   -0.6860 n3        1 SAR     -0.812200
      2 CA          0.3250    0.6570   -0.5500 c3        1 SAR      0.020800
      3 C          -0.7220    0.1080    0.4530 c         1 SAR      0.885600
      4 O          -0.6220   -1.0950    0.8340 o         1 SAR     -0.850300
      5 CN          2.5030    0.1430    0.3660 c3        1 SAR      0.155100
      6 OXT        -1.6330    0.8990    0.8260 o         1 SAR     -0.850300
      7 H           1.2930   -1.0890   -0.6520 hn        1 SAR      0.359800
      8 HA2         0.5690    1.7160   -0.2680 h1        1 SAR      0.030200
      9 HA3        -0.1620    0.6730   -1.5640 h1        1 SAR      0.030200
     10 HN1         2.8400    1.2120    0.3050 h1        1 SAR      0.010700
     11 HN2         2.0980   -0.0360    1.4000 h1        1 SAR      0.010700
     12 HN3         3.3950   -0.5200    0.2160 h1        1 SAR      0.010700
@<TRIPOS>BOND
     1    1    2 1   
     2    1    5 1   
     3    1    7 1   
     4    2    3 1   
     5    2    8 1   
     6    2    9 1   
     7    3    4 1   
     8    3    6 1   
     9    5   10 1   
    10    5   11 1   
    11    5   12 1   
@<TRIPOS>SUBSTRUCTURE
     1 SAR         1 TEMP              0 ****  ****    0 ROOT
