@<TRIPOS>MOLECULE
SAS
   41    43     1     0     0
SMALL
bcc


@<TRIPOS>ATOM
      1 C1          0.0490   -0.0040    0.1770 ca        1 SAS      0.677200
      2 C2          1.4710    0.0140    0.2840 ca        1 SAS     -0.294300
      3 C3          2.0490   -0.1770    1.5360 ca        1 SAS     -0.060000
      4 C4          1.2340   -0.3810    2.6480 ca        1 SAS     -0.286300
      5 C5         -0.1590   -0.3850    2.4550 ca        1 SAS      0.447200
      6 N1         -0.7570   -0.2050    1.2690 nb        1 SAS     -0.723000
      7 N2         -0.5690    0.1860   -1.0630 nu        1 SAS     -0.857800
      8 S1         -2.1910    0.1660   -1.3930 sy        1 SAS      1.529200
      9 O1         -2.7880   -1.0310   -0.9660 o         1 SAS     -0.656300
     10 O2         -2.2610    0.4090   -2.7880 o         1 SAS     -0.656300
     11 C6         -2.7970    1.4680   -0.5630 ca        1 SAS     -0.429500
     12 C7         -2.7130    2.7630   -1.1010 ca        1 SAS      0.002500
     13 C8         -3.2150    3.8640   -0.4290 ca        1 SAS     -0.164000
     14 C9         -3.8330    3.7010    0.8340 ca        1 SAS      0.217400
     15 C10        -3.9310    2.4030    1.3760 ca        1 SAS     -0.164000
     16 C11        -3.4220    1.3130    0.6810 ca        1 SAS      0.002500
     17 N3         -4.4290    4.8560    1.4390 ne        1 SAS     -0.277400
     18 N4         -4.2690    5.0380    2.6500 nf        1 SAS     -0.149400
     19 C12        -4.8610    6.1470    3.3090 ca        1 SAS     -0.024600
     20 C13        -4.5360    6.3050    4.6790 ca        1 SAS      0.009000
     21 C14        -5.0610    7.3490    5.4310 ca        1 SAS     -0.247600
     22 C15        -5.9360    8.2660    4.8120 ca        1 SAS      0.228100
     23 C16        -6.2690    8.1210    3.4440 ca        1 SAS     -0.229000
     24 C17        -5.7390    7.0800    2.7080 ca        1 SAS     -0.065000
     25 C18        -4.6690    7.4590    6.8950 c         1 SAS      0.921200
     26 O3         -6.5110    9.3240    5.4410 oh        1 SAS     -0.538100
     27 O4         -5.1530    8.4180    7.5720 o         1 SAS     -0.824300
     28 O5         -3.8840    6.5970    7.3690 o         1 SAS     -0.824300
     29 H2          2.0980    0.1790   -0.6010 ha        1 SAS      0.139000
     30 H3          3.1440   -0.1630    1.6420 ha        1 SAS      0.134000
     31 H4          1.6570   -0.5290    3.6490 ha        1 SAS      0.146000
     32 H5         -0.8490   -0.5370    3.3060 h4        1 SAS      0.029100
     33 HN2         0.0750    0.3630   -1.8020 hn        1 SAS      0.452800
     34 H7         -2.2450    2.8990   -2.0920 ha        1 SAS      0.150500
     35 H8         -3.1330    4.8660   -0.8770 ha        1 SAS      0.153000
     36 H10        -4.4060    2.2490    2.3580 ha        1 SAS      0.153000
     37 H11        -3.5070    0.3000    1.1160 ha        1 SAS      0.150500
     38 H13        -3.8520    5.6020    5.1910 ha        1 SAS      0.173000
     39 H16        -6.9530    8.8470    2.9850 ha        1 SAS      0.134000
     40 H17        -6.0110    6.9840    1.6450 ha        1 SAS      0.130000
     41 HO3        -6.2220    9.3430    6.3840 ho        1 SAS      0.493000
@<TRIPOS>BOND
     1    1    2 ar  
     2    1    6 ar  
     3    1    7 1   
     4    2    3 ar  
     5    2   29 1   
     6    3    4 ar  
     7    3   30 1   
     8    4    5 ar  
     9    4   31 1   
    10    5    6 ar  
    11    5   32 1   
    12    7    8 1   
    13    7   33 1   
    14    8    9 2   
    15    8   10 2   
    16    8   11 1   
    17   11   12 ar  
    18   11   16 ar  
    19   12   13 ar  
    20   12   34 1   
    21   13   14 ar  
    22   13   35 1   
    23   14   15 ar  
    24   14   17 1   
    25   15   16 ar  
    26   15   36 1   
    27   16   37 1   
    28   17   18 2   
    29   18   19 1   
    30   19   20 ar  
    31   19   24 ar  
    32   20   21 ar  
    33   20   38 1   
    34   21   22 ar  
    35   21   25 1   
    36   22   23 ar  
    37   22   26 1   
    38   23   24 ar  
    39   23   39 1   
    40   24   40 1   
    41   25   27 1   
    42   25   28 1   
    43   26   41 1   
@<TRIPOS>SUBSTRUCTURE
     1 SAS         1 TEMP              0 ****  ****    0 ROOT
