@<TRIPOS>MOLECULE
SAS
   41    43     1     0     0
SMALL
bcc


@<TRIPOS>ATOM
      1 C1          1.2280    0.5350   -4.7700 ca        1 SAS      0.677200
      2 C2          2.1310    1.4990   -5.3090 ca        1 SAS     -0.294300
      3 C3          3.4840    1.3940   -5.0000 ca        1 SAS     -0.060000
      4 C4          3.9250    0.3570   -4.1780 ca        1 SAS     -0.286300
      5 C5          2.9690   -0.5500   -3.6890 ca        1 SAS      0.447200
      6 N1          1.6580   -0.4860   -3.9610 nb        1 SAS     -0.723000
      7 N2         -0.1390    0.6100   -5.0550 nh        1 SAS     -0.857800
      8 S1         -1.3290   -0.4260   -4.5540 sy        1 SAS      1.529200
      9 O1         -1.0410   -1.7520   -4.9140 o         1 SAS     -0.656300
     10 O2         -2.5120    0.1090   -5.1240 o         1 SAS     -0.656300
     11 C6         -1.3660   -0.2450   -2.9060 ca        1 SAS     -0.429500
     12 C7         -2.0620    0.8230   -2.3180 ca        1 SAS      0.002500
     13 C8         -2.1110    0.9920   -0.9440 ca        1 SAS     -0.164000
     14 C9         -1.4490    0.0730   -0.0950 ca        1 SAS      0.217400
     15 C10        -0.7570   -1.0080   -0.6770 ca        1 SAS     -0.164000
     16 C11        -0.7260   -1.1590   -2.0570 ca        1 SAS      0.002500
     17 N3         -1.6180    0.2330    1.3210 ne        1 SAS     -0.277400
     18 N4         -0.6330    0.0950    2.0520 nf        1 SAS     -0.149400
     19 C12        -0.7460    0.2100    3.4620 ca        1 SAS     -0.024600
     20 C13         0.4640    0.1230    4.1950 ca        1 SAS      0.009000
     21 C14         0.4780    0.2130    5.5810 ca        1 SAS     -0.247600
     22 C15        -0.7410    0.3950    6.2680 ca        1 SAS      0.228100
     23 C16        -1.9570    0.4840    5.5500 ca        1 SAS     -0.229000
     24 C17        -1.9560    0.3940    4.1710 ca        1 SAS     -0.065000
     25 C18         1.8110    0.1120    6.3020 c         1 SAS      0.921200
     26 O3         -0.8540    0.4970    7.6180 oh        1 SAS     -0.538100
     27 O4          1.8130    0.1990    7.5700 o         1 SAS     -0.824300
     28 O5          2.8520   -0.0520    5.6130 o         1 SAS     -0.824300
     29 H2          1.7660    2.3110   -5.9520 ha        1 SAS      0.139000
     30 H3          4.1970    2.1280   -5.4020 ha        1 SAS      0.134000
     31 H4          4.9830    0.2490   -3.9110 ha        1 SAS      0.146000
     32 H5          3.2670   -1.3870   -3.0290 h4        1 SAS      0.029100
     33 HN2        -0.3830    1.3950   -5.6150 hn        1 SAS      0.452800
     34 H7         -2.5940    1.5380   -2.9710 ha        1 SAS      0.150500
     35 H8         -2.6640    1.8410   -0.5140 ha        1 SAS      0.153000
     36 H10        -0.2330   -1.7370   -0.0380 ha        1 SAS      0.153000
     37 H11        -0.1820   -2.0120   -2.5020 ha        1 SAS      0.150500
     38 H13         1.4350   -0.0190    3.6830 ha        1 SAS      0.173000
     39 H16        -2.8930    0.6250    6.1070 ha        1 SAS      0.134000
     40 H17        -2.9130    0.4660    3.6310 ha        1 SAS      0.130000
     41 HO3         0.0390    0.4240    8.0300 ho        1 SAS      0.493000
@<TRIPOS>BOND
     1    1    2 ar  
     2    1    6 ar  
     3    1    7 1   
     4    2    3 ar  
     5    2   29 1   
     6    3    4 ar  
     7    3   30 1   
     8    4    5 ar  
     9    4   31 1   
    10    5    6 ar  
    11    5   32 1   
    12    7    8 1   
    13    7   33 1   
    14    8    9 2   
    15    8   10 2   
    16    8   11 1   
    17   11   12 ar  
    18   11   16 ar  
    19   12   13 ar  
    20   12   34 1   
    21   13   14 ar  
    22   13   35 1   
    23   14   15 ar  
    24   14   17 1   
    25   15   16 ar  
    26   15   36 1   
    27   16   37 1   
    28   17   18 2   
    29   18   19 1   
    30   19   20 ar  
    31   19   24 ar  
    32   20   21 ar  
    33   20   38 1   
    34   21   22 ar  
    35   21   25 1   
    36   22   23 ar  
    37   22   26 1   
    38   23   24 ar  
    39   23   39 1   
    40   24   40 1   
    41   25   27 1   
    42   25   28 1   
    43   26   41 1   
@<TRIPOS>SUBSTRUCTURE
     1 SAS         1 TEMP              0 ****  ****    0 ROOT
