@<TRIPOS>MOLECULE
SAS
   42    43     1     0     0
SMALL
bcc


@<TRIPOS>ATOM
      1 C1         -0.2190    0.0640    0.4680 ca        1 SAS      0.521200
      2 C2          0.7950    1.0440    0.3350 ca        1 SAS     -0.253300
      3 C3          1.1050    1.8380    1.4420 ca        1 SAS     -0.070000
      4 C4          0.4210    1.6410    2.6380 ca        1 SAS     -0.227300
      5 C5         -0.5680    0.6370    2.6830 ca        1 SAS      0.429200
      6 N1         -0.8950   -0.1410    1.6420 nb        1 SAS     -0.686000
      7 N2         -0.6090   -0.7260   -0.6720 nh        1 SAS     -0.983500
      8 S1         -2.7100   -0.0930   -1.6900 s4        1 SAS      1.681300
      9 O1         -3.2480   -1.3020   -1.3530 o         1 SAS     -0.468400
     10 O2         -2.0950    0.0590   -2.9030 o         1 SAS     -0.468400
     11 C6         -3.0810    1.1440   -0.9000 ca        1 SAS     -0.706500
     12 C7         -2.7600    2.4650   -1.3600 ca        1 SAS      0.036000
     13 C8         -3.0350    3.5840   -0.6350 ca        1 SAS     -0.190500
     14 C9         -3.6530    3.4910    0.6630 ca        1 SAS      0.340400
     15 C10        -4.0350    2.1800    1.1080 ca        1 SAS     -0.190500
     16 C11        -3.7590    1.0720    0.3600 ca        1 SAS      0.036000
     17 N3         -3.8890    4.6730    1.3400 ne        1 SAS     -0.354400
     18 N4         -4.0530    4.6410    2.5980 nf        1 SAS     -0.105400
     19 C12        -4.4140    5.7440    3.3200 ca        1 SAS     -0.018600
     20 C13        -4.3950    5.5980    4.7530 ca        1 SAS      0.033000
     21 C14        -4.7410    6.6300    5.5950 ca        1 SAS     -0.213600
     22 C15        -5.1210    7.8740    5.0330 ca        1 SAS      0.281100
     23 C16        -5.1540    8.0480    3.6170 ca        1 SAS     -0.285000
     24 C17        -4.8080    7.0170    2.7840 ca        1 SAS     -0.012000
     25 C18        -4.7000    6.3750    7.1170 c         1 SAS      0.927200
     26 O3         -5.4320    8.8860    5.8690 oh        1 SAS     -0.384100
     27 O4         -4.0470    5.3580    7.4720 o         1 SAS     -0.788300
     28 O5         -5.3210    7.1730    7.8540 o         1 SAS     -0.788300
     29 H2          1.3330    1.1840   -0.6130 ha        1 SAS      0.150000
     30 H3          1.8870    2.6100    1.3620 ha        1 SAS      0.157000
     31 H4          0.6350    2.2470    3.5310 ha        1 SAS      0.171000
     32 H5         -1.1370    0.4420    3.6140 h4        1 SAS      0.048100
     33 HN2         0.1150   -0.6980   -1.3710 hn        1 SAS      0.413300
     34 H7         -2.2640    2.5580   -2.3450 ha        1 SAS      0.155500
     35 H8         -2.7740    4.5810   -1.0300 ha        1 SAS      0.175500
     36 H10        -4.5490    2.0690    2.0780 ha        1 SAS      0.175500
     37 H11        -4.0480    0.0710    0.7330 ha        1 SAS      0.155500
     38 H13        -4.0840    4.6410    5.2210 ha        1 SAS      0.192000
     39 H16        -5.4590    9.0210    3.2040 ha        1 SAS      0.139000
     40 H17        -4.8340    7.1640    1.6920 ha        1 SAS      0.146000
     41 HO3        -5.6840    9.6640    5.3420 ho        1 SAS      0.415000
     42 H22        -0.7870   -1.6840   -0.4090 hn        1 SAS      0.413300
@<TRIPOS>BOND
     1    1    2 ar  
     2    1    6 ar  
     3    1    7 1   
     4    2    3 ar  
     5    2   29 1   
     6    3    4 ar  
     7    3   30 1   
     8    4    5 ar  
     9    4   31 1   
    10    5    6 ar  
    11    5   32 1   
    12    7   33 1   
    13    7   42 1   
    14    8    9 1   
    15    8   10 1   
    16    8   11 1   
    17   11   12 ar  
    18   11   16 ar  
    19   12   13 ar  
    20   12   34 1   
    21   13   14 ar  
    22   13   35 1   
    23   14   15 ar  
    24   14   17 1   
    25   15   16 ar  
    26   15   36 1   
    27   16   37 1   
    28   17   18 2   
    29   18   19 1   
    30   19   20 ar  
    31   19   24 ar  
    32   20   21 ar  
    33   20   38 1   
    34   21   22 ar  
    35   21   25 1   
    36   22   23 ar  
    37   22   26 1   
    38   23   24 ar  
    39   23   39 1   
    40   24   40 1   
    41   25   27 1   
    42   25   28 1   
    43   26   41 1   
@<TRIPOS>SUBSTRUCTURE
     1 SAS         1 TEMP              0 ****  ****    0 ROOT
