@<TRIPOS>MOLECULE
SAS
   41    34     1     0     0
SMALL
bcc


@<TRIPOS>ATOM
      1 C1         -0.5120   -3.9200   -1.1010 c1        1 SAS      0.158000
      2 C2          0.2300   -5.0910   -1.1340 c1        1 SAS     -0.142500
      3 C3         -0.3680   -6.2690   -1.4790 c1        1 SAS     -0.142500
      4 C4         -1.6960   -6.2920   -1.7910 c1        1 SAS     -0.142500
      5 C5         -2.4360   -5.1210   -1.7580 c1        1 SAS     -0.142500
      6 N1         -1.8380   -3.9450   -1.4140 n1        1 SAS     -0.138000
      7 N2          0.0850   -2.7150   -0.6410 n3        1 SAS     -0.834000
      8 S1          1.2390   -1.9730   -1.5440 s4        1 SAS      2.085800
      9 O1          2.4230   -2.7810   -1.6450 o         1 SAS     -0.567400
     10 O2          0.8450   -1.8820   -2.9230 o         1 SAS     -0.567400
     11 C6          1.6090   -0.3700   -0.8730 c1        1 SAS     -0.822000
     12 C7          2.1580   -0.2610    0.3950 c2        1 SAS      0.006000
     13 C8          2.5290    0.9820    0.8860 c1        1 SAS     -0.157000
     14 C9          2.3500    2.1170    0.1080 c1        1 SAS     -0.011000
     15 C10         1.8000    2.0070   -1.1600 c1        1 SAS     -0.155000
     16 C11         1.4290    0.7640   -1.6500 c1        1 SAS      0.010000
     17 N3          2.8560    3.3680    0.5560 n2        1 SAS     -0.050000
     18 N4          2.0820    4.2200    1.0230 n1        1 SAS      0.019000
     19 C12         0.6930    3.9450    1.1100 c1        1 SAS     -0.190000
     20 C13         0.1530    3.4840    2.3010 c2        1 SAS     -0.073000
     21 C14        -1.2170    3.3120    2.4200 c1        1 SAS     -0.126000
     22 C15        -2.0480    3.6010    1.3490 c1        1 SAS      0.130000
     23 C16        -1.5080    4.0620    0.1590 c1        1 SAS     -0.263000
     24 C17        -0.1380    4.2340    0.0390 c1        1 SAS     -0.051000
     25 C18        -1.8130    2.8880    3.7450 c2        1 SAS      0.383000
     26 O3         -3.4310    3.3620    1.4480 oh        1 SAS     -0.201000
     27 O4         -2.0380    1.6710    3.9730 o         1 SAS     -0.560000
     28 O5         -2.0670    3.7510    4.6260 o         1 SAS     -0.560000
     29 H2          1.1800   -5.0730   -0.9100 ha        1 SAS      0.145000
     30 H3          0.1430   -7.1000   -1.4580 ha        1 SAS      0.145000
     31 H4         -2.1250   -7.1340   -2.0380 ha        1 SAS      0.145000
     32 H5         -3.3860   -5.1370   -1.9820 ha        1 SAS      0.145000
     33 HN2        -0.1600   -2.3640    0.1640 hn        1 SAS      0.331000
     34 H7          2.2850   -1.0590    0.9420 ha        1 SAS      0.156000
     35 H8          2.9350    1.0560    1.7700 ha        1 SAS      0.145000
     36 H10         1.6740    2.8050   -1.7070 ha        1 SAS      0.144000
     37 H11         1.0750    0.6830   -2.5560 ha        1 SAS      0.151000
     38 H13         0.7350    3.3090    3.0650 ha        1 SAS      0.164000
     39 H16        -2.0930    4.2660   -0.5960 ha        1 SAS      0.117000
     40 H17         0.2420    4.5590   -0.7990 ha        1 SAS      0.127000
     41 HO3        -3.8760    4.0400    1.0820 ho        1 SAS      0.191000
@<TRIPOS>BOND
     1    1    6 1   
     2    1    7 1   
     3    2    3 1   
     4    2   29 1   
     5    3   30 1   
     6    4    5 1   
     7    4   31 1   
     8    5   32 1   
     9    7    8 1   
    10    7   33 1   
    11    8    9 1   
    12    8   10 1   
    13   11   12 1   
    14   11   16 1   
    15   12   13 1   
    16   12   34 1   
    17   13   35 1   
    18   14   15 1   
    19   14   17 1   
    20   15   36 1   
    21   16   37 1   
    22   17   18 1   
    23   19   20 1   
    24   19   24 1   
    25   20   21 1   
    26   20   38 1   
    27   21   25 1   
    28   22   23 1   
    29   22   26 1   
    30   23   39 1   
    31   24   40 1   
    32   25   27 1   
    33   25   28 1   
    34   26   41 1   
@<TRIPOS>SUBSTRUCTURE
     1 SAS         1 TEMP              0 ****  ****    0 ROOT
