@<TRIPOS>MOLECULE
SAT
   10     9     1     0     0
SMALL
bcc


@<TRIPOS>ATOM
      1 O5          0.0070    0.1930    0.2510 o         1 SAT     -0.775200
      2 S1          1.3190   -0.1140   -0.1980 s6        1 SAT      1.410800
      3 O3          2.1180   -0.6880    0.8520 o         1 SAT     -0.775200
      4 O4          1.2990   -0.9960   -1.3340 o         1 SAT     -0.775200
      5 C2          2.2190    1.2850   -0.7320 c3        1 SAT     -0.406600
      6 C1          1.6370    2.6990   -0.7140 c         1 SAT      0.956600
      7 O1          1.8300    3.4320    0.3050 o         1 SAT     -0.882300
      8 O2          1.0590    3.1420   -1.7530 o         1 SAT     -0.882300
      9 H21         2.5260    1.0990   -1.7920 h1        1 SAT      0.064700
     10 H22         3.1540    1.3350   -0.1180 h1        1 SAT      0.064700
@<TRIPOS>BOND
     1    1    2 1   
     2    2    3 1   
     3    2    4 1   
     4    2    5 1   
     5    5    6 1   
     6    5    9 1   
     7    5   10 1   
     8    6    7 1   
     9    6    8 1   
@<TRIPOS>SUBSTRUCTURE
     1 SAT         1 TEMP              0 ****  ****    0 ROOT
