@<TRIPOS>MOLECULE
SAT
   10     9     1     0     0
SMALL
bcc


@<TRIPOS>ATOM
      1 O5         -0.9840    0.9410   -1.1330 o         1 SAT     -0.775200
      2 S1         -1.0710   -0.1220   -0.1950 s6        1 SAT      1.410800
      3 O3         -1.7470    0.2860    1.0090 o         1 SAT     -0.775200
      4 O4         -1.7270   -1.2730   -0.7560 o         1 SAT     -0.775200
      5 C2          0.4840   -0.7090    0.3420 c3        1 SAT     -0.406600
      6 C1          1.8060   -0.1260   -0.1600 c         1 SAT      0.956600
      7 O1          2.3540    0.8120    0.4970 o         1 SAT     -0.882300
      8 O2          2.3730   -0.6560   -1.1650 o         1 SAT     -0.882300
      9 H21         0.5130   -0.6080    1.4560 h1        1 SAT      0.064700
     10 H22         0.5280   -1.8030    0.1050 h1        1 SAT      0.064700
@<TRIPOS>BOND
     1    1    2 1   
     2    2    3 1   
     3    2    4 1   
     4    2    5 1   
     5    5    6 1   
     6    5    9 1   
     7    5   10 1   
     8    6    7 1   
     9    6    8 1   
@<TRIPOS>SUBSTRUCTURE
     1 SAT         1 TEMP              0 ****  ****    0 ROOT
