@<TRIPOS>MOLECULE
SAU
   39    44     1     0     0
SMALL
bcc


@<TRIPOS>ATOM
      1 N          -0.0860   -0.1520   -0.0200 na        1 SAU      0.036900
      2 C1          3.3020   -0.0070   -5.6650 c3        1 SAU      0.320200
      3 O1          2.1060    0.3030   -4.9010 os        1 SAU     -0.319900
      4 C2          3.7510   -0.4040   -3.4640 ca        1 SAU      0.095100
      5 O2          4.3130   -0.4560   -4.7260 os        1 SAU     -0.310900
      6 C3          2.3910    0.0480   -3.5730 ca        1 SAU      0.106100
      7 O3         -1.1690    1.4530    5.6360 os        1 SAU     -0.304900
      8 C4          4.3200   -0.6640   -2.2520 ca        1 SAU     -0.108000
      9 O4         -2.2380    1.0280    3.5980 os        1 SAU     -0.325900
     10 C5          3.4900   -0.4960   -1.0990 ca        1 SAU     -0.018000
     11 C6          2.1150   -0.1540   -1.2090 ca        1 SAU     -0.025000
     12 C7          1.5770    0.1960   -2.4860 ca        1 SAU     -0.158000
     13 C8          4.0860   -0.6180    0.1880 ca        1 SAU     -0.062000
     14 C9          3.3740   -0.3330    1.3190 ca        1 SAU     -0.128000
     15 C10         1.3290   -0.1140    0.0020 ca        1 SAU     -0.016300
     16 C12        -0.7880    0.1430    1.0830 ca        1 SAU      0.069700
     17 C13        -0.1650    0.4550    2.3200 ca        1 SAU     -0.107000
     18 C14         1.2560    0.3310    2.4490 ca        1 SAU      0.025000
     19 C15         1.9870   -0.0320    1.2590 ca        1 SAU     -0.005000
     20 C18         1.8720    0.5900    3.6880 ca        1 SAU     -0.126000
     21 C19         1.1500    0.9750    4.8210 ca        1 SAU     -0.031000
     22 C20        -0.2290    1.0930    4.6830 ca        1 SAU      0.064100
     23 C21        -0.8780    0.8390    3.4580 ca        1 SAU      0.114100
     24 C23        -2.4640    1.4270    4.9830 c3        1 SAU      0.324200
     25 C25        -0.8200   -0.6820   -1.1630 c3        1 SAU     -0.032400
     26 H1          3.0690   -0.8470   -6.3650 h2        1 SAU      0.098200
     27 H1A         3.6620    0.9310   -6.1560 h2        1 SAU      0.098200
     28 H4          5.3700   -0.9710   -2.1430 ha        1 SAU      0.180000
     29 H7          0.5810    0.6400   -2.6090 ha        1 SAU      0.160000
     30 H8          5.1490   -0.9100    0.2520 ha        1 SAU      0.167000
     31 H9          3.8780   -0.3610    2.2990 ha        1 SAU      0.161000
     32 H12        -1.9000    0.1150    1.0290 h4        1 SAU      0.209000
     33 H18         2.9670    0.5080    3.7850 ha        1 SAU      0.168000
     34 H19         1.6490    1.1790    5.7810 ha        1 SAU      0.188000
     35 H23        -2.8900    2.4600    4.9860 h2        1 SAU      0.102200
     36 H23A       -3.0990    0.6480    5.4740 h2        1 SAU      0.102200
     37 H25        -1.6890   -1.2960   -0.7970 h1        1 SAU      0.097367
     38 H25A       -0.1510   -1.3450   -1.7760 h1        1 SAU      0.097367
     39 H25B       -1.2120    0.1650   -1.7880 h1        1 SAU      0.097367
@<TRIPOS>BOND
     1    1   15 1   
     2    1   16 2   
     3    1   25 1   
     4    2    3 1   
     5    2    5 1   
     6    2   26 1   
     7    2   27 1   
     8    3    6 1   
     9    4    5 1   
    10    4    6 ar  
    11    4    8 ar  
    12    6   12 ar  
    13    7   22 1   
    14    7   24 1   
    15    8   10 ar  
    16    8   28 1   
    17    9   23 1   
    18    9   24 1   
    19   10   11 ar  
    20   10   13 ar  
    21   11   12 ar  
    22   11   15 ar  
    23   12   29 1   
    24   13   14 ar  
    25   13   30 1   
    26   14   19 ar  
    27   14   31 1   
    28   15   19 ar  
    29   16   17 ar  
    30   16   32 1   
    31   17   18 ar  
    32   17   23 ar  
    33   18   19 ar  
    34   18   20 ar  
    35   20   21 ar  
    36   20   33 1   
    37   21   22 ar  
    38   21   34 1   
    39   22   23 ar  
    40   24   35 1   
    41   24   36 1   
    42   25   37 1   
    43   25   38 1   
    44   25   39 1   
@<TRIPOS>SUBSTRUCTURE
     1 SAU         1 TEMP              0 ****  ****    0 ROOT
