@<TRIPOS>MOLECULE
SAV
   52    51     1     0     0
SMALL
bcc


@<TRIPOS>ATOM
      1 N1         -0.7580    0.9550   -1.0500 nu        1 SAV     -0.253000
      2 N3         -4.8100    1.5950   -2.7390 n2        1 SAV     -0.229000
      3 C4          0.4690    0.8160   -0.3620 ca        1 SAV      0.121000
      4 C5         -1.9620    1.3200   -0.3490 c2        1 SAV      0.162000
      5 C6         -3.3160    3.8670   -3.4790 c1        1 SAV      0.289000
      6 C7         -2.8660    3.0070   -2.5840 c2        1 SAV     -0.501000
      7 C8         -3.5810    1.8210   -2.0660 c2        1 SAV      0.206000
      8 C10        -4.5150   -1.9050    1.9750 c2        1 SAV     -0.143000
      9 C13        -2.8280   -2.8280   -1.2180 c2        1 SAV     -0.049000
     10 C15        -4.9710   -1.9330   -1.7260 c3        1 SAV     -0.025000
     11 C17         1.0150    1.8860    0.3780 ca        1 SAV     -0.205000
     12 C20         3.0260    0.5790    0.7970 ca        1 SAV     -0.198000
     13 C21         5.1940    1.2260    1.5750 c1        1 SAV     -0.023000
     14 C1          1.6450   -3.2950   -1.2830 c1        1 SAV     -0.039000
     15 C2          2.4760   -0.4820    0.0620 ca        1 SAV      0.136000
     16 C3          1.2040   -0.3810   -0.5080 ca        1 SAV     -0.237000
     17 N2         -1.9210    1.7930    0.8670 n2        1 SAV     -0.308000
     18 C9         -5.5030    0.5020   -2.5680 c2        1 SAV      0.014000
     19 C11        -4.2800   -2.0900    0.7130 c1        1 SAV     -0.090000
     20 C12        -4.0400   -2.2630   -0.5510 c2        1 SAV     -0.072000
     21 N4         -2.9650   -2.8660   -2.5340 n2        1 SAV     -0.059000
     22 N5         -4.1350   -2.2990   -2.9310 n7        1 SAV     -0.237000
     23 C16        -5.4280   -0.5690   -1.6830 c1        1 SAV      0.010000
     24 N6         -3.1780    1.0640   -1.0790 n2        1 SAV     -0.304000
     25 C18         2.2780    1.7560    0.9630 ca        1 SAV      0.109000
     26 O2          2.8880    2.7540    1.6980 os        1 SAV     -0.227000
     27 C19         2.0460    3.8190    2.1340 c3        1 SAV     -0.074000
     28 O3          4.2940    0.3450    1.3890 os        1 SAV     -0.028000
     29 HN1        -0.9090    0.2110   -1.7080 hn        1 SAV      0.223000
     30 HN3        -6.4610    0.4830   -3.1560 h4        1 SAV      0.185000
     31 H6         -2.8000    2.0770    1.2440 hn        1 SAV      0.160000
     32 H7         -1.8450    3.1750   -2.1770 ha        1 SAV      0.211000
     33 H10        -4.9850   -2.6750    2.6050 ha        1 SAV      0.145500
     34 H17         0.4470    2.8180    0.5050 ha        1 SAV      0.164000
     35 H21         5.5430   -2.1620    1.6420 ha        1 SAV      0.002500
     36 H21A        5.0550    2.2880    1.2920 ha        1 SAV      0.062000
     37 H21B        5.6710   -1.5100    1.7800 ha        1 SAV      0.002500
     38 H1          3.9470   -1.6650    0.4180 ho        1 SAV      0.253000
     39 H1A         2.0690   -3.8850   -0.4580 ha        1 SAV      0.019500
     40 H1B         2.3910   -3.1150   -2.0720 ha        1 SAV      0.019500
     41 H3          0.7990   -1.2530   -1.0570 ha        1 SAV      0.185000
     42 H11        -4.2530   -0.9650    2.4850 ha        1 SAV      0.145500
     43 H14        -1.5920   -2.7100    0.5150 hc        1 SAV      0.110667
     44 H14A       -1.7610   -4.3690   -0.2070 hc        1 SAV      0.110667
     45 H14B       -0.6900   -3.1370   -1.0100 hc        1 SAV      0.110667
     46 HN5        -4.6230   -2.9150   -3.5620 hn        1 SAV      0.187000
     47 H16        -5.9090   -2.5720   -1.6560 h1        1 SAV      0.152000
     48 H19         1.1420    3.4240    2.6580 h1        1 SAV      0.091333
     49 H19A        1.7520    4.4560    1.2650 h1        1 SAV      0.091333
     50 H19B        2.7000    4.3910    2.8400 h1        1 SAV      0.091333
     51 O1          3.1470   -1.6660   -0.1360 oh        1 SAV     -0.285000
     52 C14        -1.6530   -3.2800   -0.4450 c3        1 SAV     -0.185000
@<TRIPOS>BOND
     1    1    3 1   
     2    1    4 1   
     3    1   29 1   
     4    2    7 1   
     5    2   18 1   
     6    3   11 1   
     7    3   16 1   
     8    4   17 1   
     9    4   24 1   
    10    5    6 1   
    11    6    7 1   
    12    6   32 1   
    13    7   24 1   
    14    8   19 1   
    15    8   33 1   
    16    8   42 1   
    17    9   20 1   
    18    9   21 1   
    19    9   52 1   
    20   10   20 1   
    21   10   22 1   
    22   10   23 1   
    23   10   47 1   
    24   11   25 1   
    25   11   34 1   
    26   12   15 1   
    27   12   25 1   
    28   12   28 1   
    29   13   28 1   
    30   13   36 1   
    31   14   39 1   
    32   14   40 1   
    33   15   16 1   
    34   15   51 1   
    35   16   41 1   
    36   17   31 1   
    37   18   23 1   
    38   18   30 1   
    39   19   20 1   
    40   21   22 1   
    41   22   46 1   
    42   25   26 1   
    43   26   27 1   
    44   27   48 1   
    45   27   49 1   
    46   27   50 1   
    47   35   37 1   
    48   38   51 1   
    49   43   52 1   
    50   44   52 1   
    51   45   52 1   
@<TRIPOS>SUBSTRUCTURE
     1 SAV         1 TEMP              0 ****  ****    0 ROOT
