@<TRIPOS>MOLECULE
SAV
   52    55     1     0     0
SMALL
bcc


@<TRIPOS>ATOM
      1 N1         -0.8970    0.1080    0.5670 nh        1 SAV     -0.706300
      2 N3          3.1720    2.3650   -0.4610 nh        1 SAV     -0.729300
      3 C4         -2.2770   -0.1330    0.3620 ca        1 SAV      0.188600
      4 C5         -0.2640    1.2770    0.0870 ca        1 SAV      0.896900
      5 C6         -0.3320    3.4970   -0.5560 ca        1 SAV      0.481200
      6 C7          1.0590    3.5410   -0.6870 ca        1 SAV     -0.462600
      7 C8          1.7740    2.3330   -0.3940 ca        1 SAV      0.710200
      8 C10         4.9960    1.0050   -1.3480 ca        1 SAV     -0.198000
      9 C13         6.4930   -2.1350    0.2530 cc        1 SAV      0.356900
     10 C15         4.7790   -0.7170    0.8090 ca        1 SAV     -0.039200
     11 C17        -2.6740   -1.3100   -0.3110 ca        1 SAV     -0.235500
     12 C20        -5.0180   -0.7620    0.1010 ca        1 SAV      0.031100
     13 C21        -7.1480   -0.4110   -0.8350 c3        1 SAV      0.114700
     14 C1         -5.2470    2.3810    1.9440 c3        1 SAV      0.110700
     15 C2         -4.6060    0.4190    0.7510 ca        1 SAV      0.149100
     16 C3         -3.2490    0.7310    0.8950 ca        1 SAV     -0.235500
     17 N2         -1.0220    2.4070   -0.1800 nb        1 SAV     -0.756000
     18 C9          3.9930    1.2200   -0.3530 ca        1 SAV      0.164600
     19 C11         5.8850   -0.0520   -1.2690 ca        1 SAV     -0.044000
     20 C12         5.7890   -0.9340   -0.1970 ca        1 SAV     -0.225900
     21 N4          5.9400   -2.5750    1.4090 nd        1 SAV     -0.516100
     22 N5          4.9710   -1.7240    1.7730 na        1 SAV     -0.016100
     23 C16         3.8850    0.3580    0.7470 ca        1 SAV     -0.130000
     24 N6          1.1160    1.1940   -0.0290 nb        1 SAV     -0.800000
     25 C18        -4.0310   -1.6130   -0.4410 ca        1 SAV      0.149100
     26 O2         -4.5140   -2.7230   -1.1020 os        1 SAV     -0.311900
     27 C19        -3.5470   -3.6860   -1.5080 c3        1 SAV      0.110700
     28 O3         -6.3410   -1.1570    0.0790 os        1 SAV     -0.308900
     29 HN1        -0.3310   -0.7170    0.5120 hn        1 SAV      0.437800
     30 HN3         3.5300    3.0790   -1.0610 hn        1 SAV      0.432800
     31 H6         -0.9470    4.3910   -0.7690 h4        1 SAV      0.027100
     32 H7          1.5710    4.4590   -0.9900 ha        1 SAV      0.153000
     33 H10         5.0690    1.6970   -2.2010 ha        1 SAV      0.131000
     34 H17        -1.9170   -1.9860   -0.7350 ha        1 SAV      0.152000
     35 H21        -7.1420    0.6720   -0.5620 h1        1 SAV      0.040700
     36 H21A       -6.7840   -0.5550   -1.8800 h1        1 SAV      0.040700
     37 H21B       -8.1670   -0.8520   -0.7040 h1        1 SAV      0.040700
     38 H1         -4.6590    2.0990    2.8520 h1        1 SAV      0.046533
     39 H1A        -4.6630    3.0790    1.2970 h1        1 SAV      0.046533
     40 H1B        -6.2280    2.8360    2.2350 h1        1 SAV      0.046533
     41 H3         -2.9470    1.6470    1.4230 ha        1 SAV      0.152000
     42 H11         6.6540   -0.1970   -2.0420 ha        1 SAV      0.139000
     43 H14         8.5940   -2.4660    0.0630 hc        1 SAV      0.052367
     44 H14A        7.5610   -3.8720   -0.4340 hc        1 SAV      0.052367
     45 H14B        7.6690   -2.4030   -1.5000 hc        1 SAV      0.052367
     46 HN5         4.3050   -2.0050    2.4550 hn        1 SAV      0.319700
     47 H16         3.1330    0.5090    1.5330 ha        1 SAV      0.161000
     48 H19        -2.8770   -3.2600   -2.2940 h1        1 SAV      0.046533
     49 H19A       -2.9520   -4.0470   -0.6360 h1        1 SAV      0.046533
     50 H19B       -4.1730   -4.5130   -1.9310 h1        1 SAV      0.046533
     51 O1         -5.6310    1.2210    1.2120 os        1 SAV     -0.311900
     52 C14         7.6370   -2.7560   -0.4400 c3        1 SAV     -0.104400
@<TRIPOS>BOND
     1    1    3 1   
     2    1    4 1   
     3    1   29 1   
     4    2    7 1   
     5    2   18 1   
     6    2   30 1   
     7    3   11 ar  
     8    3   16 ar  
     9    4   17 ar  
    10    4   24 ar  
    11    5    6 ar  
    12    5   17 ar  
    13    5   31 1   
    14    6    7 ar  
    15    6   32 1   
    16    7   24 ar  
    17    8   18 ar  
    18    8   19 ar  
    19    8   33 1   
    20    9   20 1   
    21    9   21 2   
    22    9   52 1   
    23   10   20 ar  
    24   10   22 1   
    25   10   23 ar  
    26   11   25 ar  
    27   11   34 1   
    28   12   15 ar  
    29   12   25 ar  
    30   12   28 1   
    31   13   28 1   
    32   13   35 1   
    33   13   36 1   
    34   13   37 1   
    35   14   38 1   
    36   14   39 1   
    37   14   40 1   
    38   14   51 1   
    39   15   16 ar  
    40   15   51 1   
    41   16   41 1   
    42   18   23 ar  
    43   19   20 ar  
    44   19   42 1   
    45   21   22 1   
    46   22   46 1   
    47   23   47 1   
    48   25   26 1   
    49   26   27 1   
    50   27   48 1   
    51   27   49 1   
    52   27   50 1   
    53   43   52 1   
    54   44   52 1   
    55   45   52 1   
@<TRIPOS>SUBSTRUCTURE
     1 SAV         1 TEMP              0 ****  ****    0 ROOT
