@<TRIPOS>MOLECULE
SAV
   52    47     1     0     0
SMALL
bcc


@<TRIPOS>ATOM
      1 N1          0.7970   -1.4790    1.0900 n3        1 SAV     -0.228000
      2 N3         -3.2560    0.1590   -0.8080 n3        1 SAV     -0.258000
      3 C4          2.2020   -1.7870    0.8990 c2        1 SAV      0.065000
      4 C5          0.1340   -0.6340    0.1880 c2        1 SAV      0.176000
      5 C6          0.2110    0.9000   -1.5680 c1        1 SAV      0.010000
      6 C7         -1.1400    1.0030   -1.5310 c1        1 SAV     -0.311000
      7 C8         -1.8540    0.2760   -0.6220 c2        1 SAV      0.185000
      8 C10        -4.5360    1.2650    0.9750 c1        1 SAV     -0.189000
      9 C13        -6.3790    4.5720    0.7180 c1        1 SAV     -0.082000
     10 C15        -5.2890    3.3230   -0.7850 c1        1 SAV      0.015000
     11 C17         2.3900   -3.0540    0.3760 c1        1 SAV     -0.196000
     12 C20         4.7530   -2.6700    0.2940 c1        1 SAV      0.031500
     13 C21         6.6960   -3.8160    0.9090 c3        1 SAV     -0.071500
     14 C1          5.9790    0.3000   -0.1070 c3        1 SAV     -0.074000
     15 O1          5.6720   -0.5470    1.0260 os        1 SAV     -0.220000
     16 C2          4.5650   -1.3970    0.8200 c1        1 SAV      0.064000
     17 C3          3.2930   -0.9580    1.1210 c2        1 SAV     -0.115000
     18 N2          0.8430    0.0850   -0.7120 n2        1 SAV     -0.224000
     19 C9         -4.1260    1.2140   -0.3640 c2        1 SAV      0.098000
     20 C11        -5.3150    2.3370    1.4270 c1        1 SAV     -0.037000
     21 C12        -5.6910    3.3740    0.5270 c1        1 SAV     -0.150000
     22 C14        -7.1560    5.1840    1.8230 c2        1 SAV     -0.149000
     23 N4         -6.3950    5.2430   -0.4680 n2        1 SAV     -0.053000
     24 N5         -5.7220    4.4770   -1.4060 n1        1 SAV     -0.188000
     25 C16        -4.4940    2.2300   -1.2460 c2        1 SAV     -0.193000
     26 N6         -1.2210   -0.5320    0.2260 n2        1 SAV     -0.283000
     27 C18         3.6650   -3.4950    0.0740 c1        1 SAV      0.031500
     28 O2          3.8600   -4.8000   -0.4430 os        1 SAV     -0.223500
     29 C19         3.5300   -4.9310   -1.7930 c3        1 SAV     -0.071500
     30 O3          5.9880   -3.0980   -0.0990 os        1 SAV     -0.223500
     31 HN1         0.3210   -1.8910    1.7740 hn        1 SAV      0.235000
     32 HN3        -3.6010   -0.5540   -1.2950 hn        1 SAV      0.241000
     33 H6          0.7220    1.4150   -2.2140 ha        1 SAV      0.166000
     34 H7         -1.5960    1.5880   -2.1470 ha        1 SAV      0.167000
     35 H10        -4.3460    0.5130    1.5730 ha        1 SAV      0.142000
     36 H17         1.6260   -3.6340    0.2200 ha        1 SAV      0.144000
     37 H21         6.9360   -4.7290    0.5640 h1        1 SAV      0.083500
     38 H21A        6.1370   -3.9050    1.6930 h1        1 SAV      0.083500
     39 H21B        7.5210   -3.3250    1.1460 h1        1 SAV      0.083500
     40 H1          6.2450   -0.2440   -0.8510 h1        1 SAV      0.085667
     41 H1A         6.6930    0.8960    0.1250 h1        1 SAV      0.085667
     42 H1B         5.1760    0.8260   -0.3540 h1        1 SAV      0.085667
     43 H3          3.1630   -0.0830    1.4840 ha        1 SAV      0.173000
     44 H11        -5.6130    2.3750    2.3930 ha        1 SAV      0.142000
     45 H14        -7.7730    4.5030    2.2110 ha        1 SAV      0.093000
     46 H14A       -6.5210    5.5130    2.5410 ha        1 SAV      0.093000
     47 H14B       -7.6870    5.9540    1.4700 ha        1 SAV      0.093000
     48 HN5        -5.5820    4.7100   -2.3370 DU        1 SAV      0.266000
     49 H16        -4.1710    2.2080   -2.2010 ha        1 SAV      0.152000
     50 H19         4.0930   -4.3240   -2.3300 h1        1 SAV      0.083500
     51 H19A        2.5690   -4.6970   -1.9260 h1        1 SAV      0.083500
     52 H19B        3.6840   -5.8570   -2.0780 h1        1 SAV      0.083500
@<TRIPOS>BOND
     1    1    3 1   
     2    1    4 1   
     3    1   31 1   
     4    2    7 1   
     5    2   19 1   
     6    2   32 1   
     7    3   11 1   
     8    3   17 1   
     9    4   18 1   
    10    4   26 1   
    11    5   18 1   
    12    5   33 1   
    13    6    7 1   
    14    6   34 1   
    15    7   26 1   
    16    8   19 1   
    17    8   35 1   
    18    9   21 1   
    19    9   23 1   
    20   10   25 1   
    21   11   36 1   
    22   12   27 1   
    23   12   30 1   
    24   13   30 1   
    25   13   37 1   
    26   13   38 1   
    27   13   39 1   
    28   14   15 1   
    29   14   40 1   
    30   14   41 1   
    31   14   42 1   
    32   15   16 1   
    33   16   17 1   
    34   17   43 1   
    35   19   25 1   
    36   20   21 1   
    37   20   44 1   
    38   22   45 1   
    39   22   46 1   
    40   22   47 1   
    41   23   24 1   
    42   25   49 1   
    43   27   28 1   
    44   28   29 1   
    45   29   50 1   
    46   29   51 1   
    47   29   52 1   
@<TRIPOS>SUBSTRUCTURE
     1 SAV         1 TEMP              0 ****  ****    0 ROOT
