@<TRIPOS>MOLECULE
SAV
   52    54     1     0     0
SMALL
bcc


@<TRIPOS>ATOM
      1 N1          0.5070    0.1090   -0.6780 nh        1 SAV     -0.258000
      2 N3         -3.7450    0.8660   -1.2140 n3        1 SAV     -0.271000
      3 C4          1.8920    0.1670   -0.3970 ca        1 SAV      0.114000
      4 C5         -0.4680    0.1780    0.3810 c2        1 SAV      0.159000
      5 C6         -1.0600    2.8140   -2.1670 c1        1 SAV     -0.101000
      6 C7         -1.6620    1.9450   -1.6070 c1        1 SAV     -0.212000
      7 C8         -2.3670    0.8960   -0.9200 c2        1 SAV      0.268000
      8 C10        -5.0940   -0.1280    0.6160 c2        1 SAV     -0.098000
      9 C13        -7.2870   -3.1580   -0.0840 c2        1 SAV     -0.043000
     10 C15        -6.9270   -1.1500   -1.3420 c3        1 SAV     -0.109000
     11 C17         2.4090    1.2460    0.3500 ca        1 SAV     -0.215000
     12 C20         4.6730    0.4400   -0.0190 ca        1 SAV     -0.081000
     13 C21         6.7190    1.5590   -0.3760 c3        1 SAV     -0.077000
     14 C1          2.2680   -1.9560   -1.7290 c3        1 SAV     -0.170000
     15 C2          4.1530   -0.6290   -0.7700 ca        1 SAV      0.122000
     16 C3          2.7700   -0.7960   -0.9580 ca        1 SAV     -0.163000
     17 N2         -0.1130    0.2670    1.6330 n2        1 SAV     -0.282000
     18 C9         -4.5510   -0.2690   -0.8170 c3        1 SAV     -0.032000
     19 C11        -5.9820   -1.0760    0.8450 c1        1 SAV     -0.138000
     20 C12        -6.7590   -1.8000    0.0750 c2        1 SAV     -0.117000
     21 N4         -7.6770   -3.3710   -1.3380 n2        1 SAV     -0.056000
     22 N5         -7.3850   -2.3250   -2.1510 n3        1 SAV     -0.175000
     23 C16        -5.6580   -0.5360   -1.7900 c1        1 SAV      0.028000
     24 N6         -1.8450    0.0760   -0.0410 n2        1 SAV     -0.288000
     25 C18         3.7850    1.3720    0.5490 ca        1 SAV      0.107000
     26 O2          4.3670    2.4100    1.2500 os        1 SAV     -0.209000
     27 C19         3.4920    3.1800    2.0700 c3        1 SAV     -0.077000
     28 O3          6.0400    0.4490    0.2150 os        1 SAV     -0.219000
     29 HN1         0.2760   -0.5960   -1.3530 hn        1 SAV      0.212000
     30 HN3        -3.9850    1.2390   -2.1110 hn        1 SAV      0.238000
     31 H6         -0.8590    0.3670    2.2880 hn        1 SAV      0.163000
     32 H7          1.8070   -1.6210   -2.6930 hc        1 SAV      0.086000
     33 H10        -4.7950    0.7090    1.2500 ha        1 SAV      0.179000
     34 H17         1.7260    1.9870    0.7890 ha        1 SAV      0.155000
     35 H21         6.6160    1.5290   -1.4880 h1        1 SAV      0.082667
     36 H21A        6.3190    2.5200    0.0280 h1        1 SAV      0.082667
     37 H21B        7.7840    1.4090   -0.0690 h1        1 SAV      0.082667
     38 H1          5.8960   -1.3610   -1.0480 ho        1 SAV      0.238000
     39 H1A         3.1000   -2.6630   -1.9750 hc        1 SAV      0.086000
     40 H1B         1.5010   -2.5220   -1.1420 hc        1 SAV      0.086000
     41 H3         -0.5150    3.5790   -2.6620 ha        1 SAV      0.234000
     42 H11        -3.9510   -1.2460   -0.8780 h1        1 SAV      0.167000
     43 H14        -7.7960   -5.1020    0.7120 hc        1 SAV      0.100667
     44 H14A       -6.3240   -4.3080    1.4260 hc        1 SAV      0.100667
     45 H14B       -7.9820   -3.6980    1.8530 hc        1 SAV      0.100667
     46 HN5        -8.1700   -2.1000   -2.7430 hn        1 SAV      0.201000
     47 H16        -7.6760   -0.3010   -1.3520 h1        1 SAV      0.149000
     48 H19         2.8910    2.5220    2.7430 h1        1 SAV      0.086333
     49 H19A        2.8230    3.8100    1.4350 h1        1 SAV      0.086333
     50 H19B        4.1920    3.8220    2.6620 h1        1 SAV      0.086333
     51 O1          4.9900   -1.5640   -1.3350 oh        1 SAV     -0.252000
     52 C14        -7.3550   -4.1250    1.0300 c3        1 SAV     -0.159000
@<TRIPOS>BOND
     1    1    3 1   
     2    1    4 1   
     3    1   29 1   
     4    2    7 1   
     5    2   18 1   
     6    2   30 1   
     7    3   11 1   
     8    3   16 1   
     9    4   17 1   
    10    4   24 1   
    11    5    6 1   
    12    5   41 1   
    13    6    7 1   
    14    7   24 1   
    15    8   18 1   
    16    8   19 1   
    17    8   33 1   
    18    9   20 1   
    19    9   21 1   
    20    9   52 1   
    21   10   20 1   
    22   10   22 1   
    23   10   23 1   
    24   10   47 1   
    25   11   25 1   
    26   11   34 1   
    27   12   15 1   
    28   12   25 1   
    29   12   28 1   
    30   13   28 1   
    31   13   35 1   
    32   13   36 1   
    33   13   37 1   
    34   14   16 1   
    35   14   32 1   
    36   14   39 1   
    37   14   40 1   
    38   15   16 1   
    39   15   51 1   
    40   17   31 1   
    41   18   23 1   
    42   18   42 1   
    43   19   20 1   
    44   21   22 1   
    45   22   46 1   
    46   25   26 1   
    47   26   27 1   
    48   27   48 1   
    49   27   49 1   
    50   27   50 1   
    51   38   51 1   
    52   43   52 1   
    53   44   52 1   
    54   45   52 1   
@<TRIPOS>SUBSTRUCTURE
     1 SAV         1 TEMP              0 ****  ****    0 ROOT
