@<TRIPOS>MOLECULE
SAV
   54    56     1     0     0
SMALL
bcc


@<TRIPOS>ATOM
      1 N1          2.0710   -1.8760   -0.6650 n4        1 SAV     -0.599100
      2 N3         -2.6510   -0.8630   -1.0860 nh        1 SAV     -0.720700
      3 C4          2.8890   -0.7220   -0.2740 ca        1 SAV     -0.051400
      4 C5          0.8950   -1.4610   -1.5050 ca        1 SAV      0.771900
      5 C6          0.1000   -0.8260   -3.5770 ca        1 SAV      0.525600
      6 C7         -1.1870   -0.6930   -3.0230 ca        1 SAV     -0.370600
      7 C8         -1.3650   -0.9820   -1.6340 ca        1 SAV      0.707200
      8 C10        -7.2300   -1.1430    3.4190 c2        1 SAV     -0.182100
      9 C13        -7.7100   -0.1940   -0.1290 cc        1 SAV      0.366600
     10 C15        -5.4440   -0.6620    0.1750 cc        1 SAV      0.558900
     11 C17         2.7460   -0.1930    1.0220 ca        1 SAV     -0.188000
     12 C20         4.5020    1.4470    0.4970 ca        1 SAV      0.169100
     13 C21         6.2520    3.0700    0.2230 c3        1 SAV      0.113700
     14 C1          0.3170   -0.5320   -5.0240 c3        1 SAV     -0.174400
     15 C2          4.6050    0.8940   -0.7970 ca        1 SAV      0.084100
     16 C3          3.8040   -0.1880   -1.1880 ca        1 SAV     -0.160000
     17 N2          1.1650   -1.2160   -2.8190 nb        1 SAV     -0.692000
     18 C9         -2.9730   -1.1150    0.2240 c2        1 SAV      0.197000
     19 C11        -6.9910   -0.8810    2.1780 c1        1 SAV      0.187200
     20 C12        -6.7480   -0.6140    0.9110 cc        1 SAV     -0.401300
     21 N4         -6.9800   -0.0450   -1.2630 na        1 SAV     -0.005000
     22 N5         -5.6560   -0.3120   -1.1150 nd        1 SAV     -0.597100
     23 C16        -4.2130   -1.0270    0.7920 ce        1 SAV     -0.353600
     24 N6         -0.3040   -1.3740   -0.8520 nb        1 SAV     -0.746000
     25 C18         3.5510    0.8780    1.4020 ca        1 SAV      0.138100
     26 O2          3.5050    1.4910    2.6280 os        1 SAV     -0.274900
     27 C19         2.7430    0.8420    3.6440 c3        1 SAV      0.102700
     28 O3          5.1980    2.4980    1.0060 os        1 SAV     -0.274900
     29 HN1         2.6520   -2.5250   -1.2180 hn        1 SAV      0.478800
     30 HN3        -2.1290   -1.4230    0.8820 h4        1 SAV      0.186000
     31 H6          0.8490   -1.3800   -5.5290 hc        1 SAV      0.089700
     32 H7         -2.0280   -0.3740   -3.6560 ha        1 SAV      0.188000
     33 H10        -7.1880   -0.3700    4.2120 ha        1 SAV      0.215000
     34 H17         2.0200   -0.6110    1.7360 ha        1 SAV      0.157000
     35 H21         7.0190    2.2970   -0.0240 h1        1 SAV      0.070367
     36 H21A        5.8360    3.5340   -0.7030 h1        1 SAV      0.070367
     37 H21B        6.6680    3.8480    0.9150 h1        1 SAV      0.070367
     38 H1          0.9450    0.3890   -5.1370 hc        1 SAV      0.089700
     39 H1A         5.5550    0.9260   -2.4660 ho        1 SAV      0.439000
     40 H1B        -0.6620   -0.3660   -5.5370 hc        1 SAV      0.089700
     41 H3          3.9080   -0.5920   -2.2080 ha        1 SAV      0.166000
     42 H11        -7.4980   -2.1580    3.7750 ha        1 SAV      0.215000
     43 H14        -9.3340    0.8170    0.7980 hc        1 SAV      0.110367
     44 H14A       -9.6520    0.3330   -0.9270 hc        1 SAV      0.110367
     45 H14B       -9.6380   -0.9280    0.3850 hc        1 SAV      0.110367
     46 HN5        -7.3130    0.2330   -2.1700 hn        1 SAV      0.368700
     47 H16        -4.2870   -1.2680    1.8680 ha        1 SAV      0.172000
     48 H19         3.0970   -0.2060    3.8000 h1        1 SAV      0.057700
     49 H19A        1.6560    0.8640    3.3900 h1        1 SAV      0.057700
     50 H19B        2.9510    1.4710    4.5500 h1        1 SAV      0.057700
     51 O1          5.5130    1.4610   -1.6580 oh        1 SAV     -0.478100
     52 H12         1.7330   -2.3560    0.1810 hn        1 SAV      0.478800
     53 H32        -3.3560   -0.5720   -1.7340 hn        1 SAV      0.480800
     54 C14        -9.1540    0.0210    0.0270 c3        1 SAV     -0.182400
@<TRIPOS>BOND
     1    1    3 1   
     2    1    4 1   
     3    1   29 1   
     4    1   52 1   
     5    2    7 1   
     6    2   18 1   
     7    2   53 1   
     8    3   11 ar  
     9    3   16 ar  
    10    4   17 ar  
    11    4   24 ar  
    12    5    6 ar  
    13    5   14 1   
    14    5   17 ar  
    15    6    7 ar  
    16    6   32 1   
    17    7   24 ar  
    18    8   19 2   
    19    8   33 1   
    20    8   42 1   
    21    9   20 1   
    22    9   21 2   
    23    9   54 1   
    24   10   20 1   
    25   10   22 2   
    26   10   23 1   
    27   11   25 ar  
    28   11   34 1   
    29   12   15 ar  
    30   12   25 ar  
    31   12   28 1   
    32   13   28 1   
    33   13   35 1   
    34   13   36 1   
    35   13   37 1   
    36   14   31 1   
    37   14   38 1   
    38   14   40 1   
    39   15   16 ar  
    40   15   51 1   
    41   16   41 1   
    42   18   23 2   
    43   18   30 1   
    44   19   20 2   
    45   21   22 1   
    46   21   46 1   
    47   23   47 1   
    48   25   26 1   
    49   26   27 1   
    50   27   48 1   
    51   27   49 1   
    52   27   50 1   
    53   39   51 1   
    54   43   54 1   
    55   44   54 1   
    56   45   54 1   
@<TRIPOS>SUBSTRUCTURE
     1 SAV         1 TEMP              0 ****  ****    0 ROOT
