@<TRIPOS>MOLECULE
SAW
   84    88     1     0     0
SMALL
bcc


@<TRIPOS>ATOM
      1 C1         11.5600   -0.1190    0.1470 c3        1 SAW     -0.101400
      2 C2         10.7720    0.7830   -0.7930 c3        1 SAW     -0.058200
      3 C3         10.4640    0.0310   -2.0840 c3        1 SAW     -0.075400
      4 C4          9.4670    1.2080   -0.1270 c3        1 SAW     -0.066400
      5 C5         10.7200   -1.3640    0.4680 c3        1 SAW      0.150800
      6 C6         10.4160   -2.1210   -0.8320 c3        1 SAW     -0.101400
      7 C7          9.4090   -0.9420    1.1390 c3        1 SAW     -0.050400
      8 C8          9.6340   -1.2090   -1.7670 c3        1 SAW     -0.058200
      9 C9          8.6220   -0.0290    0.1920 c3        1 SAW     -0.114000
     10 C10         8.3250   -0.7910   -1.1040 c3        1 SAW     -0.066400
     11 C11        -9.1800   -1.2750    2.1580 ca        1 SAW     -0.188000
     12 C12        -8.4590   -0.0700    2.2710 ca        1 SAW     -0.080000
     13 C13        -7.7400    0.4230    1.2140 ca        1 SAW     -0.177000
     14 C14        -9.2130   -1.9740    0.9580 ca        1 SAW      0.143600
     15 C15        -8.4970   -1.4440   -0.1800 ca        1 SAW     -0.064000
     16 C16        -7.7240   -0.2600   -0.0350 ca        1 SAW      0.073000
     17 C17        -6.9640    0.2310   -1.1400 ca        1 SAW     -0.374500
     18 C18        -7.0590   -0.4160   -2.3590 ca        1 SAW      0.006000
     19 C19        -7.8740   -1.5510   -2.5280 ca        1 SAW     -0.179000
     20 C20        -8.5710   -2.0610   -1.4590 ca        1 SAW     -0.035000
     21 C22        -9.1820   -4.3790    0.7230 c3        1 SAW      0.166100
     22 C23       -11.1260   -3.2940    1.6600 c3        1 SAW      0.166100
     23 C24         7.3150    0.3740    0.8850 c         1 SAW      0.660100
     24 N25         6.4750    1.2430    0.2140 n         1 SAW     -0.567900
     25 C26         5.1770    1.6040    0.7120 c3        1 SAW      0.085000
     26 C27         4.0060    0.9830   -0.0530 c3        1 SAW     -0.105400
     27 C28         2.6950    1.4790    0.5200 c3        1 SAW     -0.077400
     28 C29         1.5160    0.8660   -0.2060 c3        1 SAW     -0.078400
     29 C30         0.2050    1.3700    0.3570 c3        1 SAW     -0.079400
     30 C31        -0.9740    0.7460   -0.3580 c3        1 SAW     -0.078400
     31 C32        -2.2830    1.2650    0.1960 c3        1 SAW     -0.095400
     32 C33        -3.4560    0.6050   -0.5330 c3        1 SAW      0.224800
     33 N34        -4.7460    1.0410   -0.0830 n3        1 SAW     -0.919100
     34 S36        -5.9270    1.5730   -1.0470 sy        1 SAW      1.513200
     35 O37        -6.5850    2.6500   -0.4190 o         1 SAW     -0.657300
     36 O38         7.0330   -0.0320    2.0290 o         1 SAW     -0.603100
     37 O39        11.3950   -2.2040    1.3960 oh        1 SAW     -0.587800
     38 H1         12.5250   -0.4250   -0.3310 hc        1 SAW      0.049950
     39 H1A        11.7990    0.4220    1.0970 hc        1 SAW      0.049950
     40 H2         11.3800    1.6980   -1.0280 hc        1 SAW      0.054200
     41 H3          9.9010    0.6970   -2.7870 hc        1 SAW      0.043200
     42 H3A        11.4190   -0.2700   -2.5850 hc        1 SAW      0.043200
     43 H4          9.6860    1.7650    0.8200 hc        1 SAW      0.047950
     44 H4A         8.9120    1.8960   -0.8150 hc        1 SAW      0.047950
     45 H6         11.3720   -2.4420   -1.3170 hc        1 SAW      0.049950
     46 H6A         9.8220   -3.0400   -0.5950 hc        1 SAW      0.049950
     47 H7          8.8020   -1.8490    1.3920 hc        1 SAW      0.073700
     48 H7A         9.6270   -0.4050    2.0970 hc        1 SAW      0.073700
     49 H8          9.4040   -1.7600   -2.7190 hc        1 SAW      0.054200
     50 H10         7.7460   -0.1470   -1.8140 hc        1 SAW      0.047950
     51 H10A        7.7090   -1.6970   -0.8730 hc        1 SAW      0.047950
     52 H11        -9.7220   -1.6420    3.0440 ha        1 SAW      0.138000
     53 H12        -8.4790    0.4710    3.2310 ha        1 SAW      0.138000
     54 H13        -7.2120    1.3850    1.3200 ha        1 SAW      0.154000
     55 H18        -6.4890   -0.0370   -3.2290 ha        1 SAW      0.164000
     56 H19        -7.9440   -2.0200   -3.5210 ha        1 SAW      0.142000
     57 H20        -9.2090   -2.9490   -1.6030 ha        1 SAW      0.151000
     58 H22        -8.8330   -4.7310    1.7320 h1        1 SAW      0.038700
     59 H22A       -9.8170   -5.1830    0.2650 h1        1 SAW      0.038700
     60 H22B       -8.2840   -4.2070    0.0750 h1        1 SAW      0.038700
     61 H23       -11.6920   -2.3270    1.6710 h1        1 SAW      0.038700
     62 H23A      -11.7850   -4.0980    1.2370 h1        1 SAW      0.038700
     63 H23B      -10.8620   -3.5730    2.7170 h1        1 SAW      0.038700
     64 HN25        6.6620    1.4450   -0.7390 hn        1 SAW      0.303500
     65 H26         5.1080    1.3020    1.7970 h1        1 SAW      0.062200
     66 H26A        5.0870    2.7280    0.6550 h1        1 SAW      0.062200
     67 H27         4.0660    1.2510   -1.1400 hc        1 SAW      0.043700
     68 H27A        4.0510   -0.1350    0.0210 hc        1 SAW      0.043700
     69 H28         2.6400    1.2220    1.6110 hc        1 SAW      0.043700
     70 H28A        2.6460    2.5970    0.4390 hc        1 SAW      0.043700
     71 H29         1.5760    1.1130   -1.2990 hc        1 SAW      0.040700
     72 H29A        1.5600   -0.2520   -0.1170 hc        1 SAW      0.040700
     73 H30         0.1500    1.1330    1.4520 hc        1 SAW      0.042200
     74 H30A        0.1570    2.4870    0.2580 hc        1 SAW      0.042200
     75 H31        -0.9120    0.9750   -1.4550 hc        1 SAW      0.042700
     76 H31A       -0.9320   -0.3700   -0.2490 hc        1 SAW      0.042700
     77 H32        -2.3420    1.0460    1.2940 hc        1 SAW      0.048200
     78 H32A       -2.3310    2.3780    0.0730 hc        1 SAW      0.048200
     79 H33        -3.3650    0.8240   -1.6370 h1        1 SAW      0.052200
     80 H33A       -3.3710   -0.5140   -0.3970 h1        1 SAW      0.052200
     81 HN34       -4.8630    0.9850    0.9000 hn        1 SAW      0.445800
     82 HO39       12.2240   -2.4660    0.9790 ho        1 SAW      0.398000
     83 N21        -9.9740   -3.1700    0.7960 nh        1 SAW     -0.644000
     84 O35        -5.4230    1.8290   -2.3450 o         1 SAW     -0.657300
@<TRIPOS>BOND
     1    1    2 1   
     2    1    5 1   
     3    1   38 1   
     4    1   39 1   
     5    2    3 1   
     6    2    4 1   
     7    2   40 1   
     8    3    8 1   
     9    3   41 1   
    10    3   42 1   
    11    4    9 1   
    12    4   43 1   
    13    4   44 1   
    14    5    6 1   
    15    5    7 1   
    16    5   37 1   
    17    6    8 1   
    18    6   45 1   
    19    6   46 1   
    20    7    9 1   
    21    7   47 1   
    22    7   48 1   
    23    8   10 1   
    24    8   49 1   
    25    9   10 1   
    26    9   23 1   
    27   10   50 1   
    28   10   51 1   
    29   11   12 ar  
    30   11   14 ar  
    31   11   52 1   
    32   12   13 ar  
    33   12   53 1   
    34   13   16 ar  
    35   13   54 1   
    36   14   15 ar  
    37   14   83 1   
    38   15   16 ar  
    39   15   20 ar  
    40   16   17 ar  
    41   17   18 ar  
    42   17   34 1   
    43   18   19 ar  
    44   18   55 1   
    45   19   20 ar  
    46   19   56 1   
    47   20   57 1   
    48   21   58 1   
    49   21   59 1   
    50   21   60 1   
    51   21   83 1   
    52   22   61 1   
    53   22   62 1   
    54   22   63 1   
    55   22   83 1   
    56   23   24 1   
    57   23   36 2   
    58   24   25 1   
    59   24   64 1   
    60   25   26 1   
    61   25   65 1   
    62   25   66 1   
    63   26   27 1   
    64   26   67 1   
    65   26   68 1   
    66   27   28 1   
    67   27   69 1   
    68   27   70 1   
    69   28   29 1   
    70   28   71 1   
    71   28   72 1   
    72   29   30 1   
    73   29   73 1   
    74   29   74 1   
    75   30   31 1   
    76   30   75 1   
    77   30   76 1   
    78   31   32 1   
    79   31   77 1   
    80   31   78 1   
    81   32   33 1   
    82   32   79 1   
    83   32   80 1   
    84   33   34 1   
    85   33   81 1   
    86   34   35 2   
    87   34   84 2   
    88   37   82 1   
@<TRIPOS>SUBSTRUCTURE
     1 SAW         1 TEMP              0 ****  ****    0 ROOT
