@<TRIPOS>MOLECULE
SAW
   87    82     1     0     0
SMALL
bcc


@<TRIPOS>ATOM
      1 C1       -671.2730  338.2910  161.7670 c3        1 SAW     -0.092900
      2 C2       -668.6240  337.5490  164.2090 c2        1 SAW     -0.135300
      3 C3       -668.7900  341.0760  165.5770 c1        1 SAW     -0.175000
      4 C4       -667.2440  337.0940  163.8920 c3        1 SAW     -0.031000
      5 C5       -670.2320  338.8830  162.6390 c2        1 SAW      0.092800
      6 C6       -669.4030  338.2140  163.4090 c1        1 SAW     -0.175800
      7 C7       -666.4240  336.7010  161.5830 c2        1 SAW     -0.044000
      8 C8       -668.0940  341.3090  166.5230 c1        1 SAW     -0.175000
      9 C9       -666.6920  337.5560  162.5880 ce        1 SAW     -0.221400
     10 C10       329.2500  220.9770   -9.8980 c3        1 SAW     -0.108800
     11 C11       281.7250 -193.9020 -272.4190 cc        1 SAW     -0.175000
     12 C12       280.6930 -192.9200 -272.5120 cc        1 SAW      0.024000
     13 C13       280.6330 -191.8750 -271.6330 cd        1 SAW     -0.265000
     14 C14       282.6810 -193.7910 -271.4600 cd        1 SAW     -0.041000
     15 C15       282.6730 -192.6880 -270.5210 cd        1 SAW     -0.150100
     16 C16       281.6020 -191.7090 -270.5920 cd        1 SAW      0.291000
     17 C17       281.5330 -190.6580 -269.6840 ce        1 SAW     -0.795100
     18 C18       284.6220 -192.4920 -268.8200 c1        1 SAW     -0.114900
     19 C19       285.6310 -192.4030 -267.9880 c2        1 SAW     -0.030100
     20 C20       283.6690 -192.5790 -269.6310 c1        1 SAW      0.153100
     21 C22         4.6410   -5.6720  -37.2630 c3        1 SAW     -0.108800
     22 C23      1764.3770 -889.1530    0.8250 c1        1 SAW      0.664300
     23 C24      -666.3640  338.9760  162.3780 c         1 SAW      0.554300
     24 N25      -667.0700  339.9950  163.2430 n4        1 SAW     -0.667800
     25 C26      -666.2900  341.2400  163.4160 c3        1 SAW      0.081100
     26 C27       273.3560 -194.8800 -267.7740 c3        1 SAW     -0.096100
     27 C28       274.4260 -194.3050 -268.6660 c3        1 SAW     -0.079400
     28 C29       275.2890 -193.3080 -267.9210 c3        1 SAW     -0.080400
     29 C30       276.3610 -192.7330 -268.8210 c3        1 SAW     -0.077400
     30 C31       277.2220 -191.7350 -268.0720 c3        1 SAW     -0.094400
     31 C32       278.2840 -191.1590 -268.9820 c3        1 SAW     -0.185700
     32 C33       279.2050 -190.1720 -268.3750 ce        1 SAW      0.292700
     33 N34       279.1340 -189.7360 -267.1550 nh        1 SAW     -0.281100
     34 S36       280.6110 -189.4260 -269.5900 sy        1 SAW      1.398000
     35 O37       281.0700 -188.4270 -268.7420 o         1 SAW     -0.625300
     36 O38      -665.5880  339.4330  161.5470 o         1 SAW     -0.433100
     37 O39      -670.0830  340.2660  162.6260 oh        1 SAW     -0.569100
     38 H1       -671.1380  338.6370  160.7110 hc        1 SAW      0.077700
     39 H1A      -672.2870  338.6080  162.1210 hc        1 SAW      0.077700
     40 H2       -671.2230  337.1750  161.7910 hc        1 SAW      0.077700
     41 H3       -669.4700  340.8910  164.7790 ha        1 SAW      0.177000
     42 H3A      -668.9740  337.2610  165.2220 ha        1 SAW      0.167000
     43 H4       -666.5550  337.4160  164.7250 hc        1 SAW      0.088200
     44 H4A      -667.2450  335.9650  163.9070 hc        1 SAW      0.088200
     45 H6        328.8590  220.1230   -9.3030 hc        1 SAW      0.026700
     46 H6A       328.4100  221.6530  -10.1710 hc        1 SAW      0.026700
     47 H7       -665.9830  337.0280  160.6270 ha        1 SAW      0.160000
     48 H7A      -666.6310  335.6220  161.6710 ha        1 SAW      0.160000
     49 H8        329.9960  221.5380   -9.2950 hc        1 SAW      0.026700
     50 H10       329.7330  220.5940  -10.8230 hc        1 SAW      0.026700
     51 H10A     -667.4820  341.5190  167.3680 ha        1 SAW      0.177000
     52 H11       281.7310 -194.7360 -273.1400 ha        1 SAW      0.168000
     53 H12       279.9400 -193.0200 -273.3140 ha        1 SAW      0.163000
     54 H13       279.8360 -191.1160 -271.7370 ha        1 SAW      0.173000
     55 H18       282.3420 -190.6970 -268.9170 h4        1 SAW      0.206000
     56 H19       285.7160 -191.5780 -267.2580 ha        1 SAW      0.167000
     57 H20       286.4450 -193.1490 -267.9790 ha        1 SAW      0.167000
     58 H22         4.4480   -6.1300  -38.2570 hc        1 SAW      0.026700
     59 H22A     1764.2490 -889.9070    0.0440 ha        1 SAW      0.309500
     60 H22B        4.8320   -4.5840  -37.3880 hc        1 SAW      0.026700
     61 H23         3.7550   -5.8200  -36.6080 hc        1 SAW      0.026700
     62 H23A     1764.6280 -887.6730    0.3590 hn        1 SAW      0.572400
     63 H23B        5.5290   -6.1540  -36.8000 hc        1 SAW      0.026700
     64 HN25     -667.2890  339.5880  164.1650 hn        1 SAW      0.477800
     65 H26       272.7320 -195.6110 -268.3420 hc        1 SAW      0.040033
     66 H26A     -667.9760  340.2170  162.7920 hn        1 SAW      0.477800
     67 H27      -666.8660  341.9310  164.0920 hx        1 SAW      0.110033
     68 H27A     -665.2940  340.9980  163.8720 hx        1 SAW      0.110033
     69 H28       273.8100 -195.4080 -266.9010 hc        1 SAW      0.040033
     70 H28A      272.6880 -194.0720 -267.3870 hc        1 SAW      0.040033
     71 H29       275.0700 -195.1330 -269.0640 hc        1 SAW      0.042200
     72 H29A      273.9500 -193.8010 -269.5490 hc        1 SAW      0.042200
     73 H30       274.6450 -192.4800 -267.5230 hc        1 SAW      0.044700
     74 H30A      275.7660 -193.8110 -267.0380 hc        1 SAW      0.044700
     75 H31       277.0040 -193.5620 -269.2180 hc        1 SAW      0.049200
     76 H31A      275.8820 -192.2300 -269.7030 hc        1 SAW      0.049200
     77 H32       276.5670 -190.9150 -267.6740 hc        1 SAW      0.049200
     78 H32A      277.7000 -192.2470 -267.1950 hc        1 SAW      0.049200
     79 H33       277.7950 -190.6400 -269.8610 hc        1 SAW      0.115700
     80 H33A      278.9140 -191.9920 -269.4110 hc        1 SAW      0.115700
     81 HN34      279.7750 -189.0260 -266.8340 hn        1 SAW      0.315200
     82 HO39     -670.8590  340.6510  162.1910 ho        1 SAW      0.457000
     83 O35       279.8190 -189.1080 -270.6740 o         1 SAW     -0.625300
     84 H252     -666.1260  341.7240  162.4150 hx        1 SAW      0.110033
     85 H342      278.4410 -190.0490 -266.5000 hn        1 SAW      0.315200
     86 H211      283.4950 -194.5300 -271.3720 ha        1 SAW      0.160000
     87 N21      1764.5120 -888.3580    0.6500 n1        1 SAW     -0.546200
@<TRIPOS>BOND
     1    1    5 1   
     2    1   38 1   
     3    1   39 1   
     4    1   40 1   
     5    2    4 1   
     6    2    6 2   
     7    2   42 1   
     8    3    8 3   
     9    3   41 1   
    10    4    9 1   
    11    4   43 1   
    12    4   44 1   
    13    5    6 2   
    14    5   37 1   
    15    7    9 2   
    16    7   47 1   
    17    7   48 1   
    18    8   51 1   
    19    9   23 1   
    20   10   45 1   
    21   10   46 1   
    22   10   49 1   
    23   10   50 1   
    24   11   12 1   
    25   11   14 2   
    26   11   52 1   
    27   12   13 2   
    28   12   53 1   
    29   13   16 1   
    30   13   54 1   
    31   14   15 1   
    32   14   86 1   
    33   15   16 1   
    34   15   20 2   
    35   16   17 2   
    36   17   34 1   
    37   17   55 1   
    38   18   19 2   
    39   18   20 2   
    40   19   56 1   
    41   19   57 1   
    42   21   58 1   
    43   21   60 1   
    44   21   61 1   
    45   21   63 1   
    46   22   59 1   
    47   22   87 3   
    48   23   24 1   
    49   23   36 2   
    50   24   25 1   
    51   24   64 1   
    52   24   66 1   
    53   25   67 1   
    54   25   68 1   
    55   25   84 1   
    56   26   27 1   
    57   26   65 1   
    58   26   69 1   
    59   26   70 1   
    60   27   28 1   
    61   27   71 1   
    62   27   72 1   
    63   28   29 1   
    64   28   73 1   
    65   28   74 1   
    66   29   30 1   
    67   29   75 1   
    68   29   76 1   
    69   30   31 1   
    70   30   77 1   
    71   30   78 1   
    72   31   32 1   
    73   31   79 1   
    74   31   80 1   
    75   32   33 2   
    76   32   34 1   
    77   33   81 1   
    78   33   85 1   
    79   34   35 2   
    80   34   83 2   
    81   37   82 1   
    82   62   87 1   
@<TRIPOS>SUBSTRUCTURE
     1 SAW         1 TEMP              0 ****  ****    0 ROOT
