@<TRIPOS>MOLECULE
SAX
   52    52     1     0     0
SMALL
bcc


@<TRIPOS>ATOM
      1 C1         -4.7480    0.0060    0.3630 ca        1 SAX     -0.211600
      2 O1         -6.6540    0.7230    1.7260 oh        1 SAX     -0.547100
      3 C2         -6.0840   -0.1200    0.8080 ca        1 SAX      0.175100
      4 O2         -3.0800   -0.7840   -1.2430 os        1 SAX     -0.355900
      5 C3         -6.9230   -1.1470    0.3390 ca        1 SAX     -0.211000
      6 O3         -2.6810    0.8570    1.2500 o         1 SAX     -0.831300
      7 C4         -6.4430   -2.0450   -0.6080 ca        1 SAX     -0.113000
      8 O4         -4.4230    2.2360    1.1390 o         1 SAX     -0.831300
      9 C5         -5.1450   -1.9290   -1.0910 ca        1 SAX     -0.212000
     10 C6         -4.3110   -0.9030   -0.6080 ca        1 SAX      0.152100
     11 C7         -1.9690   -1.2640   -0.4690 c3        1 SAX      0.144400
     12 C8         -0.7790   -0.3940   -0.8310 c3        1 SAX     -0.093400
     13 C9          0.5000   -0.9930   -0.2920 c3        1 SAX     -0.071400
     14 C10         1.6910   -0.1150   -0.6140 c3        1 SAX     -0.078400
     15 C11         2.9750   -0.7080   -0.0750 c3        1 SAX     -0.078400
     16 C12         4.1650    0.1720   -0.3960 c3        1 SAX     -0.079400
     17 C13         5.4500   -0.4200    0.1430 c3        1 SAX     -0.078400
     18 C14         6.6390    0.4600   -0.1780 c3        1 SAX     -0.079400
     19 C15         7.9230   -0.1320    0.3600 c3        1 SAX     -0.078400
     20 C16         9.1120    0.7480    0.0390 c3        1 SAX     -0.079400
     21 C17        10.3980    0.1570    0.5780 c3        1 SAX     -0.080400
     22 C18        11.5840    1.0300    0.2600 c3        1 SAX     -0.092100
     23 C19        -3.8770    1.1070    0.9420 c         1 SAX      0.922200
     24 HO1        -6.0600    1.4890    1.8650 ho        1 SAX      0.475000
     25 H3         -7.9490   -1.2200    0.7230 ha        1 SAX      0.125000
     26 H4         -7.0970   -2.8460   -0.9800 ha        1 SAX      0.105000
     27 H5         -4.7610   -2.6180   -1.8540 ha        1 SAX      0.121000
     28 H7         -2.1840   -1.1930    0.6290 h1        1 SAX      0.041700
     29 H7A        -1.8010   -2.3340   -0.7680 h1        1 SAX      0.041700
     30 H8         -0.7160   -0.2790   -1.9440 hc        1 SAX      0.065700
     31 H8A        -0.9550    0.6240   -0.3860 hc        1 SAX      0.065700
     32 H9          0.4130   -1.1150    0.8200 hc        1 SAX      0.032700
     33 H9A         0.6590   -2.0150   -0.7290 hc        1 SAX      0.032700
     34 H10         1.7730    0.0150   -1.7250 hc        1 SAX      0.041200
     35 H10A        1.5310    0.9040   -0.1720 hc        1 SAX      0.041200
     36 H11         2.8910   -0.8360    1.0360 hc        1 SAX      0.035200
     37 H11A        3.1330   -1.7280   -0.5140 hc        1 SAX      0.035200
     38 H12         4.2480    0.3010   -1.5070 hc        1 SAX      0.038700
     39 H12A        4.0060    1.1910    0.0440 hc        1 SAX      0.038700
     40 H13         5.3660   -0.5490    1.2540 hc        1 SAX      0.036700
     41 H13A        5.6070   -1.4400   -0.2970 hc        1 SAX      0.036700
     42 H14         6.7210    0.5890   -1.2900 hc        1 SAX      0.039200
     43 H14A        6.4810    1.4800    0.2620 hc        1 SAX      0.039200
     44 H15         7.8400   -0.2610    1.4720 hc        1 SAX      0.037700
     45 H15A        8.0810   -1.1520   -0.0790 hc        1 SAX      0.037700
     46 H16         9.1950    0.8770   -1.0720 hc        1 SAX      0.038700
     47 H16A        8.9550    1.7680    0.4790 hc        1 SAX      0.038700
     48 H17        10.3120    0.0280    1.6890 hc        1 SAX      0.037200
     49 H17A       10.5530   -0.8640    0.1380 hc        1 SAX      0.037200
     50 H18        12.5210    0.5770    0.6660 hc        1 SAX      0.030033
     51 H18A       11.7000    1.1500   -0.8440 hc        1 SAX      0.030033
     52 H18B       11.4590    2.0440    0.7110 hc        1 SAX      0.030033
@<TRIPOS>BOND
     1    1    3 ar  
     2    1   10 ar  
     3    1   23 1   
     4    2    3 1   
     5    2   24 1   
     6    3    5 ar  
     7    4   10 1   
     8    4   11 1   
     9    5    7 ar  
    10    5   25 1   
    11    6   23 1   
    12    7    9 ar  
    13    7   26 1   
    14    8   23 1   
    15    9   10 ar  
    16    9   27 1   
    17   11   12 1   
    18   11   28 1   
    19   11   29 1   
    20   12   13 1   
    21   12   30 1   
    22   12   31 1   
    23   13   14 1   
    24   13   32 1   
    25   13   33 1   
    26   14   15 1   
    27   14   34 1   
    28   14   35 1   
    29   15   16 1   
    30   15   36 1   
    31   15   37 1   
    32   16   17 1   
    33   16   38 1   
    34   16   39 1   
    35   17   18 1   
    36   17   40 1   
    37   17   41 1   
    38   18   19 1   
    39   18   42 1   
    40   18   43 1   
    41   19   20 1   
    42   19   44 1   
    43   19   45 1   
    44   20   21 1   
    45   20   46 1   
    46   20   47 1   
    47   21   22 1   
    48   21   48 1   
    49   21   49 1   
    50   22   50 1   
    51   22   51 1   
    52   22   52 1   
@<TRIPOS>SUBSTRUCTURE
     1 SAX         1 TEMP              0 ****  ****    0 ROOT
