@<TRIPOS>MOLECULE
SAX
   52    52     1     0     0
SMALL
bcc


@<TRIPOS>ATOM
      1 C1         -0.5400    0.3330    0.5510 ca        1 SAX     -0.211600
      2 O1          0.7380    1.6590   -1.0660 oh        1 SAX     -0.547100
      3 C2          0.6760    0.7820   -0.0140 ca        1 SAX      0.175100
      4 O2         -1.5700   -1.2320    2.1260 os        1 SAX     -0.355900
      5 C3          1.9210    0.3600    0.4860 ca        1 SAX     -0.211000
      6 O3         -1.9350    1.0050   -1.2600 o         1 SAX     -0.831300
      7 C4          1.9640   -0.5440    1.5420 ca        1 SAX     -0.113000
      8 O4         -2.7770    1.1830    0.7910 o         1 SAX     -0.831300
      9 C5          0.7880   -1.0290    2.1000 ca        1 SAX     -0.212000
     10 C6         -0.4530   -0.5940    1.5970 ca        1 SAX      0.152100
     11 C7         -2.3170   -0.4350    3.0570 c3        1 SAX      0.144400
     12 C8         -3.7740   -0.8350    2.9000 c3        1 SAX     -0.093400
     13 C9         -4.6050   -0.2670    4.0290 c3        1 SAX     -0.071400
     14 C10        -6.0660   -0.6280    3.8640 c3        1 SAX     -0.078400
     15 C11        -6.9040   -0.0610    4.9890 c3        1 SAX     -0.078400
     16 C12        -8.3650   -0.4220    4.8240 c3        1 SAX     -0.079400
     17 C13        -9.2040    0.1450    5.9480 c3        1 SAX     -0.078400
     18 C14       -10.6650   -0.2160    5.7820 c3        1 SAX     -0.079400
     19 C15       -11.5040    0.3510    6.9070 c3        1 SAX     -0.078400
     20 C16       -12.9640   -0.0120    6.7410 c3        1 SAX     -0.079400
     21 C17       -13.8050    0.5550    7.8660 c3        1 SAX     -0.080400
     22 C18       -15.2590    0.1960    7.7050 c3        1 SAX     -0.092100
     23 C19        -1.8520    0.8620   -0.0020 c         1 SAX      0.922200
     24 HO1        -0.1590    1.7630   -1.4450 ho        1 SAX      0.475000
     25 H3          2.8410    0.7450    0.0290 ha        1 SAX      0.125000
     26 H4          2.9350   -0.8790    1.9320 ha        1 SAX      0.105000
     27 H5          0.8090   -1.7590    2.9190 ha        1 SAX      0.121000
     28 H7         -2.1890    0.6590    2.8440 h1        1 SAX      0.041700
     29 H7A        -1.9320   -0.6830    4.0830 h1        1 SAX      0.041700
     30 H8         -4.1310   -0.4380    1.9100 hc        1 SAX      0.065700
     31 H8A        -3.8610   -1.9520    2.8780 hc        1 SAX      0.065700
     32 H9         -4.4940    0.8490    4.0460 hc        1 SAX      0.032700
     33 H9A        -4.2310   -0.6550    5.0130 hc        1 SAX      0.032700
     34 H10        -6.1770   -1.7440    3.8370 hc        1 SAX      0.041200
     35 H10A       -6.4370   -0.2340    2.8810 hc        1 SAX      0.041200
     36 H11        -6.7930    1.0550    5.0130 hc        1 SAX      0.035200
     37 H11A       -6.5300   -0.4510    5.9720 hc        1 SAX      0.035200
     38 H12        -8.7390   -0.0300    3.8410 hc        1 SAX      0.038700
     39 H12A       -8.4760   -1.5380    4.7970 hc        1 SAX      0.038700
     40 H13        -9.0940    1.2620    5.9730 hc        1 SAX      0.037200
     41 H13A       -8.8300   -0.2450    6.9310 hc        1 SAX      0.037200
     42 H14       -10.7750   -1.3330    5.7570 hc        1 SAX      0.039200
     43 H14A      -11.0390    0.1750    4.8000 hc        1 SAX      0.039200
     44 H15       -11.3940    1.4670    6.9310 hc        1 SAX      0.037700
     45 H15A      -11.1290   -0.0390    7.8900 hc        1 SAX      0.037700
     46 H16       -13.3390    0.3790    5.7590 hc        1 SAX      0.038700
     47 H16A      -13.0740   -1.1280    6.7170 hc        1 SAX      0.038700
     48 H17       -13.4270    0.1650    8.8480 hc        1 SAX      0.037200
     49 H17A      -13.6930    1.6710    7.8890 hc        1 SAX      0.037200
     50 H18       -15.8610    0.6240    8.5430 hc        1 SAX      0.030033
     51 H18A      -15.6600    0.5980    6.7430 hc        1 SAX      0.030033
     52 H18B      -15.3940   -0.9130    7.7040 hc        1 SAX      0.030033
@<TRIPOS>BOND
     1    1    3 ar  
     2    1   10 ar  
     3    1   23 1   
     4    2    3 1   
     5    2   24 1   
     6    3    5 ar  
     7    4   10 1   
     8    4   11 1   
     9    5    7 ar  
    10    5   25 1   
    11    6   23 1   
    12    7    9 ar  
    13    7   26 1   
    14    8   23 1   
    15    9   10 ar  
    16    9   27 1   
    17   11   12 1   
    18   11   28 1   
    19   11   29 1   
    20   12   13 1   
    21   12   30 1   
    22   12   31 1   
    23   13   14 1   
    24   13   32 1   
    25   13   33 1   
    26   14   15 1   
    27   14   34 1   
    28   14   35 1   
    29   15   16 1   
    30   15   36 1   
    31   15   37 1   
    32   16   17 1   
    33   16   38 1   
    34   16   39 1   
    35   17   18 1   
    36   17   40 1   
    37   17   41 1   
    38   18   19 1   
    39   18   42 1   
    40   18   43 1   
    41   19   20 1   
    42   19   44 1   
    43   19   45 1   
    44   20   21 1   
    45   20   46 1   
    46   20   47 1   
    47   21   22 1   
    48   21   48 1   
    49   21   49 1   
    50   22   50 1   
    51   22   51 1   
    52   22   52 1   
@<TRIPOS>SUBSTRUCTURE
     1 SAX         1 TEMP              0 ****  ****    0 ROOT
