@<TRIPOS>MOLECULE
SAX
   52    52     1     0     0
SMALL
bcc


@<TRIPOS>ATOM
      1 C1         -0.5400    0.3270    0.5520 ca        1 SAX     -0.211600
      2 O1          0.7090    1.6140   -1.1180 oh        1 SAX     -0.547100
      3 C2          0.6660    0.7820   -0.0300 ca        1 SAX      0.175100
      4 O2         -1.5340   -1.1940    2.1910 os        1 SAX     -0.355900
      5 C3          1.9200    0.4150    0.4900 ca        1 SAX     -0.211000
      6 O3         -1.9470    0.8830   -1.2900 o         1 SAX     -0.831300
      7 C4          1.9830   -0.4410    1.5850 ca        1 SAX     -0.113000
      8 O4         -2.7990    1.1270    0.7510 o         1 SAX     -0.831300
      9 C5          0.8190   -0.9320    2.1610 ca        1 SAX     -0.212000
     10 C6         -0.4320   -0.5510    1.6380 ca        1 SAX      0.152100
     11 C7         -2.3040   -0.3780    3.0860 c3        1 SAX      0.144400
     12 C8         -3.7490   -0.8220    2.9440 c3        1 SAX     -0.093400
     13 C9         -4.5980   -0.2270    4.0450 c3        1 SAX     -0.071400
     14 C10        -6.0490   -0.6320    3.8930 c3        1 SAX     -0.078400
     15 C11        -6.9060   -0.0390    4.9900 c3        1 SAX     -0.078400
     16 C12        -8.3560   -0.4430    4.8370 c3        1 SAX     -0.079400
     17 C13        -9.2140    0.1510    5.9330 c3        1 SAX     -0.078400
     18 C14       -10.6640   -0.2540    5.7790 c3        1 SAX     -0.079400
     19 C15       -11.5220    0.3410    6.8760 c3        1 SAX     -0.078400
     20 C16       -12.9720   -0.0640    6.7210 c3        1 SAX     -0.079400
     21 C17       -13.8310    0.5290    7.8180 c3        1 SAX     -0.080400
     22 C18       -15.2750    0.1290    7.6680 c3        1 SAX     -0.092100
     23 C19        -1.8630    0.7970   -0.0250 c         1 SAX      0.922200
     24 HO1        -0.1900    1.6780   -1.5040 ho        1 SAX      0.475000
     25 H3          2.8310    0.8040    0.0190 ha        1 SAX      0.125000
     26 H4          2.9620   -0.7330    1.9920 ha        1 SAX      0.105000
     27 H5          0.8560   -1.6240    3.0120 ha        1 SAX      0.121000
     28 H7         -2.2040    0.7090    2.8260 h1        1 SAX      0.041700
     29 H7A        -1.9150   -0.5710    4.1230 h1        1 SAX      0.041700
     30 H8         -4.1130   -0.4770    1.9370 hc        1 SAX      0.065700
     31 H8A        -3.8080   -1.9400    2.9700 hc        1 SAX      0.065700
     32 H9         -4.5160    0.8910    4.0140 hc        1 SAX      0.032700
     33 H9A        -4.2180   -0.5620    5.0460 hc        1 SAX      0.032700
     34 H10        -6.1320   -1.7510    3.9140 hc        1 SAX      0.041200
     35 H10A       -6.4270   -0.2910    2.8930 hc        1 SAX      0.041200
     36 H11        -6.8230    1.0800    4.9660 hc        1 SAX      0.035200
     37 H11A       -6.5250   -0.3770    5.9900 hc        1 SAX      0.035200
     38 H12        -8.7360   -0.1040    3.8370 hc        1 SAX      0.038700
     39 H12A       -8.4390   -1.5620    4.8590 hc        1 SAX      0.038700
     40 H13        -9.1310    1.2700    5.9100 hc        1 SAX      0.036700
     41 H13A       -8.8330   -0.1870    6.9330 hc        1 SAX      0.036700
     42 H14       -10.7460   -1.3730    5.8020 hc        1 SAX      0.039200
     43 H14A      -11.0440    0.0850    4.7790 hc        1 SAX      0.039200
     44 H15       -11.4390    1.4590    6.8530 hc        1 SAX      0.037700
     45 H15A      -11.1410    0.0020    7.8750 hc        1 SAX      0.037700
     46 H16       -13.3520    0.2740    5.7220 hc        1 SAX      0.038700
     47 H16A      -13.0550   -1.1830    6.7440 hc        1 SAX      0.038700
     48 H17       -13.4470    0.1910    8.8170 hc        1 SAX      0.037200
     49 H17A      -13.7450    1.6480    7.7940 hc        1 SAX      0.037200
     50 H18       -15.8900    0.5770    8.4850 hc        1 SAX      0.030033
     51 H18A      -15.6820    0.4790    6.6880 hc        1 SAX      0.030033
     52 H18B      -15.3830   -0.9820    7.7130 hc        1 SAX      0.030033
@<TRIPOS>BOND
     1    1    3 ar  
     2    1   10 ar  
     3    1   23 1   
     4    2    3 1   
     5    2   24 1   
     6    3    5 ar  
     7    4   10 1   
     8    4   11 1   
     9    5    7 ar  
    10    5   25 1   
    11    6   23 1   
    12    7    9 ar  
    13    7   26 1   
    14    8   23 1   
    15    9   10 ar  
    16    9   27 1   
    17   11   12 1   
    18   11   28 1   
    19   11   29 1   
    20   12   13 1   
    21   12   30 1   
    22   12   31 1   
    23   13   14 1   
    24   13   32 1   
    25   13   33 1   
    26   14   15 1   
    27   14   34 1   
    28   14   35 1   
    29   15   16 1   
    30   15   36 1   
    31   15   37 1   
    32   16   17 1   
    33   16   38 1   
    34   16   39 1   
    35   17   18 1   
    36   17   40 1   
    37   17   41 1   
    38   18   19 1   
    39   18   42 1   
    40   18   43 1   
    41   19   20 1   
    42   19   44 1   
    43   19   45 1   
    44   20   21 1   
    45   20   46 1   
    46   20   47 1   
    47   21   22 1   
    48   21   48 1   
    49   21   49 1   
    50   22   50 1   
    51   22   51 1   
    52   22   52 1   
@<TRIPOS>SUBSTRUCTURE
     1 SAX         1 TEMP              0 ****  ****    0 ROOT
