@<TRIPOS>MOLECULE
SAY
   34    35     1     0     0
SMALL
bcc


@<TRIPOS>ATOM
      1 P          -4.0900   -0.0990   -1.1520 p5        1 SAY      1.331900
      2 O1P        -3.5440    1.2570   -1.5560 o         1 SAY     -0.932167
      3 O2P        -5.5490   -0.1690   -0.8240 o         1 SAY     -0.932167
      4 O3P        -3.4740   -1.2540   -1.8890 o         1 SAY     -0.932167
      5 O5'        -3.3160   -0.2250    0.4060 os        1 SAY     -0.558200
      6 C5'        -1.9510   -0.2440    0.3460 c3        1 SAY      0.229400
      7 C4'        -1.3640    1.1310    0.7490 c3        1 SAY      0.060100
      8 O4'        -0.1360    0.9230    1.4920 os        1 SAY     -0.441600
      9 C3'        -1.0450    2.0430   -0.4520 c3        1 SAY      0.160100
     10 O3'        -1.8810    3.1780   -0.4740 oh        1 SAY     -0.676800
     11 C2'         0.4050    2.5060   -0.2380 c3        1 SAY     -0.115400
     12 C1'         0.9400    1.6540    0.9170 c3        1 SAY      0.179400
     13 CAA         2.0280    0.7170    0.4670 ca        1 SAY      0.005700
     14 CAB         3.3440    1.1830    0.3940 ca        1 SAY     -0.244000
     15 CAF         1.7440   -0.6140    0.1270 ca        1 SAY     -0.137000
     16 CAE         2.7650   -1.4680   -0.2720 ca        1 SAY     -0.045000
     17 CAD         4.0960   -1.0240   -0.3470 ca        1 SAY     -0.247600
     18 CAG         5.1770   -1.9140   -0.7620 c         1 SAY      0.591500
     19 CAC         4.3660    0.3180   -0.0140 ca        1 SAY      0.144100
     20 OAR         5.6790    0.7420   -0.0940 oh        1 SAY     -0.522100
     21 OAH         5.0460   -3.1230   -0.9890 o         1 SAY     -0.571100
     22 H5'1       -1.5470   -0.9990    1.0870 h1        1 SAY     -0.004300
     23 H5'2       -1.5920   -0.5250   -0.6850 h1        1 SAY     -0.004300
     24 H4'        -2.0670    1.6470    1.4560 h1        1 SAY      0.069700
     25 H3'        -1.1550    1.4790   -1.4200 h1        1 SAY      0.099700
     26 H1'         1.3540    2.3030    1.7410 h1        1 SAY      0.029700
     27 HA         -2.7430    2.8530   -0.8250 ho        1 SAY      0.500000
     28 H2'1        1.0070    2.3650   -1.1650 hc        1 SAY      0.039700
     29 H2'2        0.4280    3.5890    0.0360 hc        1 SAY      0.039700
     30 HAB         3.5740    2.2260    0.6530 ha        1 SAY      0.125000
     31 HAF         0.6920   -0.9600    0.1810 ha        1 SAY      0.200000
     32 HAE         2.5440   -2.5140   -0.5400 ha        1 SAY      0.153000
     33 HAG         6.1740   -1.4240   -0.8660 h4        1 SAY     -0.008800
     34 HAR         5.6910    1.6860    0.1180 ho        1 SAY      0.412000
@<TRIPOS>BOND
     1    1    2 1   
     2    1    3 1   
     3    1    4 1   
     4    1    5 1   
     5    5    6 1   
     6    6    7 1   
     7    6   22 1   
     8    6   23 1   
     9    7    8 1   
    10    7    9 1   
    11    7   24 1   
    12    8   12 1   
    13    9   10 1   
    14    9   11 1   
    15    9   25 1   
    16   10   27 1   
    17   11   12 1   
    18   11   28 1   
    19   11   29 1   
    20   12   13 1   
    21   12   26 1   
    22   13   14 ar  
    23   13   15 ar  
    24   14   19 ar  
    25   14   30 1   
    26   15   16 ar  
    27   15   31 1   
    28   16   17 ar  
    29   16   32 1   
    30   17   18 1   
    31   17   19 ar  
    32   18   21 2   
    33   18   33 1   
    34   19   20 1   
    35   20   34 1   
@<TRIPOS>SUBSTRUCTURE
     1 SAY         1 TEMP              0 ****  ****    0 ROOT
