@<TRIPOS>MOLECULE
SAZ
   41    39     1     0     0
SMALL
bcc


@<TRIPOS>ATOM
      1 C01        -0.4540   -0.0090    0.3630 c3        1 SAZ     -0.092000
      2 C02         2.9390   -0.3740    0.1130 c1        1 SAZ     -0.103000
      3 C03        -0.9710    0.9970    1.3920 c3        1 SAZ     -0.153000
      4 C05         3.8190   -0.3410    1.2210 c2        1 SAZ     -0.238000
      5 C07        -0.6160    0.5420    2.7840 c3        1 SAZ     -0.215000
      6 C08        -4.1490    0.9800   -2.6100 c3        1 SAZ     -0.250000
      7 C09        -2.6890    1.2280   -2.3030 c3        1 SAZ     -0.180000
      8 C13        -4.7940    1.9680   -3.4650 c2        1 SAZ      0.324000
      9 C16        -4.0660    3.1230   -3.9640 c3        1 SAZ     -0.314000
     10 C17        -6.1960    1.7950   -3.8250 c3        1 SAZ     -0.314000
     11 C25         3.3570   -0.1280    2.4420 c1        1 SAZ      0.069000
     12 C26         2.9080    0.0830    3.6370 c2        1 SAZ     -0.225000
     13 N35        -0.7740    0.3510   -1.0120 n3        1 SAZ     -0.272000
     14 C36         0.1560   -0.1930   -1.9760 c3        1 SAZ     -0.120000
     15 H01        -2.7980    0.1160   -0.4440 h1        1 SAZ      0.075000
     16 H021       -0.8630   -1.0290    0.6220 h1        1 SAZ      0.107500
     17 H022        3.4160   -0.5460   -0.8650 ha        1 SAZ      0.045000
     18 H031       -0.5180    2.0040    1.1940 hc        1 SAZ      0.072500
     19 H032       -2.0840    1.1110    1.3110 hc        1 SAZ      0.072500
     20 H05         4.9130   -0.4910    1.1040 ha        1 SAZ      0.124000
     21 H071        0.4930    0.4400    2.8960 hc        1 SAZ      0.076333
     22 H072       -1.0810   -0.4480    3.0090 hc        1 SAZ      0.076333
     23 H08        -4.7400    0.9090   -1.6400 hc        1 SAZ      0.191000
     24 H091       -4.2750   -0.0460   -3.0830 hc        1 SAZ      0.191000
     25 H092       -2.0920    1.2400   -3.2530 hc        1 SAZ      0.107000
     26 H101       -2.5610    2.2260   -1.8070 hc        1 SAZ      0.107000
     27 H102       -2.3080   -0.8680   -1.8920 h1        1 SAZ      0.075000
     28 H161       -3.1500    2.7880   -4.5380 hc        1 SAZ      0.175500
     29 H162       -4.6840    3.7910   -4.6170 hc        1 SAZ      0.175500
     30 H163       -3.6590    3.7280   -3.0990 hc        1 SAZ      0.175500
     31 H171       -6.3030    1.7360   -4.9470 hc        1 SAZ      0.175500
     32 H172       -6.7940    2.7000   -3.5110 hc        1 SAZ      0.175500
     33 H173       -6.6610    0.8820   -3.3720 hc        1 SAZ      0.175500
     34 H261       -0.9800    1.2830    3.5350 hc        1 SAZ      0.076333
     35 H262        2.5920   -0.7380    4.3010 ha        1 SAZ      0.171500
     36 H263        2.8200    1.0950    4.0640 ha        1 SAZ      0.171500
     37 H35         0.6780   -0.0630    0.4560 h1        1 SAZ      0.107500
     38 H361        1.2050    0.0270   -1.6350 h1        1 SAZ      0.079667
     39 H362        0.0520   -1.3040   -2.1110 h1        1 SAZ      0.079667
     40 H363       -0.0200    0.3030   -2.9660 h1        1 SAZ      0.079667
     41 C10        -2.1600    0.1250   -1.3730 c3        1 SAZ     -0.054000
@<TRIPOS>BOND
     1    1    3 1   
     2    1   13 1   
     3    1   16 1   
     4    1   37 1   
     5    2    4 1   
     6    2   17 1   
     7    3    5 1   
     8    3   18 1   
     9    3   19 1   
    10    4   11 1   
    11    4   20 1   
    12    5   21 1   
    13    5   22 1   
    14    5   34 1   
    15    6    7 1   
    16    6    8 1   
    17    6   23 1   
    18    6   24 1   
    19    7   25 1   
    20    7   26 1   
    21    7   41 1   
    22    8    9 1   
    23    8   10 1   
    24    9   28 1   
    25    9   29 1   
    26    9   30 1   
    27   10   31 1   
    28   10   32 1   
    29   10   33 1   
    30   11   12 1   
    31   12   35 1   
    32   12   36 1   
    33   13   14 1   
    34   13   41 1   
    35   14   38 1   
    36   14   39 1   
    37   14   40 1   
    38   15   41 1   
    39   27   41 1   
@<TRIPOS>SUBSTRUCTURE
     1 SAZ         1 TEMP              0 ****  ****    0 ROOT
