@<TRIPOS>MOLECULE
SAZ
   41    37     1     0     0
SMALL
bcc


@<TRIPOS>ATOM
      1 C01        -3.0210   -0.2100    2.0690 c3        1 SAZ     -0.200000
      2 C02         0.9290    1.1430   -0.8770 c2        1 SAZ      0.274000
      3 C03        -2.7670    1.0700    2.7590 c2        1 SAZ     -0.154000
      4 C05         1.0510    1.4550    0.4190 c1        1 SAZ     -0.300000
      5 C07        -2.0570    1.1890    3.8800 c2        1 SAZ     -0.260000
      6 C08        -2.5860    0.3950   -2.3250 c3        1 SAZ     -0.143000
      7 C09        -1.7270   -0.2900   -3.3660 c3        1 SAZ     -0.175000
      8 C13        -2.3200    1.8510   -2.1550 c2        1 SAZ     -0.105000
      9 C16        -1.4440    2.5500   -2.8860 c2        1 SAZ     -0.269000
     10 C17        -3.1500    2.4970   -1.1050 c3        1 SAZ     -0.201000
     11 C25         1.1460    1.7340    1.6140 c1        1 SAZ      0.259000
     12 C26         1.2320    2.0460    2.9830 c3        1 SAZ     -0.221000
     13 N35        -1.4640   -2.6720   -4.1320 n2        1 SAZ     -0.159000
     14 C36        -0.5510   -2.4040   -5.1920 c3        1 SAZ     -0.166000
     15 H01        -4.1040   -0.4790    2.1660 hc        1 SAZ      0.087333
     16 H021       -2.4170   -1.0460    2.4980 hc        1 SAZ      0.087333
     17 H022        1.7790    0.7170   -1.4490 ha        1 SAZ      0.200000
     18 H031        1.6250    3.0860   -1.9190 ha        1 SAZ      0.009500
     19 H032       -3.2410    1.9520    2.2920 ha        1 SAZ      0.123000
     20 H05         1.0300    3.1540   -2.2450 ha        1 SAZ      0.009500
     21 H071       -1.6060    0.3280    4.3910 ha        1 SAZ      0.116500
     22 H072       -1.9330    2.1520    4.3940 ha        1 SAZ      0.116500
     23 H08        -2.4490   -0.1140   -1.3300 hc        1 SAZ      0.103000
     24 H091       -3.6690    0.2660   -2.6060 hc        1 SAZ      0.103000
     25 H092       -1.9560    0.1340   -4.3820 hc        1 SAZ      0.087000
     26 H101       -0.6390   -0.0910   -3.1620 hc        1 SAZ      0.087000
     27 H102       -2.6760   -2.1390   -2.6030 h4        1 SAZ      0.148000
     28 H161       -0.0470    1.2690   -1.4110 ha        1 SAZ      0.200000
     29 H162       -0.8620    2.1120   -3.7070 ha        1 SAZ      0.122500
     30 H163       -1.3040    3.6310   -2.7480 ha        1 SAZ      0.122500
     31 H171       -3.0780    1.9330   -0.1400 hc        1 SAZ      0.092333
     32 H172       -2.8390    3.5550   -0.9260 hc        1 SAZ      0.092333
     33 H173       -4.2230    2.4990   -1.4250 hc        1 SAZ      0.092333
     34 H261        0.2900    1.7200    3.5230 hc        1 SAZ      0.184000
     35 H262        2.1290    1.5710    3.4690 hc        1 SAZ      0.184000
     36 H263        1.3130    3.1680    3.1140 hc        1 SAZ      0.184000
     37 H35        -2.7860   -0.1210    0.9780 hc        1 SAZ      0.087333
     38 H361        0.3550   -3.0520   -5.0410 h1        1 SAZ      0.090667
     39 H362       -0.2180   -1.3350   -5.2840 h1        1 SAZ      0.090667
     40 H363       -1.0400   -2.7090   -6.1570 h1        1 SAZ      0.090667
     41 C10        -1.9610   -1.7730   -3.3710 c2        1 SAZ     -0.094000
@<TRIPOS>BOND
     1    1    3 1   
     2    1   15 1   
     3    1   16 1   
     4    1   37 1   
     5    2    4 1   
     6    2   17 1   
     7    2   28 1   
     8    3    5 1   
     9    3   19 1   
    10    4   11 1   
    11    5   21 1   
    12    5   22 1   
    13    6    7 1   
    14    6    8 1   
    15    6   23 1   
    16    6   24 1   
    17    7   25 1   
    18    7   26 1   
    19    7   41 1   
    20    8    9 1   
    21    8   10 1   
    22    9   29 1   
    23    9   30 1   
    24   10   31 1   
    25   10   32 1   
    26   10   33 1   
    27   11   12 1   
    28   12   34 1   
    29   12   35 1   
    30   12   36 1   
    31   13   14 1   
    32   13   41 1   
    33   14   38 1   
    34   14   39 1   
    35   14   40 1   
    36   18   20 1   
    37   27   41 1   
@<TRIPOS>SUBSTRUCTURE
     1 SAZ         1 TEMP              0 ****  ****    0 ROOT
