@<TRIPOS>MOLECULE
SAZ
   41    41     1     0     0
SMALL
bcc


@<TRIPOS>ATOM
      1 C01        -1.4610    0.4530    0.1860 c3        1 SAZ      0.125500
      2 C02        -2.6540    1.3740   -0.1100 c3        1 SAZ     -0.052200
      3 C03        -1.6480   -0.8610   -0.5850 c3        1 SAZ     -0.099400
      4 C05        -3.9370    0.6510    0.0580 c2        1 SAZ     -0.200200
      5 C07        -2.8750   -1.5820   -0.0580 c3        1 SAZ     -0.051200
      6 C08         3.3770   -0.2150    0.5710 c2        1 SAZ     -0.248200
      7 C09         2.3420    0.5570   -0.1570 c3        1 SAZ     -0.052200
      8 C13         4.5120   -0.6530   -0.0010 c2        1 SAZ     -0.039400
      9 C16         4.8310   -0.4270   -1.4310 c3        1 SAZ     -0.079400
     10 C17         5.5290   -1.3990    0.7780 c3        1 SAZ     -0.079400
     11 C25        -4.0550   -0.6840    0.0700 c2        1 SAZ     -0.082400
     12 C26        -5.3610   -1.3670    0.2250 c3        1 SAZ     -0.069900
     13 N35        -0.1280    1.1000   -0.1480 n4        1 SAZ     -0.685400
     14 C36        -0.1070    2.5460    0.1880 c3        1 SAZ      0.083100
     15 H01        -1.4360    0.2400    1.2960 hx        1 SAZ      0.107700
     16 H021       -2.6410    2.2550    0.5880 hc        1 SAZ      0.066700
     17 H022       -2.5970    1.7650   -1.1640 hc        1 SAZ      0.066700
     18 H031       -1.7830   -0.6390   -1.6770 hc        1 SAZ      0.065700
     19 H032       -0.7580   -1.5340   -0.4780 hc        1 SAZ      0.065700
     20 H05        -4.8190    1.3050    0.1580 ha        1 SAZ      0.157000
     21 H071       -3.1180   -2.4310   -0.7540 hc        1 SAZ      0.078200
     22 H072       -2.6520   -2.0330    0.9480 hc        1 SAZ      0.078200
     23 H08         3.1850   -0.3970    1.6410 ha        1 SAZ      0.134000
     24 H091        2.2700    0.2010   -1.2220 hc        1 SAZ      0.062200
     25 H092        2.6420    1.6410   -0.1840 hc        1 SAZ      0.062200
     26 H101        1.0590    0.7860    1.6010 hx        1 SAZ      0.104700
     27 H102        0.7480   -0.7100    0.6000 hx        1 SAZ      0.104700
     28 H161        4.1750   -1.0630   -2.0780 hc        1 SAZ      0.057200
     29 H162        4.6680    0.6440   -1.7100 hc        1 SAZ      0.057200
     30 H163        5.8960   -0.6880   -1.6530 hc        1 SAZ      0.057200
     31 H171        5.1960   -1.5910    1.8270 hc        1 SAZ      0.057200
     32 H172        5.7410   -2.3820    0.2860 hc        1 SAZ      0.057200
     33 H173        6.4840   -0.8150    0.8120 hc        1 SAZ      0.057200
     34 H261       -5.3120   -2.1070    1.0630 hc        1 SAZ      0.060700
     35 H262       -6.1820   -0.6400    0.4400 hc        1 SAZ      0.060700
     36 H263       -5.6160   -1.9200   -0.7150 hc        1 SAZ      0.060700
     37 H35         0.0150    1.0050   -1.1620 hn        1 SAZ      0.442800
     38 H361        0.9380    2.9400    0.0610 hx        1 SAZ      0.102367
     39 H362       -0.7980    3.1060   -0.4970 hx        1 SAZ      0.102367
     40 H363       -0.4320    2.6900    1.2520 hx        1 SAZ      0.102367
     41 C10         0.9980    0.3890    0.5480 c3        1 SAZ      0.104800
@<TRIPOS>BOND
     1    1    2 1   
     2    1    3 1   
     3    1   13 1   
     4    1   15 1   
     5    2    4 1   
     6    2   16 1   
     7    2   17 1   
     8    3    5 1   
     9    3   18 1   
    10    3   19 1   
    11    4   11 2   
    12    4   20 1   
    13    5   11 1   
    14    5   21 1   
    15    5   22 1   
    16    6    7 1   
    17    6    8 2   
    18    6   23 1   
    19    7   24 1   
    20    7   25 1   
    21    7   41 1   
    22    8    9 1   
    23    8   10 1   
    24    9   28 1   
    25    9   29 1   
    26    9   30 1   
    27   10   31 1   
    28   10   32 1   
    29   10   33 1   
    30   11   12 1   
    31   12   34 1   
    32   12   35 1   
    33   12   36 1   
    34   13   14 1   
    35   13   37 1   
    36   13   41 1   
    37   14   38 1   
    38   14   39 1   
    39   14   40 1   
    40   26   41 1   
    41   27   41 1   
@<TRIPOS>SUBSTRUCTURE
     1 SAZ         1 TEMP              0 ****  ****    0 ROOT
