@<TRIPOS>MOLECULE
SB0
   48    51     1     0     0
SMALL
bcc


@<TRIPOS>ATOM
      1 F8         -0.1120    0.8220    0.1470 f         1 SB0     -0.142900
      2 C2          1.2380    0.7210    0.0820 ca        1 SB0      0.126900
      3 C1          1.9850    0.5170    1.2570 ca        1 SB0     -0.170000
      4 C6          3.3690    0.4140    1.1810 ca        1 SB0     -0.085500
      5 C5          4.0270    0.5070   -0.0560 ca        1 SB0     -0.118500
      6 C4          3.2750    0.7200   -1.2180 ca        1 SB0     -0.085500
      7 C3          1.8890    0.8250   -1.1600 ca        1 SB0     -0.170000
      8 C7          5.4760    0.3950   -0.1060 cc        1 SB0      0.386800
      9 N9          6.3080    1.0100    0.8420 nc        1 SB0     -0.660000
     10 C10         7.5680    0.6570    0.5170 cd        1 SB0      0.405400
     11 N11         7.6040   -0.1650   -0.6160 na        1 SB0     -0.181900
     12 C19         8.7770   -0.7780   -1.2000 c3        1 SB0      0.050000
     13 C20         9.3400   -1.9200   -0.3320 c3        1 SB0     -0.089400
     14 C21        10.4950   -2.5930   -1.0360 c3        1 SB0     -0.095400
     15 C22        11.5970   -1.5890   -1.3600 c3        1 SB0      0.138100
     16 O25        12.5910   -2.3010   -2.0850 oh        1 SB0     -0.594800
     17 C23        11.0490   -0.4280   -2.1850 c3        1 SB0     -0.095400
     18 C24         9.8930    0.2440   -1.4800 c3        1 SB0     -0.089400
     19 C12         6.2720   -0.3370   -1.0240 cd        1 SB0     -0.268100
     20 C13         5.8810   -1.1740   -2.1620 ca        1 SB0      0.544800
     21 N14         5.8890   -2.5210   -1.9980 nb        1 SB0     -0.678000
     22 C15         5.4860   -3.2440   -3.1000 ca        1 SB0      0.846300
     23 O26         5.5190   -4.6040   -2.8680 os        1 SB0     -0.411100
     24 C27         5.0730   -5.4560   -3.9260 c3        1 SB0      0.123700
     25 N16         5.0930   -2.7460   -4.3230 nb        1 SB0     -0.743000
     26 C17         5.1210   -1.4060   -4.4320 ca        1 SB0      0.458200
     27 C18         5.5140   -0.5590   -3.3810 ca        1 SB0     -0.390600
     28 H1          1.4680    0.4410    2.2240 ha        1 SB0      0.147500
     29 H2          3.9530    0.2590    2.1020 ha        1 SB0      0.144500
     30 H3          3.7830    0.8080   -2.1900 ha        1 SB0      0.144500
     31 H4          1.3000    0.9900   -2.0730 ha        1 SB0      0.147500
     32 H5          8.4740    0.9670    1.0490 h5        1 SB0      0.064100
     33 H6          8.4560   -1.2240   -2.1910 h1        1 SB0      0.076700
     34 H7          9.6770   -1.5110    0.6560 hc        1 SB0      0.058200
     35 H8          8.5360   -2.6770   -0.1340 hc        1 SB0      0.058200
     36 H9         10.9170   -3.4020   -0.3840 hc        1 SB0      0.058450
     37 H10        10.1480   -3.0760   -1.9860 hc        1 SB0      0.058450
     38 H11        12.0460   -1.1930   -0.4050 h1        1 SB0      0.034700
     39 H12        13.2800   -1.6650   -2.3100 ho        1 SB0      0.400000
     40 H13        10.7220   -0.8130   -3.1860 hc        1 SB0      0.058450
     41 H14        11.8630    0.3220   -2.3630 hc        1 SB0      0.058450
     42 H15        10.2470    0.6940   -0.5150 hc        1 SB0      0.058200
     43 H16         9.5000    1.0770   -2.1200 hc        1 SB0      0.058200
     44 H17         5.7260   -5.3450   -4.8240 h1        1 SB0      0.055367
     45 H18         4.0080   -5.2450   -4.1820 h1        1 SB0      0.055367
     46 H19         5.1820   -6.4760   -3.4750 h1        1 SB0      0.055367
     47 H20         4.8140   -0.9990   -5.4130 h4        1 SB0      0.033100
     48 H21         5.5420    0.5300   -3.5010 ha        1 SB0      0.165000
@<TRIPOS>BOND
     1    1    2 1   
     2    2    3 ar  
     3    2    7 ar  
     4    3    4 ar  
     5    3   28 1   
     6    4    5 ar  
     7    4   29 1   
     8    5    6 ar  
     9    5    8 1   
    10    6    7 ar  
    11    6   30 1   
    12    7   31 1   
    13    8    9 1   
    14    8   19 2   
    15    9   10 2   
    16   10   11 1   
    17   10   32 1   
    18   11   12 1   
    19   11   19 1   
    20   12   13 1   
    21   12   18 1   
    22   12   33 1   
    23   13   14 1   
    24   13   34 1   
    25   13   35 1   
    26   14   15 1   
    27   14   36 1   
    28   14   37 1   
    29   15   16 1   
    30   15   17 1   
    31   15   38 1   
    32   16   39 1   
    33   17   18 1   
    34   17   40 1   
    35   17   41 1   
    36   18   42 1   
    37   18   43 1   
    38   19   20 1   
    39   20   21 ar  
    40   20   27 ar  
    41   21   22 ar  
    42   22   23 1   
    43   22   25 ar  
    44   23   24 1   
    45   24   44 1   
    46   24   45 1   
    47   24   46 1   
    48   25   26 ar  
    49   26   27 ar  
    50   26   47 1   
    51   27   48 1   
@<TRIPOS>SUBSTRUCTURE
     1 SB0         1 TEMP              0 ****  ****    0 ROOT
