@<TRIPOS>MOLECULE
SB0
   48    51     1     0     0
SMALL
bcc


@<TRIPOS>ATOM
      1 F8         -6.3540   -1.9760    0.7380 f         1 SB0     -0.142900
      2 C2         -5.0030   -1.9370    0.6520 ca        1 SB0      0.126900
      3 C1         -4.3330   -2.7630   -0.2700 ca        1 SB0     -0.170000
      4 C6         -2.9460   -2.7170   -0.3520 ca        1 SB0     -0.085500
      5 C5         -2.2090   -1.8510    0.4710 ca        1 SB0     -0.118500
      6 C4         -2.8850   -1.0400    1.3910 ca        1 SB0     -0.085500
      7 C3         -4.2720   -1.0730    1.4870 ca        1 SB0     -0.170000
      8 C7         -0.7590   -1.8220    0.3630 cc        1 SB0      0.386800
      9 N9          0.0050   -2.9900    0.2170 nc        1 SB0     -0.660000
     10 C10         1.2860   -2.5870    0.1020 cd        1 SB0      0.405400
     11 N11         1.4020   -1.1930    0.1700 na        1 SB0     -0.181900
     12 C19         2.6150   -0.4200    0.0150 c3        1 SB0      0.050000
     13 C20         3.1290   -0.4110   -1.4370 c3        1 SB0     -0.089400
     14 C21         4.3330    0.4940   -1.5620 c3        1 SB0     -0.095400
     15 C22         5.4450    0.0560   -0.6140 c3        1 SB0      0.138100
     16 O25         6.4890    1.0100   -0.7510 oh        1 SB0     -0.594800
     17 C23         4.9440    0.0010    0.8260 c3        1 SB0     -0.095400
     18 C24         3.7390   -0.9050    0.9490 c3        1 SB0     -0.089400
     19 C12         0.1010   -0.6940    0.3390 cd        1 SB0     -0.268100
     20 C13        -0.2090    0.7370    0.4140 ca        1 SB0      0.544800
     21 N14        -0.2030    1.4540   -0.7370 nb        1 SB0     -0.678000
     22 C15        -0.5270    2.7860   -0.5950 ca        1 SB0      0.846300
     23 O26        -0.5010    3.4570   -1.8000 os        1 SB0     -0.411100
     24 C27        -0.8700    4.8390   -1.7840 c3        1 SB0      0.123700
     25 N16        -0.8420    3.4450    0.5740 nb        1 SB0     -0.743000
     26 C17        -0.8160    2.6880    1.6840 ca        1 SB0      0.458200
     27 C18        -0.4980    1.3180    1.6710 ca        1 SB0     -0.390600
     28 H1         -4.9120   -3.4380   -0.9160 ha        1 SB0      0.147500
     29 H2         -2.4230   -3.3670   -1.0710 ha        1 SB0      0.144500
     30 H3         -2.3140   -0.3680    2.0510 ha        1 SB0      0.144500
     31 H4         -4.8010   -0.4360    2.2090 ha        1 SB0      0.147500
     32 H5          2.1520   -3.2440   -0.0230 h5        1 SB0      0.064100
     33 H6          2.3620    0.6470    0.3000 h1        1 SB0      0.076700
     34 H7          3.3980   -1.4540   -1.7480 hc        1 SB0      0.058200
     35 H8          2.3190   -0.0460   -2.1220 hc        1 SB0      0.058200
     36 H9          4.7170    0.4710   -2.6140 hc        1 SB0      0.058450
     37 H10         4.0510    1.5550   -1.3320 hc        1 SB0      0.058450
     38 H11         5.8280   -0.9600   -0.9180 h1        1 SB0      0.034700
     39 H12         7.1870    0.7490   -0.1380 ho        1 SB0      0.400000
     40 H13         5.7620   -0.3760    1.4940 hc        1 SB0      0.058450
     41 H14         4.6860    1.0390    1.1630 hc        1 SB0      0.058450
     42 H15         3.3820   -0.9060    2.0120 hc        1 SB0      0.058200
     43 H16         4.0260   -1.9560    0.6840 hc        1 SB0      0.058200
     44 H17        -0.7840    5.1220   -2.8650 h1        1 SB0      0.055367
     45 H18        -1.9170    4.9650   -1.4210 h1        1 SB0      0.055367
     46 H19        -0.1590    5.4300   -1.1590 h1        1 SB0      0.055367
     47 H20        -1.0600    3.2110    2.6270 h4        1 SB0      0.033100
     48 H21        -0.4710    0.7260    2.5930 ha        1 SB0      0.165000
@<TRIPOS>BOND
     1    1    2 1   
     2    2    3 ar  
     3    2    7 ar  
     4    3    4 ar  
     5    3   28 1   
     6    4    5 ar  
     7    4   29 1   
     8    5    6 ar  
     9    5    8 1   
    10    6    7 ar  
    11    6   30 1   
    12    7   31 1   
    13    8    9 1   
    14    8   19 2   
    15    9   10 2   
    16   10   11 1   
    17   10   32 1   
    18   11   12 1   
    19   11   19 1   
    20   12   13 1   
    21   12   18 1   
    22   12   33 1   
    23   13   14 1   
    24   13   34 1   
    25   13   35 1   
    26   14   15 1   
    27   14   36 1   
    28   14   37 1   
    29   15   16 1   
    30   15   17 1   
    31   15   38 1   
    32   16   39 1   
    33   17   18 1   
    34   17   40 1   
    35   17   41 1   
    36   18   42 1   
    37   18   43 1   
    38   19   20 1   
    39   20   21 ar  
    40   20   27 ar  
    41   21   22 ar  
    42   22   23 1   
    43   22   25 ar  
    44   23   24 1   
    45   24   44 1   
    46   24   45 1   
    47   24   46 1   
    48   25   26 ar  
    49   26   27 ar  
    50   26   47 1   
    51   27   48 1   
@<TRIPOS>SUBSTRUCTURE
     1 SB0         1 TEMP              0 ****  ****    0 ROOT
