@<TRIPOS>MOLECULE
SB0
   48    51     1     0     0
SMALL
bcc


@<TRIPOS>ATOM
      1 F8         -0.1250    0.6890    0.2320 f         1 SB0     -0.142900
      2 C2          1.2260    0.6280    0.1420 ca        1 SB0      0.126900
      3 C1          1.9990    0.4350    1.3020 ca        1 SB0     -0.170000
      4 C6          3.3840    0.3730    1.2010 ca        1 SB0     -0.085500
      5 C5          4.0170    0.4960   -0.0460 ca        1 SB0     -0.118500
      6 C4          3.2390    0.6980   -1.1920 ca        1 SB0     -0.085500
      7 C3          1.8520    0.7620   -1.1100 ca        1 SB0     -0.170000
      8 C7          5.4670    0.4250   -0.1210 cc        1 SB0      0.386800
      9 N9          6.2970    1.0710    0.8080 nc        1 SB0     -0.661000
     10 C10         7.5610    0.7510    0.4660 cd        1 SB0      0.405400
     11 N11         7.6030   -0.0790   -0.6610 na        1 SB0     -0.181900
     12 C19         8.7780   -0.6790   -1.2520 c3        1 SB0      0.051000
     13 C20         9.3090   -1.8700   -0.4310 c3        1 SB0     -0.089900
     14 C21        10.4700   -2.5210   -1.1470 c3        1 SB0     -0.095400
     15 C22        11.5890   -1.5190   -1.4130 c3        1 SB0      0.138100
     16 O25        12.6140   -2.0970   -2.2110 oh        1 SB0     -0.597800
     17 C23        11.0680   -0.3140   -2.1920 c3        1 SB0     -0.095400
     18 C24         9.9150    0.3380   -1.4640 c3        1 SB0     -0.089900
     19 C12         6.2690   -0.2930   -1.0460 cd        1 SB0     -0.269100
     20 C13         5.8850   -1.1500   -2.1710 ca        1 SB0      0.545800
     21 N14         5.9590   -2.4940   -2.0050 nb        1 SB0     -0.681000
     22 C15         5.5590   -3.2390   -3.0930 ca        1 SB0      0.845300
     23 O26         5.6620   -4.5950   -2.8590 os        1 SB0     -0.413100
     24 C27         5.2150   -5.4700   -3.8990 c3        1 SB0      0.123700
     25 N16         5.1090   -2.7630   -4.3050 nb        1 SB0     -0.743000
     26 C17         5.0740   -1.4240   -4.4180 ca        1 SB0      0.459200
     27 C18         5.4580   -0.5560   -3.3810 ca        1 SB0     -0.388600
     28 H1          1.5020    0.3350    2.2770 ha        1 SB0      0.147500
     29 H2          3.9890    0.2270    2.1100 ha        1 SB0      0.144500
     30 H3          3.7260    0.8110   -2.1730 ha        1 SB0      0.144500
     31 H4          1.2420    0.9200   -2.0100 ha        1 SB0      0.147500
     32 H5          8.4660    1.0930    0.9800 h5        1 SB0      0.064100
     33 H6          8.4690   -1.0710   -2.2690 h1        1 SB0      0.075700
     34 H7          9.6350   -1.5150    0.5820 hc        1 SB0      0.058950
     35 H8          8.4910   -2.6240   -0.2840 hc        1 SB0      0.058950
     36 H9         10.8640   -3.3660   -0.5240 hc        1 SB0      0.058450
     37 H10        10.1270   -2.9560   -2.1230 hc        1 SB0      0.058450
     38 H11        12.0310   -1.1790   -0.4340 h1        1 SB0      0.034700
     39 H12        12.9030   -2.8970   -1.7560 ho        1 SB0      0.402000
     40 H13        11.9000    0.4250   -2.3240 hc        1 SB0      0.058450
     41 H14        10.7500   -0.6480   -3.2130 hc        1 SB0      0.058450
     42 H15         9.5440    1.2090   -2.0640 hc        1 SB0      0.058950
     43 H16        10.2640    0.7300   -0.4730 hc        1 SB0      0.058950
     44 H17         5.3820   -6.4820   -3.4490 h1        1 SB0      0.055700
     45 H18         4.1330   -5.3040   -4.1170 h1        1 SB0      0.055700
     46 H19         5.8300   -5.3350   -4.8200 h1        1 SB0      0.055700
     47 H20         4.7220   -1.0340   -5.3910 h4        1 SB0      0.034100
     48 H21         5.4360    0.5320   -3.5060 ha        1 SB0      0.165000
@<TRIPOS>BOND
     1    1    2 1   
     2    2    3 ar  
     3    2    7 ar  
     4    3    4 ar  
     5    3   28 1   
     6    4    5 ar  
     7    4   29 1   
     8    5    6 ar  
     9    5    8 1   
    10    6    7 ar  
    11    6   30 1   
    12    7   31 1   
    13    8    9 1   
    14    8   19 2   
    15    9   10 2   
    16   10   11 1   
    17   10   32 1   
    18   11   12 1   
    19   11   19 1   
    20   12   13 1   
    21   12   18 1   
    22   12   33 1   
    23   13   14 1   
    24   13   34 1   
    25   13   35 1   
    26   14   15 1   
    27   14   36 1   
    28   14   37 1   
    29   15   16 1   
    30   15   17 1   
    31   15   38 1   
    32   16   39 1   
    33   17   18 1   
    34   17   40 1   
    35   17   41 1   
    36   18   42 1   
    37   18   43 1   
    38   19   20 1   
    39   20   21 ar  
    40   20   27 ar  
    41   21   22 ar  
    42   22   23 1   
    43   22   25 ar  
    44   23   24 1   
    45   24   44 1   
    46   24   45 1   
    47   24   46 1   
    48   25   26 ar  
    49   26   27 ar  
    50   26   47 1   
    51   27   48 1   
@<TRIPOS>SUBSTRUCTURE
     1 SB0         1 TEMP              0 ****  ****    0 ROOT
