@<TRIPOS>MOLECULE
SB1
   70    71     1     0     0
SMALL
bcc


@<TRIPOS>ATOM
      1 N1         -0.0020    1.9610    3.0240 n         1 SB1     -0.415800
      2 C2         -0.7610    0.6710    2.8080 c         1 SB1      0.555100
      3 O2         -0.6980   -0.2070    3.6280 o         1 SB1     -0.526100
      4 C3         -1.7060    0.5080    1.5390 c         1 SB1      0.539100
      5 O3         -1.9190    1.4580    0.8170 o         1 SB1     -0.509100
      6 C4         -2.8770   -0.5250    1.8650 c3        1 SB1     -0.150000
      7 C5         -3.6260   -0.9270    0.5130 c3        1 SB1      0.137400
      8 O6         -2.7890   -0.5870   -0.6270 os        1 SB1     -0.443900
      9 C7         -3.4060   -1.0950   -1.8620 c         1 SB1      0.635100
     10 O7         -4.5940   -1.3270   -1.8940 o         1 SB1     -0.541000
     11 C8         -2.6970   -0.4470   -3.1070 c3        1 SB1     -0.128400
     12 C9         -2.8170   -1.4050   -4.3390 c3        1 SB1     -0.071400
     13 C10        -1.5160   -2.2880   -4.4510 c3        1 SB1     -0.088400
     14 C11        -0.3420   -1.4280   -5.0710 c3        1 SB1     -0.079400
     15 C12         1.0490   -2.0200   -4.5960 c3        1 SB1     -0.078400
     16 C13         2.2080   -1.0310   -4.9970 c3        1 SB1     -0.076400
     17 C14         2.5750   -0.1160   -3.7640 c3        1 SB1     -0.077400
     18 C15         3.6110   -0.8610   -2.8460 c3        1 SB1     -0.080400
     19 C16         3.8990    0.0160   -1.5540 c3        1 SB1     -0.077400
     20 C17         3.3930   -0.7490   -0.2770 c3        1 SB1     -0.115400
     21 C18         3.3340    0.2500    0.9530 c3        1 SB1      0.143400
     22 O19         1.9590    0.7220    1.1330 os        1 SB1     -0.446900
     23 C20         1.6080    0.6950    2.5730 c         1 SB1      0.638100
     24 O20         0.9110   -0.1840    3.0050 o         1 SB1     -0.518000
     25 C21         1.4570    1.9610    3.0240 c3        1 SB1      0.026700
     26 C22         1.9910    1.9610    4.4260 c3        1 SB1     -0.103400
     27 C23         1.4060    3.0260    5.2560 c3        1 SB1     -0.079400
     28 C24        -0.0340    3.0200    5.2260 c3        1 SB1     -0.112400
     29 C25        -0.5760    3.0170    3.8540 c3        1 SB1      0.055000
     30 C26        -3.8740    0.1210    2.8250 c3        1 SB1     -0.102100
     31 C27        -2.2900   -1.7730    2.5090 c3        1 SB1     -0.102100
     32 H51        -3.8020   -1.8870    0.5110 h1        1 SB1      0.081200
     33 H52        -4.4710   -0.4420    0.4520 h1        1 SB1      0.081200
     34 H81        -1.7540   -0.2970   -2.9020 hc        1 SB1      0.080200
     35 H82        -3.1230    0.4060   -3.3150 hc        1 SB1      0.080200
     36 H91        -2.9220   -0.8760   -5.1530 hc        1 SB1      0.051200
     37 H92        -3.5940   -1.9840   -4.2260 hc        1 SB1      0.051200
     38 H101       -1.6940   -3.0570   -5.0260 hc        1 SB1      0.054200
     39 H102       -1.2580   -2.5990   -3.5630 hc        1 SB1      0.054200
     40 H111       -0.4220   -0.5030   -4.7700 hc        1 SB1      0.036700
     41 H112       -0.3940   -1.4600   -6.0450 hc        1 SB1      0.036700
     42 H121        1.0400   -2.1340   -3.6270 hc        1 SB1      0.042200
     43 H122        1.1970   -2.8840   -5.0240 hc        1 SB1      0.042200
     44 H131        1.9150   -0.4710   -5.7410 hc        1 SB1      0.038200
     45 H132        2.9940   -1.5430   -5.2670 hc        1 SB1      0.038200
     46 H141        2.9650    0.7190   -4.0830 hc        1 SB1      0.038200
     47 H142        1.7670    0.0770   -3.2510 hc        1 SB1      0.038200
     48 H151        4.4420   -0.9970   -3.3390 hc        1 SB1      0.042200
     49 H152        3.2450   -1.7250   -2.5780 hc        1 SB1      0.042200
     50 H161        4.8580    0.1780   -1.4780 hc        1 SB1      0.042200
     51 H162        3.4300    0.8690   -1.6290 hc        1 SB1      0.042200
     52 H171        4.0060   -1.4800   -0.0720 hc        1 SB1      0.060200
     53 H172        2.5020   -1.1100   -0.4460 hc        1 SB1      0.060200
     54 H181        3.6280   -0.2110    1.7610 h1        1 SB1      0.062700
     55 H182        3.9190    1.0120    0.7810 h1        1 SB1      0.062700
     56 H21         1.8700    2.5310    2.3480 h1        1 SB1      0.091700
     57 H221        2.9590    2.0830    4.3940 hc        1 SB1      0.071200
     58 H222        1.7950    1.0980    4.8380 hc        1 SB1      0.071200
     59 H231        1.7030    2.9070    6.1780 hc        1 SB1      0.047200
     60 H232        1.7240    3.8900    4.9310 hc        1 SB1      0.047200
     61 H241       -0.3550    2.2250    5.6930 hc        1 SB1      0.057200
     62 H242       -0.3620    3.8130    5.6920 hc        1 SB1      0.057200
     63 H251       -0.3890    3.8800    3.4400 h1        1 SB1      0.071700
     64 H252       -1.5430    2.8920    3.8980 h1        1 SB1      0.071700
     65 H261       -4.1480    0.9890    2.4730 hc        1 SB1      0.057867
     66 H262       -4.6570   -0.4550    2.9170 hc        1 SB1      0.057867
     67 H263       -3.4540    0.2410    3.6980 hc        1 SB1      0.057867
     68 H271       -1.4170   -1.9620    2.1150 hc        1 SB1      0.057867
     69 H272       -2.1890   -1.6270    3.4690 hc        1 SB1      0.057867
     70 H273       -2.8870   -2.5300    2.3560 hc        1 SB1      0.057867
@<TRIPOS>BOND
     1    1    2 1   
     2    1   25 1   
     3    1   29 1   
     4    2    3 2   
     5    2    4 1   
     6    4    5 2   
     7    4    6 1   
     8    6    7 1   
     9    6   30 1   
    10    6   31 1   
    11    7    8 1   
    12    7   32 1   
    13    7   33 1   
    14    8    9 1   
    15    9   10 2   
    16    9   11 1   
    17   11   12 1   
    18   11   34 1   
    19   11   35 1   
    20   12   13 1   
    21   12   36 1   
    22   12   37 1   
    23   13   14 1   
    24   13   38 1   
    25   13   39 1   
    26   14   15 1   
    27   14   40 1   
    28   14   41 1   
    29   15   16 1   
    30   15   42 1   
    31   15   43 1   
    32   16   17 1   
    33   16   44 1   
    34   16   45 1   
    35   17   18 1   
    36   17   46 1   
    37   17   47 1   
    38   18   19 1   
    39   18   48 1   
    40   18   49 1   
    41   19   20 1   
    42   19   50 1   
    43   19   51 1   
    44   20   21 1   
    45   20   52 1   
    46   20   53 1   
    47   21   22 1   
    48   21   54 1   
    49   21   55 1   
    50   22   23 1   
    51   23   24 2   
    52   23   25 1   
    53   25   26 1   
    54   25   56 1   
    55   26   27 1   
    56   26   57 1   
    57   26   58 1   
    58   27   28 1   
    59   27   59 1   
    60   27   60 1   
    61   28   29 1   
    62   28   61 1   
    63   28   62 1   
    64   29   63 1   
    65   29   64 1   
    66   30   65 1   
    67   30   66 1   
    68   30   67 1   
    69   31   68 1   
    70   31   69 1   
    71   31   70 1   
@<TRIPOS>SUBSTRUCTURE
     1 SB1         1 TEMP              0 ****  ****    0 ROOT
