@<TRIPOS>MOLECULE
SB1
   70    71     1     0     0
SMALL
bcc


@<TRIPOS>ATOM
      1 N1         -0.0680   -0.5280   -0.1440 n         1 SB1     -0.432800
      2 C2         -0.3530   -1.8540    0.1780 c         1 SB1      0.560100
      3 O2          0.5330   -2.7220    0.2830 o         1 SB1     -0.568100
      4 C3         -1.8180   -2.2740    0.2740 c         1 SB1      0.529100
      5 O3         -2.4680   -2.0500    1.2930 o         1 SB1     -0.492100
      6 C4         -2.3480   -3.0430   -0.9210 c3        1 SB1     -0.152000
      7 C5         -1.6640   -2.5300   -2.1970 c3        1 SB1      0.127400
      8 O6         -2.1700   -3.2160   -3.3450 os        1 SB1     -0.431900
      9 C7         -3.0670   -2.5660   -4.1510 c         1 SB1      0.633100
     10 O7         -3.4510   -1.4410   -3.8290 o         1 SB1     -0.543000
     11 C8         -3.4640   -3.3620   -5.3590 c3        1 SB1     -0.126400
     12 C9         -2.4040   -3.2990   -6.4420 c3        1 SB1     -0.073400
     13 C10        -1.3190   -4.3330   -6.2270 c3        1 SB1     -0.088400
     14 C11        -0.0810   -4.0160   -7.0390 c3        1 SB1     -0.078400
     15 C12         0.9330   -5.1420   -6.9730 c3        1 SB1     -0.078400
     16 C13         2.3600   -4.6380   -6.9060 c3        1 SB1     -0.077400
     17 C14         2.7270   -4.1900   -5.5070 c3        1 SB1     -0.083400
     18 C15         4.1240   -3.6150   -5.4480 c3        1 SB1     -0.079400
     19 C16         4.5820   -3.3400   -4.0300 c3        1 SB1     -0.074400
     20 C17         3.7920   -2.2510   -3.3340 c3        1 SB1     -0.108400
     21 C18         2.7190   -2.8290   -2.4290 c3        1 SB1      0.137400
     22 O19         1.8870   -1.7780   -1.9130 os        1 SB1     -0.434900
     23 C20         2.2810   -1.1710   -0.7560 c         1 SB1      0.647100
     24 O20         3.3660   -1.4640   -0.2540 o         1 SB1     -0.530000
     25 C21         1.3180   -0.0910   -0.2900 c3        1 SB1      0.048700
     26 C22         1.8790    0.5640    0.9830 c3        1 SB1     -0.099400
     27 C23         0.9840    1.7010    1.4270 c3        1 SB1     -0.080400
     28 C24        -0.4560    1.2540    1.5670 c3        1 SB1     -0.108400
     29 C25        -0.9410    0.5460    0.3000 c3        1 SB1      0.076000
     30 C26        -3.8540   -2.8570   -1.0210 c3        1 SB1     -0.092600
     31 C27        -2.0130   -4.5150   -0.7110 c3        1 SB1     -0.092600
     32 H51        -1.8040   -1.4220   -2.2990 h1        1 SB1      0.084200
     33 H52        -0.5670   -2.7860   -2.1880 h1        1 SB1      0.084200
     34 H81        -3.6450   -4.4270   -5.0540 hc        1 SB1      0.077700
     35 H82        -4.4280   -2.9300   -5.7390 hc        1 SB1      0.077700
     36 H91        -1.9550   -2.2710   -6.4720 hc        1 SB1      0.052700
     37 H92        -2.8950   -3.4740   -7.4360 hc        1 SB1      0.052700
     38 H101       -1.0490   -4.3700   -5.1360 hc        1 SB1      0.050200
     39 H102       -1.7080   -5.3470   -6.5060 hc        1 SB1      0.050200
     40 H111        0.3720   -3.0630   -6.6540 hc        1 SB1      0.040700
     41 H112       -0.3670   -3.8300   -8.1070 hc        1 SB1      0.040700
     42 H121        0.7310   -5.7880   -6.0760 hc        1 SB1      0.040200
     43 H122        0.8150   -5.7960   -7.8770 hc        1 SB1      0.040200
     44 H131        3.0560   -5.4580   -7.2250 hc        1 SB1      0.039700
     45 H132        2.4980   -3.7880   -7.6250 hc        1 SB1      0.039700
     46 H141        1.9910   -3.4170   -5.1580 hc        1 SB1      0.041700
     47 H142        2.6490   -5.0620   -4.8050 hc        1 SB1      0.041700
     48 H151        4.1630   -2.6670   -6.0470 hc        1 SB1      0.040200
     49 H152        4.8420   -4.3360   -5.9230 hc        1 SB1      0.040200
     50 H161        4.5340   -4.2890   -3.4330 hc        1 SB1      0.043200
     51 H162        5.6620   -3.0320   -4.0660 hc        1 SB1      0.043200
     52 H171        3.3170   -1.5700   -4.0870 hc        1 SB1      0.054200
     53 H172        4.4800   -1.6260   -2.7050 hc        1 SB1      0.054200
     54 H181        1.9930   -3.4690   -3.0000 h1        1 SB1      0.068200
     55 H182        3.1700   -3.4140   -1.5850 h1        1 SB1      0.068200
     56 H21         1.3040    0.6870   -1.1180 h1        1 SB1      0.085700
     57 H221        2.9110    0.9410    0.7620 hc        1 SB1      0.071700
     58 H222        1.9710   -0.2050    1.7930 hc        1 SB1      0.071700
     59 H231        1.0440    2.5380    0.6810 hc        1 SB1      0.048200
     60 H232        1.3500    2.1010    2.4090 hc        1 SB1      0.048200
     61 H241       -0.5570    0.5670    2.4470 hc        1 SB1      0.058700
     62 H242       -1.1170    2.1400    1.7480 hc        1 SB1      0.058700
     63 H251       -0.9930    1.2950   -0.5430 h1        1 SB1      0.065200
     64 H252       -1.9790    0.1460    0.4740 h1        1 SB1      0.065200
     65 H261       -4.0960   -1.8030   -1.3030 hc        1 SB1      0.054367
     66 H262       -4.2600   -3.5350   -1.8100 hc        1 SB1      0.054367
     67 H263       -4.3400   -3.0960   -0.0450 hc        1 SB1      0.054367
     68 H271       -0.9210   -4.6360   -0.5040 hc        1 SB1      0.054367
     69 H272       -2.5950   -4.9240    0.1490 hc        1 SB1      0.054367
     70 H273       -2.2730   -5.0860   -1.6340 hc        1 SB1      0.054367
@<TRIPOS>BOND
     1    1    2 1   
     2    1   25 1   
     3    1   29 1   
     4    2    3 2   
     5    2    4 1   
     6    4    5 2   
     7    4    6 1   
     8    6    7 1   
     9    6   30 1   
    10    6   31 1   
    11    7    8 1   
    12    7   32 1   
    13    7   33 1   
    14    8    9 1   
    15    9   10 2   
    16    9   11 1   
    17   11   12 1   
    18   11   34 1   
    19   11   35 1   
    20   12   13 1   
    21   12   36 1   
    22   12   37 1   
    23   13   14 1   
    24   13   38 1   
    25   13   39 1   
    26   14   15 1   
    27   14   40 1   
    28   14   41 1   
    29   15   16 1   
    30   15   42 1   
    31   15   43 1   
    32   16   17 1   
    33   16   44 1   
    34   16   45 1   
    35   17   18 1   
    36   17   46 1   
    37   17   47 1   
    38   18   19 1   
    39   18   48 1   
    40   18   49 1   
    41   19   20 1   
    42   19   50 1   
    43   19   51 1   
    44   20   21 1   
    45   20   52 1   
    46   20   53 1   
    47   21   22 1   
    48   21   54 1   
    49   21   55 1   
    50   22   23 1   
    51   23   24 2   
    52   23   25 1   
    53   25   26 1   
    54   25   56 1   
    55   26   27 1   
    56   26   57 1   
    57   26   58 1   
    58   27   28 1   
    59   27   59 1   
    60   27   60 1   
    61   28   29 1   
    62   28   61 1   
    63   28   62 1   
    64   29   63 1   
    65   29   64 1   
    66   30   65 1   
    67   30   66 1   
    68   30   67 1   
    69   31   68 1   
    70   31   69 1   
    71   31   70 1   
@<TRIPOS>SUBSTRUCTURE
     1 SB1         1 TEMP              0 ****  ****    0 ROOT
