@<TRIPOS>MOLECULE
SB1
   70    71     1     0     0
SMALL
bcc


@<TRIPOS>ATOM
      1 N1         -0.0640   -0.4820   -0.1790 n         1 SB1     -0.432800
      2 C2         -0.3220   -1.8050    0.1730 c         1 SB1      0.560100
      3 O2          0.5800   -2.6570    0.2820 o         1 SB1     -0.568100
      4 C3         -1.7780   -2.2470    0.2970 c         1 SB1      0.529100
      5 O3         -2.4180   -2.0150    1.3210 o         1 SB1     -0.492100
      6 C4         -2.3120   -3.0480   -0.8760 c3        1 SB1     -0.152000
      7 C5         -1.6540   -2.5480   -2.1710 c3        1 SB1      0.127400
      8 O6         -2.1640   -3.2640   -3.2990 os        1 SB1     -0.431900
      9 C7         -3.0830   -2.6430   -4.1040 c         1 SB1      0.633100
     10 O7         -3.4800   -1.5180   -3.7970 o         1 SB1     -0.543000
     11 C8         -3.4840   -3.4680   -5.2910 c3        1 SB1     -0.126400
     12 C9         -2.4390   -3.4090   -6.3890 c3        1 SB1     -0.073400
     13 C10        -1.3350   -4.4230   -6.1690 c3        1 SB1     -0.088400
     14 C11        -0.1130   -4.1020   -7.0030 c3        1 SB1     -0.078400
     15 C12         0.9190   -5.2120   -6.9280 c3        1 SB1     -0.078400
     16 C13         2.3390   -4.6840   -6.8920 c3        1 SB1     -0.077400
     17 C14         2.7180   -4.2030   -5.5060 c3        1 SB1     -0.083400
     18 C15         4.1070   -3.6050   -5.4780 c3        1 SB1     -0.079400
     19 C16         4.5800   -3.2950   -4.0730 c3        1 SB1     -0.074400
     20 C17         3.7810   -2.2050   -3.3870 c3        1 SB1     -0.108400
     21 C18         2.7300   -2.7820   -2.4560 c3        1 SB1      0.137400
     22 O19         1.8880   -1.7340   -1.9500 os        1 SB1     -0.434900
     23 C20         2.2870   -1.0980   -0.8110 c         1 SB1      0.647100
     24 O20         3.3830   -1.3630   -0.3180 o         1 SB1     -0.530000
     25 C21         1.3120   -0.0240   -0.3530 c3        1 SB1      0.048700
     26 C22         1.8800    0.6650    0.8990 c3        1 SB1     -0.099400
     27 C23         0.9720    1.7960    1.3330 c3        1 SB1     -0.080400
     28 C24        -0.4590    1.3280    1.5010 c3        1 SB1     -0.108400
     29 C25        -0.9490    0.5860    0.2550 c3        1 SB1      0.076000
     30 C26        -3.8220   -2.8890   -0.9580 c3        1 SB1     -0.092600
     31 C27        -1.9500   -4.5100   -0.6420 c3        1 SB1     -0.092600
     32 H51        -1.8140   -1.4440   -2.2910 h1        1 SB1      0.084200
     33 H52        -0.5530   -2.7860   -2.1720 h1        1 SB1      0.084200
     34 H81        -3.6450   -4.5290   -4.9640 hc        1 SB1      0.077700
     35 H82        -4.4590   -3.0580   -5.6670 hc        1 SB1      0.077700
     36 H91        -2.0060   -2.3760   -6.4440 hc        1 SB1      0.052700
     37 H92        -2.9400   -3.6100   -7.3720 hc        1 SB1      0.052700
     38 H101       -1.0510   -4.4350   -5.0810 hc        1 SB1      0.050200
     39 H102       -1.7120   -5.4480   -6.4240 hc        1 SB1      0.050200
     40 H111        0.3300   -3.1360   -6.6420 hc        1 SB1      0.040700
     41 H112       -0.4150   -3.9410   -8.0710 hc        1 SB1      0.040700
     42 H121        0.7990   -5.8850   -7.8170 hc        1 SB1      0.040200
     43 H122        0.7400   -5.8420   -6.0160 hc        1 SB1      0.040200
     44 H131        2.4550   -3.8470   -7.6290 hc        1 SB1      0.039700
     45 H132        3.0440   -5.5000   -7.2040 hc        1 SB1      0.039700
     46 H141        1.9750   -3.4350   -5.1620 hc        1 SB1      0.041700
     47 H142        2.6640   -5.0620   -4.7860 hc        1 SB1      0.041700
     48 H151        4.1230   -2.6690   -6.0970 hc        1 SB1      0.040200
     49 H152        4.8290   -4.3240   -5.9490 hc        1 SB1      0.040200
     50 H161        5.6540   -2.9710   -4.1300 hc        1 SB1      0.043200
     51 H162        4.5540   -4.2320   -3.4560 hc        1 SB1      0.043200
     52 H171        3.2850   -1.5460   -4.1470 hc        1 SB1      0.054200
     53 H172        4.4670   -1.5560   -2.7800 hc        1 SB1      0.054200
     54 H181        3.2020   -3.3420   -1.6070 h1        1 SB1      0.068200
     55 H182        2.0070   -3.4450   -3.0040 h1        1 SB1      0.068200
     56 H21         1.2740    0.7360   -1.1960 h1        1 SB1      0.085700
     57 H221        1.9950   -0.0870    1.7230 hc        1 SB1      0.071700
     58 H222        2.9020    1.0550    0.6560 hc        1 SB1      0.071700
     59 H231        1.0080    2.6180    0.5690 hc        1 SB1      0.048200
     60 H232        1.3440    2.2210    2.3010 hc        1 SB1      0.048200
     61 H241       -1.1320    2.2060    1.6740 hc        1 SB1      0.058700
     62 H242       -0.5370    0.6570    2.3960 hc        1 SB1      0.058700
     63 H251       -1.9770    0.1730    0.4520 h1        1 SB1      0.065200
     64 H252       -1.0240    1.3170   -0.6010 h1        1 SB1      0.065200
     65 H261       -4.2900   -3.1170    0.0290 hc        1 SB1      0.054533
     66 H262       -4.0850   -1.8450   -1.2560 hc        1 SB1      0.054533
     67 H263       -4.2270   -3.5880   -1.7280 hc        1 SB1      0.054533
     68 H271       -2.2120   -5.1030   -1.5510 hc        1 SB1      0.054533
     69 H272       -0.8530   -4.6090   -0.4480 hc        1 SB1      0.054533
     70 H273       -2.5130   -4.9120    0.2330 hc        1 SB1      0.054533
@<TRIPOS>BOND
     1    1    2 1   
     2    1   25 1   
     3    1   29 1   
     4    2    3 2   
     5    2    4 1   
     6    4    5 2   
     7    4    6 1   
     8    6    7 1   
     9    6   30 1   
    10    6   31 1   
    11    7    8 1   
    12    7   32 1   
    13    7   33 1   
    14    8    9 1   
    15    9   10 2   
    16    9   11 1   
    17   11   12 1   
    18   11   34 1   
    19   11   35 1   
    20   12   13 1   
    21   12   36 1   
    22   12   37 1   
    23   13   14 1   
    24   13   38 1   
    25   13   39 1   
    26   14   15 1   
    27   14   40 1   
    28   14   41 1   
    29   15   16 1   
    30   15   42 1   
    31   15   43 1   
    32   16   17 1   
    33   16   44 1   
    34   16   45 1   
    35   17   18 1   
    36   17   46 1   
    37   17   47 1   
    38   18   19 1   
    39   18   48 1   
    40   18   49 1   
    41   19   20 1   
    42   19   50 1   
    43   19   51 1   
    44   20   21 1   
    45   20   52 1   
    46   20   53 1   
    47   21   22 1   
    48   21   54 1   
    49   21   55 1   
    50   22   23 1   
    51   23   24 2   
    52   23   25 1   
    53   25   26 1   
    54   25   56 1   
    55   26   27 1   
    56   26   57 1   
    57   26   58 1   
    58   27   28 1   
    59   27   59 1   
    60   27   60 1   
    61   28   29 1   
    62   28   61 1   
    63   28   62 1   
    64   29   63 1   
    65   29   64 1   
    66   30   65 1   
    67   30   66 1   
    68   30   67 1   
    69   31   68 1   
    70   31   69 1   
    71   31   70 1   
@<TRIPOS>SUBSTRUCTURE
     1 SB1         1 TEMP              0 ****  ****    0 ROOT
