@<TRIPOS>MOLECULE
SB1
   70    71     1     0     0
SMALL
bcc


@<TRIPOS>ATOM
      1 N1         -0.2650    0.2950   -2.8500 n         1 SB1     -0.432800
      2 C2          0.1590   -0.9860   -2.4990 c         1 SB1      0.560100
      3 O2         -0.6230   -1.8550   -2.0700 o         1 SB1     -0.568100
      4 C3          1.6570   -1.2800   -2.5190 c         1 SB1      0.529100
      5 O3          2.2280   -1.5510   -3.5740 o         1 SB1     -0.492100
      6 C4          2.3300   -1.2970   -1.1600 c3        1 SB1     -0.152000
      7 C5          1.6510   -0.2660   -0.2460 c3        1 SB1      0.127400
      8 O6          2.2880   -0.2370    1.0340 os        1 SB1     -0.431900
      9 C7          3.1390    0.7990    1.3160 c         1 SB1      0.633100
     10 O7          3.3710    1.6340    0.4400 o         1 SB1     -0.543000
     11 C8          3.6840    0.7550    2.7120 c3        1 SB1     -0.126400
     12 C9          2.6750    1.2720    3.7210 c3        1 SB1     -0.073400
     13 C10         1.7120    0.1880    4.1580 c3        1 SB1     -0.088400
     14 C11         0.4840    0.7720    4.8230 c3        1 SB1     -0.078400
     15 C12        -0.3910   -0.3110    5.4260 c3        1 SB1     -0.078400
     16 C13        -1.8690   -0.0240    5.2630 c3        1 SB1     -0.077400
     17 C14        -2.3520   -0.3730    3.8700 c3        1 SB1     -0.083400
     18 C15        -3.8090   -0.0180    3.6740 c3        1 SB1     -0.079400
     19 C16        -4.3630   -0.5330    2.3610 c3        1 SB1     -0.074400
     20 C17        -3.7410    0.1150    1.1410 c3        1 SB1     -0.108400
     21 C18        -2.6510   -0.7530    0.5400 c3        1 SB1      0.137400
     22 O19        -1.9740   -0.0430   -0.5090 os        1 SB1     -0.434900
     23 C20        -2.4910   -0.1350   -1.7690 c         1 SB1      0.647100
     24 O20        -3.5550   -0.7250   -1.9490 o         1 SB1     -0.530000
     25 C21        -1.6840    0.6360   -2.8030 c3        1 SB1      0.048700
     26 C22        -2.3780    0.5140   -4.1700 c3        1 SB1     -0.099400
     27 C23        -1.6450    1.3390   -5.2060 c3        1 SB1     -0.080400
     28 C24        -0.1700    0.9970   -5.2480 c3        1 SB1     -0.108400
     29 C25         0.4540    1.0640   -3.8520 c3        1 SB1      0.076000
     30 C26         3.8060   -0.9690   -1.3170 c3        1 SB1     -0.092600
     31 C27         2.1610   -2.6960   -0.5770 c3        1 SB1     -0.092600
     32 H51         1.6640    0.7490   -0.7240 h1        1 SB1      0.084200
     33 H52         0.5930   -0.5770   -0.0170 h1        1 SB1      0.084200
     34 H81         3.9760   -0.2990    2.9610 hc        1 SB1      0.077700
     35 H82         4.6060    1.3960    2.7300 hc        1 SB1      0.077700
     36 H91         3.2290    1.6620    4.6150 hc        1 SB1      0.052700
     37 H92         2.1090    2.1350    3.2810 hc        1 SB1      0.052700
     38 H101        1.3990   -0.4160    3.2630 hc        1 SB1      0.050200
     39 H102        2.2320   -0.5120    4.8640 hc        1 SB1      0.050200
     40 H111        0.7940    1.4930    5.6240 hc        1 SB1      0.040700
     41 H112       -0.0960    1.3600    4.0630 hc        1 SB1      0.040700
     42 H121       -0.1560   -1.3020    4.9540 hc        1 SB1      0.040200
     43 H122       -0.1540   -0.4090    6.5190 hc        1 SB1      0.040200
     44 H131       -2.4470   -0.6240    6.0140 hc        1 SB1      0.039700
     45 H132       -2.0740    1.0580    5.4750 hc        1 SB1      0.039700
     46 H141       -1.7310    0.1740    3.1120 hc        1 SB1      0.041700
     47 H142       -2.2050   -1.4710    3.6900 hc        1 SB1      0.041700
     48 H151       -4.4130   -0.4560    4.5140 hc        1 SB1      0.040200
     49 H152       -3.9330    1.0960    3.7250 hc        1 SB1      0.040200
     50 H161       -4.2300   -1.6460    2.3110 hc        1 SB1      0.043200
     51 H162       -5.4690   -0.3350    2.3480 hc        1 SB1      0.043200
     52 H171       -4.5270    0.2820    0.3570 hc        1 SB1      0.054200
     53 H172       -3.3150    1.1180    1.4050 hc        1 SB1      0.054200
     54 H181       -1.8290   -0.9590    1.2770 h1        1 SB1      0.068200
     55 H182       -3.0690   -1.7160    0.1470 h1        1 SB1      0.068200
     56 H21        -1.7230    1.7230   -2.4760 h1        1 SB1      0.085700
     57 H221       -2.4160   -0.5630   -4.4780 hc        1 SB1      0.071700
     58 H222       -3.4360    0.8690   -4.0630 hc        1 SB1      0.071700
     59 H231       -2.1010    1.1600   -6.2140 hc        1 SB1      0.048200
     60 H232       -1.7680    2.4290   -4.9710 hc        1 SB1      0.048200
     61 H241       -0.0300   -0.0290   -5.6770 hc        1 SB1      0.058700
     62 H242        0.3730    1.7200   -5.9100 hc        1 SB1      0.058700
     63 H251        1.5220    0.7140   -3.9080 h1        1 SB1      0.065200
     64 H252        0.4560    2.1360   -3.5020 h1        1 SB1      0.065200
     65 H261        4.2710   -1.6290   -2.0880 hc        1 SB1      0.054533
     66 H262        3.9360    0.0980   -1.6210 hc        1 SB1      0.054533
     67 H263        4.3260   -1.1220   -0.3400 hc        1 SB1      0.054533
     68 H271        2.7460   -3.4360   -1.1730 hc        1 SB1      0.054533
     69 H272        2.5300   -2.7010    0.4770 hc        1 SB1      0.054533
     70 H273        1.0830   -2.9900   -0.5860 hc        1 SB1      0.054533
@<TRIPOS>BOND
     1    1    2 1   
     2    1   25 1   
     3    1   29 1   
     4    2    3 2   
     5    2    4 1   
     6    4    5 2   
     7    4    6 1   
     8    6    7 1   
     9    6   30 1   
    10    6   31 1   
    11    7    8 1   
    12    7   32 1   
    13    7   33 1   
    14    8    9 1   
    15    9   10 2   
    16    9   11 1   
    17   11   12 1   
    18   11   34 1   
    19   11   35 1   
    20   12   13 1   
    21   12   36 1   
    22   12   37 1   
    23   13   14 1   
    24   13   38 1   
    25   13   39 1   
    26   14   15 1   
    27   14   40 1   
    28   14   41 1   
    29   15   16 1   
    30   15   42 1   
    31   15   43 1   
    32   16   17 1   
    33   16   44 1   
    34   16   45 1   
    35   17   18 1   
    36   17   46 1   
    37   17   47 1   
    38   18   19 1   
    39   18   48 1   
    40   18   49 1   
    41   19   20 1   
    42   19   50 1   
    43   19   51 1   
    44   20   21 1   
    45   20   52 1   
    46   20   53 1   
    47   21   22 1   
    48   21   54 1   
    49   21   55 1   
    50   22   23 1   
    51   23   24 2   
    52   23   25 1   
    53   25   26 1   
    54   25   56 1   
    55   26   27 1   
    56   26   57 1   
    57   26   58 1   
    58   27   28 1   
    59   27   59 1   
    60   27   60 1   
    61   28   29 1   
    62   28   61 1   
    63   28   62 1   
    64   29   63 1   
    65   29   64 1   
    66   30   65 1   
    67   30   66 1   
    68   30   67 1   
    69   31   68 1   
    70   31   69 1   
    71   31   70 1   
@<TRIPOS>SUBSTRUCTURE
     1 SB1         1 TEMP              0 ****  ****    0 ROOT
