@<TRIPOS>MOLECULE
SB1
   70    71     1     0     0
SMALL
bcc


@<TRIPOS>ATOM
      1 N1         -0.0860   -0.4570   -0.2030 n         1 SB1     -0.432800
      2 C2         -0.3360   -1.7790    0.1630 c         1 SB1      0.560100
      3 O2          0.5720   -2.6230    0.2840 o         1 SB1     -0.568100
      4 C3         -1.7890   -2.2300    0.2870 c         1 SB1      0.529100
      5 O3         -2.4340   -1.9910    1.3060 o         1 SB1     -0.492100
      6 C4         -2.3130   -3.0470   -0.8790 c3        1 SB1     -0.152000
      7 C5         -1.6550   -2.5560   -2.1770 c3        1 SB1      0.127400
      8 O6         -2.1560   -3.2880   -3.2990 os        1 SB1     -0.431900
      9 C7         -3.0760   -2.6830   -4.1140 c         1 SB1      0.633100
     10 O7         -3.4830   -1.5570   -3.8210 o         1 SB1     -0.543000
     11 C8         -3.4670   -3.5230   -5.2930 c3        1 SB1     -0.126400
     12 C9         -2.4190   -3.4680   -6.3890 c3        1 SB1     -0.073400
     13 C10        -1.3090   -4.4720   -6.1540 c3        1 SB1     -0.088400
     14 C11        -0.0860   -4.1510   -6.9870 c3        1 SB1     -0.078400
     15 C12         0.9530   -5.2520   -6.8970 c3        1 SB1     -0.078400
     16 C13         2.3700   -4.7140   -6.8620 c3        1 SB1     -0.077400
     17 C14         2.7400   -4.2150   -5.4810 c3        1 SB1     -0.083400
     18 C15         4.1250   -3.6070   -5.4550 c3        1 SB1     -0.079400
     19 C16         4.5910   -3.2790   -4.0510 c3        1 SB1     -0.074400
     20 C17         3.7830   -2.1880   -3.3800 c3        1 SB1     -0.108400
     21 C18         2.7320   -2.7620   -2.4460 c3        1 SB1      0.137400
     22 O19         1.8810   -1.7150   -1.9540 os        1 SB1     -0.434900
     23 C20         2.2720   -1.0640   -0.8200 c         1 SB1      0.647100
     24 O20         3.3680   -1.3160   -0.3210 o         1 SB1     -0.530000
     25 C21         1.2880    0.0080   -0.3770 c3        1 SB1      0.048700
     26 C22         1.8470    0.7150    0.8700 c3        1 SB1     -0.099400
     27 C23         0.9290    1.8430    1.2880 c3        1 SB1     -0.080400
     28 C24        -0.4990    1.3670    1.4560 c3        1 SB1     -0.108400
     29 C25        -0.9790    0.6090    0.2170 c3        1 SB1      0.076000
     30 C26        -3.8240   -2.8990   -0.9680 c3        1 SB1     -0.092600
     31 C27        -1.9410   -4.5030   -0.6290 c3        1 SB1     -0.092600
     32 H51        -1.8220   -1.4550   -2.3100 h1        1 SB1      0.084200
     33 H52        -0.5520   -2.7870   -2.1720 h1        1 SB1      0.084200
     34 H81        -4.4440   -3.1240   -5.6770 hc        1 SB1      0.077700
     35 H82        -3.6220   -4.5820   -4.9560 hc        1 SB1      0.077700
     36 H91        -1.9940   -2.4320   -6.4530 hc        1 SB1      0.052700
     37 H92        -2.9160   -3.6830   -7.3720 hc        1 SB1      0.052700
     38 H101       -1.6780   -5.5020   -6.4010 hc        1 SB1      0.050200
     39 H102       -1.0280   -4.4700   -5.0660 hc        1 SB1      0.050200
     40 H111       -0.3860   -4.0030   -8.0580 hc        1 SB1      0.040700
     41 H112        0.3490   -3.1770   -6.6340 hc        1 SB1      0.040700
     42 H121        0.8420   -5.9350   -7.7800 hc        1 SB1      0.040200
     43 H122        0.7760   -5.8740   -5.9800 hc        1 SB1      0.040200
     44 H131        2.4820   -3.8840   -7.6080 hc        1 SB1      0.039700
     45 H132        3.0810   -5.5280   -7.1630 hc        1 SB1      0.039700
     46 H141        2.6900   -5.0680   -4.7520 hc        1 SB1      0.041700
     47 H142        1.9900   -3.4490   -5.1470 hc        1 SB1      0.041700
     48 H151        4.1360   -2.6780   -6.0830 hc        1 SB1      0.040200
     49 H152        4.8540   -4.3270   -5.9150 hc        1 SB1      0.040200
     50 H161        5.6630   -2.9490   -4.1080 hc        1 SB1      0.043200
     51 H162        4.5700   -4.2100   -3.4240 hc        1 SB1      0.043200
     52 H171        4.4620   -1.5280   -2.7770 hc        1 SB1      0.054200
     53 H172        3.2840   -1.5410   -4.1480 hc        1 SB1      0.054200
     54 H181        3.2050   -3.3090   -1.5890 h1        1 SB1      0.068200
     55 H182        2.0160   -3.4360   -2.9890 h1        1 SB1      0.068200
     56 H21         1.2470    0.7590   -1.2280 h1        1 SB1      0.085700
     57 H221        1.9640   -0.0280    1.7020 hc        1 SB1      0.071700
     58 H222        2.8670    1.1090    0.6260 hc        1 SB1      0.071700
     59 H231        0.9620    2.6570    0.5160 hc        1 SB1      0.048200
     60 H232        1.2950    2.2820    2.2530 hc        1 SB1      0.048200
     61 H241       -0.5750    0.7060    2.3580 hc        1 SB1      0.058700
     62 H242       -1.1790    2.2430    1.6180 hc        1 SB1      0.058700
     63 H251       -1.0570    1.3300   -0.6470 h1        1 SB1      0.065200
     64 H252       -2.0060    0.1910    0.4140 h1        1 SB1      0.065200
     65 H261       -4.2940   -3.1200    0.0200 hc        1 SB1      0.054533
     66 H262       -4.2220   -3.6100   -1.7320 hc        1 SB1      0.054533
     67 H263       -4.0940   -1.8600   -1.2790 hc        1 SB1      0.054533
     68 H271       -2.1970   -5.1080   -1.5320 hc        1 SB1      0.054533
     69 H272       -2.5050   -4.9000    0.2490 hc        1 SB1      0.054533
     70 H273       -0.8450   -4.5930   -0.4300 hc        1 SB1      0.054533
@<TRIPOS>BOND
     1    1    2 1   
     2    1   25 1   
     3    1   29 1   
     4    2    3 2   
     5    2    4 1   
     6    4    5 2   
     7    4    6 1   
     8    6    7 1   
     9    6   30 1   
    10    6   31 1   
    11    7    8 1   
    12    7   32 1   
    13    7   33 1   
    14    8    9 1   
    15    9   10 2   
    16    9   11 1   
    17   11   12 1   
    18   11   34 1   
    19   11   35 1   
    20   12   13 1   
    21   12   36 1   
    22   12   37 1   
    23   13   14 1   
    24   13   38 1   
    25   13   39 1   
    26   14   15 1   
    27   14   40 1   
    28   14   41 1   
    29   15   16 1   
    30   15   42 1   
    31   15   43 1   
    32   16   17 1   
    33   16   44 1   
    34   16   45 1   
    35   17   18 1   
    36   17   46 1   
    37   17   47 1   
    38   18   19 1   
    39   18   48 1   
    40   18   49 1   
    41   19   20 1   
    42   19   50 1   
    43   19   51 1   
    44   20   21 1   
    45   20   52 1   
    46   20   53 1   
    47   21   22 1   
    48   21   54 1   
    49   21   55 1   
    50   22   23 1   
    51   23   24 2   
    52   23   25 1   
    53   25   26 1   
    54   25   56 1   
    55   26   27 1   
    56   26   57 1   
    57   26   58 1   
    58   27   28 1   
    59   27   59 1   
    60   27   60 1   
    61   28   29 1   
    62   28   61 1   
    63   28   62 1   
    64   29   63 1   
    65   29   64 1   
    66   30   65 1   
    67   30   66 1   
    68   30   67 1   
    69   31   68 1   
    70   31   69 1   
    71   31   70 1   
@<TRIPOS>SUBSTRUCTURE
     1 SB1         1 TEMP              0 ****  ****    0 ROOT
