@<TRIPOS>MOLECULE
SB2
   43    46     1     0     0
SMALL
bcc


@<TRIPOS>ATOM
      1 O2          7.0470    1.2760   -0.7590 o         1 SB2     -0.507200
      2 C1          7.0980    0.0190    1.4870 c3        1 SB2     -0.128800
      3 S1          6.6540   -0.0450   -0.1940 sx        1 SB2      0.326400
      4 CA1         2.7970    1.0080   -0.5470 ca        1 SB2     -0.125000
      5 CA2         4.1910    1.0460   -0.5580 ca        1 SB2     -0.058500
      6 CA3         4.9420   -0.0300   -0.0780 ca        1 SB2     -0.121500
      7 CA4         4.2730   -1.1460    0.4320 ca        1 SB2     -0.058500
      8 CA5         2.8830   -1.1970    0.4540 ca        1 SB2     -0.125000
      9 CA6         2.1360   -0.1180   -0.0420 ca        1 SB2     -0.088500
     10 NB1        -4.5380   -3.9040   -0.4380 nb        1 SB2     -0.658000
     11 CB2        -4.6410   -2.6880   -1.0090 ca        1 SB2      0.396700
     12 CB3        -3.6490   -1.6970   -0.9170 ca        1 SB2     -0.238300
     13 CB4        -2.4820   -1.9790   -0.1900 ca        1 SB2      0.021000
     14 CB5        -2.3630   -3.2420    0.4120 ca        1 SB2     -0.238300
     15 CB6        -3.4140   -4.1620    0.2590 ca        1 SB2      0.396700
     16 NC1        -0.0670   -1.3430   -0.1060 na        1 SB2     -0.297900
     17 CC2         0.6730   -0.1530   -0.0310 cc        1 SB2      0.459000
     18 NC3        -0.1540    0.9250    0.0520 nd        1 SB2     -0.643000
     19 CC4        -1.4580    0.4230    0.0260 cd        1 SB2      0.388800
     20 CC5        -1.4230   -0.9960   -0.0840 cc        1 SB2     -0.155600
     21 CD1        -3.7430    0.8790    0.8730 ca        1 SB2     -0.084500
     22 CD2        -4.8550    1.7040    0.9900 ca        1 SB2     -0.171500
     23 CD3        -4.8560    2.9610    0.3560 ca        1 SB2      0.129900
     24 CD4        -3.7370    3.3780   -0.3880 ca        1 SB2     -0.171500
     25 CD5        -2.6310    2.5410   -0.4930 ca        1 SB2     -0.084500
     26 CD6        -2.6250    1.2840    0.1290 ca        1 SB2     -0.131500
     27 H11         6.9590    1.0240    1.9500 h1        1 SB2      0.085700
     28 H12         6.5200   -0.7170    2.0880 h1        1 SB2      0.085700
     29 H13         8.1820   -0.2330    1.5710 h1        1 SB2      0.085700
     30 HA1         2.2210    1.8670   -0.9270 ha        1 SB2      0.146000
     31 HA2         4.7180    1.9350   -0.9530 ha        1 SB2      0.150500
     32 HA4         4.8500   -1.9980    0.8280 ha        1 SB2      0.150500
     33 HA5         2.3830   -2.0800    0.8790 ha        1 SB2      0.146000
     34 HB2        -5.5720   -2.4990   -1.5740 h4        1 SB2      0.027100
     35 HB3        -3.7850   -0.7180   -1.3980 ha        1 SB2      0.150500
     36 HB5        -1.4810   -3.5120    1.0060 ha        1 SB2      0.150500
     37 HB6        -3.3560   -5.1640    0.7210 h4        1 SB2      0.027100
     38 HN1         0.2930   -2.2540   -0.2160 hn        1 SB2      0.307700
     39 HD1        -3.7380   -0.1040    1.3700 ha        1 SB2      0.149000
     40 HD2        -5.7300    1.3880    1.5760 ha        1 SB2      0.150500
     41 HD4        -3.7440    4.3630   -0.8750 ha        1 SB2      0.150500
     42 HD5        -1.7520    2.8740   -1.0670 ha        1 SB2      0.149000
     43 FD3        -5.9360    3.7700    0.4640 f         1 SB2     -0.139900
@<TRIPOS>BOND
     1    1    3 2   
     2    2    3 1   
     3    2   27 1   
     4    2   28 1   
     5    2   29 1   
     6    3    6 1   
     7    4    5 ar  
     8    4    9 ar  
     9    4   30 1   
    10    5    6 ar  
    11    5   31 1   
    12    6    7 ar  
    13    7    8 ar  
    14    7   32 1   
    15    8    9 ar  
    16    8   33 1   
    17    9   17 1   
    18   10   11 ar  
    19   10   15 ar  
    20   11   12 ar  
    21   11   34 1   
    22   12   13 ar  
    23   12   35 1   
    24   13   14 ar  
    25   13   20 1   
    26   14   15 ar  
    27   14   36 1   
    28   15   37 1   
    29   16   17 1   
    30   16   20 1   
    31   16   38 1   
    32   17   18 2   
    33   18   19 1   
    34   19   20 2   
    35   19   26 1   
    36   21   22 ar  
    37   21   26 ar  
    38   21   39 1   
    39   22   23 ar  
    40   22   40 1   
    41   23   24 ar  
    42   23   43 1   
    43   24   25 ar  
    44   24   41 1   
    45   25   26 ar  
    46   25   42 1   
@<TRIPOS>SUBSTRUCTURE
     1 SB2         1 TEMP              0 ****  ****    0 ROOT
