@<TRIPOS>MOLECULE
SB2
   43    45     1     0     0
SMALL
bcc


@<TRIPOS>ATOM
      1 O2          0.3280    0.2440   -0.0800 o         1 SB2     -0.491200
      2 C1          2.4100    1.6980    0.2950 c3        1 SB2     -0.138800
      3 S1          1.7850    0.0880    0.1570 s4        1 SB2      0.285600
      4 CA1         1.5760    0.5900    4.0810 ce        1 SB2     -0.116000
      5 CA2         1.1440    0.3250    2.8260 c2        1 SB2     -0.132200
      6 CA3         1.9020   -0.5110    1.8370 c3        1 SB2     -0.012000
      7 CA4         3.3510   -0.5700    2.2170 c2        1 SB2     -0.150300
      8 CA5         3.5360   -0.5330    3.5280 c1        1 SB2     -0.070800
      9 CA6         2.7470   -0.1680    4.5490 ce        1 SB2     -0.102700
     10 NB1         6.5510   -3.8790   10.0930 n1        1 SB2     -1.045500
     11 CB2         5.6410   -3.1030   10.6520 ce        1 SB2      0.571700
     12 CB3         4.6940   -2.2870    9.9230 cf        1 SB2     -0.247000
     13 CB4         4.7150   -2.3070    8.5590 cf        1 SB2      0.044800
     14 CB5         5.7400   -3.1440    7.8730 c3        1 SB2     -0.221100
     15 CB6         6.6630   -3.9310    8.7430 c1        1 SB2      0.345700
     16 NC1         3.9430   -1.3720    6.3740 na        1 SB2     -0.247300
     17 CC2         2.8870   -0.5670    5.9310 cc        1 SB2      0.392600
     18 NC3         2.0600   -0.2320    6.9680 nc        1 SB2     -0.625000
     19 CC4         2.5970   -0.8390    8.0970 cd        1 SB2      0.433900
     20 CC5         3.7870   -1.5540    7.7540 cd        1 SB2     -0.202700
     21 CD1         1.8670    0.4910   10.0010 ce        1 SB2     -0.055000
     22 CD2         1.2770    0.8230   11.2700 ce        1 SB2     -0.211000
     23 CD3         0.3320    0.0940   11.9030 c2        1 SB2      0.093500
     24 CD4         1.0090   -2.9560   10.3700 c1        1 SB2     -0.130500
     25 CD5         1.4490   -1.9250    9.9460 ch        1 SB2     -0.167300
     26 CD6         1.9580   -0.7250    9.4120 cf        1 SB2     -0.009300
     27 H11         3.4340    1.6940    0.7340 h1        1 SB2      0.092700
     28 H12         1.7800    2.3790    0.9130 h1        1 SB2      0.092700
     29 H13         2.4690    2.1470   -0.7250 h1        1 SB2      0.092700
     30 HA1         0.1680    0.6900    2.4640 ha        1 SB2      0.167000
     31 HA2         1.0370    1.2360    4.7860 ha        1 SB2      0.168000
     32 HA4         1.4140   -1.5280    1.8170 h1        1 SB2      0.126700
     33 HA5         4.1290   -0.5410    1.4480 ha        1 SB2      0.151000
     34 HB2         3.9710   -1.6830   10.4910 ha        1 SB2      0.161000
     35 HB3         5.5970   -3.0780   11.7590 h4        1 SB2      0.157000
     36 HB5         6.4100   -2.4990    7.2330 hc        1 SB2      0.118200
     37 HB6         5.2400   -3.8840    7.1850 hc        1 SB2      0.118200
     38 HN1         4.6690   -1.7380    5.8120 hn        1 SB2      0.318700
     39 HD1         2.3070    1.3580    9.4700 ha        1 SB2      0.145000
     40 HD2         1.6290    1.7690   11.7200 ha        1 SB2      0.145000
     41 HD4        -0.0930   -0.8500   11.5140 h4        1 SB2      0.158000
     42 HD5         0.6230   -3.8690   10.7470 ha        1 SB2      0.171500
     43 FD3        -0.1940    0.4720   13.0850 f         1 SB2     -0.173500
@<TRIPOS>BOND
     1    1    3 2   
     2    2    3 1   
     3    2   27 1   
     4    2   28 1   
     5    2   29 1   
     6    3    6 1   
     7    4    5 2   
     8    4    9 1   
     9    4   31 1   
    10    5    6 1   
    11    5   30 1   
    12    6    7 1   
    13    6   32 1   
    14    7    8 2   
    15    7   33 1   
    16    8    9 2   
    17    9   17 1   
    18   10   11 1   
    19   10   15 3   
    20   11   12 2   
    21   11   35 1   
    22   12   13 1   
    23   12   34 1   
    24   13   14 1   
    25   13   20 2   
    26   14   15 1   
    27   14   36 1   
    28   14   37 1   
    29   16   17 2   
    30   16   20 1   
    31   16   38 1   
    32   17   18 1   
    33   18   19 2   
    34   19   20 1   
    35   19   26 1   
    36   21   22 1   
    37   21   26 2   
    38   21   39 1   
    39   22   23 2   
    40   22   40 1   
    41   23   41 1   
    42   23   43 1   
    43   24   25 3   
    44   24   42 1   
    45   25   26 1   
@<TRIPOS>SUBSTRUCTURE
     1 SB2         1 TEMP              0 ****  ****    0 ROOT
