@<TRIPOS>MOLECULE
SB2
   43    44     1     0     0
SMALL
bcc


@<TRIPOS>ATOM
      1 O2          1.9690    0.5440    0.4790 o         1 SB2     -0.774000
      2 C1          3.2870   -1.5670   -0.1510 c3        1 SB2     -0.685000
      3 S1          1.9850   -0.9050    0.7910 s4        1 SB2      1.546000
      4 CA1         0.8680    1.0250    4.4810 c2        1 SB2     -0.120000
      5 CA2         0.6720    1.6880    3.3380 c2        1 SB2     -0.218000
      6 CA3         2.5860   -1.0920    2.3220 cu        1 SB2     -0.598000
      7 CA4         3.3300   -1.7300    3.2450 cu        1 SB2      0.002000
      8 CA5         2.4480   -0.7070    3.7160 cu        1 SB2     -0.051000
      9 CA6         1.8870    0.0100    4.6850 c2        1 SB2     -0.022000
     10 NB1         5.3240   -2.9070    6.7210 n2        1 SB2     -0.333000
     11 CB2         5.6710   -2.9340    8.0900 c3        1 SB2     -0.022000
     12 CB3         5.5340   -1.7600    8.9260 c1        1 SB2     -0.059000
     13 CB4         4.8820   -0.5310    8.6530 c2        1 SB2     -0.101000
     14 CB5         5.3710    0.5920    9.2320 c2        1 SB2     -0.060000
     15 CB6         5.0610   -2.8910    5.5720 c1        1 SB2      0.056000
     16 NC1         3.6380   -0.2450    6.4780 na        1 SB2     -0.187000
     17 CC2         2.2890   -0.2310    6.0790 c2        1 SB2      0.028000
     18 NC3         1.4670   -0.4460    7.1380 n2        1 SB2     -0.114000
     19 CC4         2.3010   -0.5960    8.2520 c2        1 SB2     -0.063000
     20 CC5         3.6590   -0.4710    7.8570 c2        1 SB2     -0.110000
     21 CD1         2.3360   -0.2620   10.6730 c2        1 SB2     -0.093000
     22 CD2         1.9730   -0.4000   12.0580 c2        1 SB2     -0.196000
     23 CD3         0.7690   -0.8150   12.5120 c2        1 SB2      0.018000
     24 CD4        -0.2090   -2.5450    9.6730 c1        1 SB2     -0.193000
     25 CD5         0.7030   -1.7680    9.6550 c1        1 SB2     -0.118000
     26 CD6         1.7830   -0.8640    9.5930 c2        1 SB2      0.080000
     27 H11         4.1830   -0.9080   -0.2130 h1        1 SB2      0.126333
     28 H12         2.9190   -1.7150   -1.1950 h1        1 SB2      0.126333
     29 H13         3.6150   -2.5550    0.2430 h1        1 SB2      0.126333
     30 HA1        -0.1170    2.4460    3.2460 ha        1 SB2      0.128500
     31 HA2         0.2390    1.2320    5.3660 ha        1 SB2      0.143000
     32 HA4         1.2750    1.5320    2.4310 ha        1 SB2      0.128500
     33 HA5         4.0670   -2.4680    3.5210 ha        1 SB2      0.232000
     34 HB2         5.0570   -3.7390    8.6160 h1        1 SB2      0.157500
     35 HB3         6.7610   -3.2540    8.1650 h1        1 SB2      0.157500
     36 HB5         6.2470    0.5610    9.8970 ha        1 SB2      0.135000
     37 HB6         4.9390    1.5840    9.0380 ha        1 SB2      0.135000
     38 HN1         4.4220   -0.1490    5.8880 hn        1 SB2      0.256000
     39 HD1         3.1950    0.4170   10.5020 ha        1 SB2      0.130000
     40 HD2         2.7580   -0.1150   12.7810 ha        1 SB2      0.140000
     41 HD4        -0.0780   -1.1010   11.8640 h4        1 SB2      0.159000
     42 HD5        -1.0170   -3.2300    9.6870 ha        1 SB2      0.225000
     43 FD3         0.4940   -0.9040   13.8290 f         1 SB2     -0.117000
@<TRIPOS>BOND
     1    1    3 1   
     2    2    3 1   
     3    2   27 1   
     4    2   28 1   
     5    2   29 1   
     6    3    6 1   
     7    4    5 1   
     8    4    9 1   
     9    4   31 1   
    10    5   30 1   
    11    5   32 1   
    12    6    7 1   
    13    6    8 1   
    14    7    8 1   
    15    7   33 1   
    16    8    9 1   
    17    9   17 1   
    18   10   11 1   
    19   10   15 1   
    20   11   12 1   
    21   11   34 1   
    22   11   35 1   
    23   12   13 1   
    24   13   14 1   
    25   13   20 1   
    26   14   36 1   
    27   14   37 1   
    28   16   17 1   
    29   16   20 1   
    30   16   38 1   
    31   17   18 1   
    32   18   19 1   
    33   19   20 1   
    34   19   26 1   
    35   21   22 1   
    36   21   26 1   
    37   21   39 1   
    38   22   23 1   
    39   22   40 1   
    40   23   41 1   
    41   23   43 1   
    42   24   25 1   
    43   24   42 1   
    44   25   26 1   
@<TRIPOS>SUBSTRUCTURE
     1 SB2         1 TEMP              0 ****  ****    0 ROOT
