@<TRIPOS>MOLECULE
SB2
   43    35     1     0     0
SMALL
bcc


@<TRIPOS>ATOM
      1 O2         -2.8810    4.5110   -4.8700 o         1 SB2     -0.778000
      2 C1         -3.0230    2.2990   -6.5560 c3        1 SB2     -0.674000
      3 S1         -2.5910    3.1150   -5.0420 s4        1 SB2      1.456000
      4 CA1         0.1790    1.5260   -2.5780 c1        1 SB2     -0.164500
      5 CA2        -0.4300    2.1500   -3.6560 c1        1 SB2     -0.066000
      6 CA3        -1.8140    2.2030   -3.7350 c2        1 SB2     -0.550000
      7 CA4        -2.5870    1.6330   -2.7350 c2        1 SB2     -0.052000
      8 CA5        -1.9770    1.0100   -1.6570 c1        1 SB2     -0.105000
      9 CA6        -0.5940    0.9570   -1.5790 c1        1 SB2      0.020000
     10 NB1         1.3040   -5.1830    1.6060 n1        1 SB2     -0.132000
     11 CB2         0.1540   -4.5810    2.0240 c1        1 SB2     -0.123750
     12 CB3        -0.0330   -3.2240    1.8150 c1        1 SB2     -0.123750
     13 CB4         0.9340   -2.4900    1.1910 c1        1 SB2      0.020000
     14 CB5         2.0840   -3.0940    0.7730 c1        1 SB2     -0.164500
     15 CB6         2.2700   -4.4510    0.9830 c1        1 SB2     -0.069000
     16 NC1         0.2000   -0.9650   -0.2950 n2        1 SB2     -0.184000
     17 CC2        -0.0330    0.3600   -0.4580 c1        1 SB2      0.000000
     18 NC3         0.3490    0.9960    0.6760 n2        1 SB2     -0.117000
     19 CC4         0.8130    0.0780    1.5290 c2        1 SB2     -0.047000
     20 CC5         0.7200   -1.1460    0.9240 c1        1 SB2     -0.066000
     21 CD1         0.1800    0.4660    3.6850 c1        1 SB2     -0.074000
     22 CD2         0.3950    0.8500    5.0000 c1        1 SB2     -0.172000
     23 CD3         1.6840    1.0850    5.4520 c1        1 SB2      0.095000
     24 CD4         2.7590    0.9360    4.5890 c1        1 SB2     -0.123750
     25 CD5         2.5440    0.5510    3.2740 c1        1 SB2     -0.123750
     26 CD6         1.2550    0.3160    2.8220 c1        1 SB2     -0.024000
     27 FD3         1.8880    1.4970    6.7100 f         1 SB2     -0.105000
     28 H11        -2.2580    2.3200   -7.1690 h1        1 SB2      0.124333
     29 H12        -3.7840    2.7580   -6.9690 h1        1 SB2      0.124333
     30 H13        -3.2650    1.3680   -6.3680 h1        1 SB2      0.124333
     31 HA1         1.1530    1.4890   -2.5230 ha        1 SB2      0.135000
     32 HA2         0.1150    2.5510   -4.3600 ha        1 SB2      0.130000
     33 HA4        -3.5610    1.6700   -2.7900 ha        1 SB2      0.171000
     34 HA5        -2.5210    0.6080   -0.9540 ha        1 SB2      0.162000
     35 HB2        -0.5370   -5.1060    2.4700 ha        1 SB2      0.155250
     36 HB3        -0.8570   -2.7930    2.1140 ha        1 SB2      0.155250
     37 HB5         2.7770   -2.5690    0.3270 ha        1 SB2      0.135000
     38 HB6         3.0920   -4.8830    0.6850 ha        1 SB2      0.162000
     39 HN1         0.0200   -1.6210   -0.9030 DU        1 SB2      0.258000
     40 HD1        -0.7280    0.3000    3.3670 ha        1 SB2      0.154000
     41 HD2        -0.3620    0.9550    5.6070 ha        1 SB2      0.151000
     42 HD4         3.6660    1.1010    4.9070 ha        1 SB2      0.155250
     43 HD5         3.3010    0.4460    2.6670 ha        1 SB2      0.155250
@<TRIPOS>BOND
     1    1    3 1   
     2    2    3 1   
     3    2   28 1   
     4    2   29 1   
     5    2   30 1   
     6    3    6 1   
     7    4    9 1   
     8    4   31 1   
     9    5    6 1   
    10    5   32 1   
    11    6    7 1   
    12    7    8 1   
    13    7   33 1   
    14    8   34 1   
    15   10   15 1   
    16   11   12 1   
    17   11   35 1   
    18   12   36 1   
    19   13   14 1   
    20   14   37 1   
    21   15   38 1   
    22   16   17 1   
    23   16   20 1   
    24   17   18 1   
    25   18   19 1   
    26   19   20 1   
    27   19   26 1   
    28   21   26 1   
    29   21   40 1   
    30   22   23 1   
    31   22   41 1   
    32   23   27 1   
    33   24   25 1   
    34   24   42 1   
    35   25   43 1   
@<TRIPOS>SUBSTRUCTURE
     1 SB2         1 TEMP              0 ****  ****    0 ROOT
