@<TRIPOS>MOLECULE
SB3
   68    70     1     0     0
SMALL
bcc


@<TRIPOS>ATOM
      1 C1         -0.2020   -0.1240    0.6470 c         1 SB3      0.653100
      2 C2          1.2840    0.1110    0.4020 c3        1 SB3      0.053700
      3 C3          2.0190    0.0040    1.7500 c3        1 SB3     -0.101400
      4 C4          3.5090    0.1910    1.5620 c3        1 SB3     -0.079400
      5 C5          3.8170    1.4670    0.8070 c3        1 SB3     -0.108400
      6 C6          3.0170    1.5390   -0.4950 c3        1 SB3      0.081000
      7 N7          1.5890    1.3420   -0.3190 n         1 SB3     -0.434800
      8 O1         -0.8040   -0.0670    1.7180 o         1 SB3     -0.527000
      9 O2         -0.8370   -0.5560   -0.4800 os        1 SB3     -0.433900
     10 C8          0.7130    2.4230   -0.2910 c         1 SB3      0.566100
     11 O3         -0.4510    2.3160    0.1380 o         1 SB3     -0.566100
     12 C9          1.1690    3.7560   -0.8820 c         1 SB3      0.524100
     13 O4          1.9100    4.4920   -0.2340 o         1 SB3     -0.500100
     14 C10         0.5850    4.1080   -2.2410 c3        1 SB3     -0.128000
     15 C11         1.4900    5.1520   -2.9000 c3        1 SB3     -0.074400
     16 C12         0.9270    5.7410   -4.1660 c3        1 SB3     -0.091100
     17 C13        -0.8130    4.6670   -2.0040 c3        1 SB3     -0.096100
     18 C14         0.5010    2.8540   -3.0980 c3        1 SB3     -0.096100
     19 C15        -2.2670   -0.7730   -0.4180 c3        1 SB3      0.193400
     20 C16        -2.5230   -2.2780   -0.3350 c3        1 SB3     -0.091400
     21 C17        -2.3960   -2.7860    1.0880 c3        1 SB3     -0.041100
     22 C18        -2.4880   -4.2700    1.1550 ca        1 SB3     -0.074300
     23 C19        -1.4510   -5.0640    0.6510 ca        1 SB3     -0.128000
     24 C20        -1.5280   -6.4540    0.7230 ca        1 SB3     -0.128500
     25 C21        -2.6430   -7.0630    1.2990 ca        1 SB3     -0.134000
     26 C22        -3.6790   -6.2780    1.8040 ca        1 SB3     -0.128500
     27 C23        -3.6030   -4.8880    1.7330 ca        1 SB3     -0.128000
     28 C24        -2.8490   -0.2040   -1.6790 ca        1 SB3     -0.091300
     29 C25        -2.2950   -0.5150   -2.9250 ca        1 SB3     -0.107500
     30 C26        -2.8620   -0.0040   -4.0910 ca        1 SB3     -0.136000
     31 C27        -3.9840    0.8220   -4.0180 ca        1 SB3     -0.126000
     32 C28        -4.5340    1.1410   -2.7770 ca        1 SB3     -0.136000
     33 C29        -3.9670    0.6340   -1.6080 ca        1 SB3     -0.107500
     34 H2          1.6390   -0.7330   -0.2700 h1        1 SB3      0.083700
     35 H31         1.6110    0.7710    2.4600 hc        1 SB3      0.070200
     36 H32         1.8060   -1.0050    2.1880 hc        1 SB3      0.070200
     37 H41         4.0090    0.2160    2.5650 hc        1 SB3      0.047200
     38 H42         3.9270   -0.6850    0.9990 hc        1 SB3      0.047200
     39 H51         4.9080    1.5100    0.5540 hc        1 SB3      0.059700
     40 H52         3.5800    2.3570    1.4470 hc        1 SB3      0.059700
     41 H61         3.3770    0.7250   -1.1900 h1        1 SB3      0.059200
     42 H62         3.2080    2.5290   -0.9950 h1        1 SB3      0.059200
     43 H111        1.6760    5.9780   -2.1600 hc        1 SB3      0.051200
     44 H112        2.4810    4.6730   -3.1190 hc        1 SB3      0.051200
     45 H121        0.7200    4.9500   -4.9260 hc        1 SB3      0.037033
     46 H122        1.6610    6.4630   -4.6030 hc        1 SB3      0.037033
     47 H123       -0.0240    6.2910   -3.9620 hc        1 SB3      0.037033
     48 H131       -0.7520    5.6650   -1.5090 hc        1 SB3      0.051867
     49 H132       -1.4000    3.9720   -1.3520 hc        1 SB3      0.051867
     50 H133       -1.3450    4.7770   -2.9790 hc        1 SB3      0.051867
     51 H141        1.5130    2.4030   -3.2320 hc        1 SB3      0.051867
     52 H142        0.0860    3.1070   -4.1030 hc        1 SB3      0.051867
     53 H143       -0.1730    2.1000   -2.6210 hc        1 SB3      0.051867
     54 H15        -2.6890   -0.2480    0.4860 h1        1 SB3      0.091700
     55 H161       -1.7960   -2.8120   -1.0000 hc        1 SB3      0.059200
     56 H162       -3.5550   -2.4880   -0.7200 hc        1 SB3      0.059200
     57 H171       -3.1960   -2.3190    1.7230 hc        1 SB3      0.057200
     58 H172       -1.4100   -2.4500    1.5120 hc        1 SB3      0.057200
     59 H19        -0.5710   -4.5850    0.1970 ha        1 SB3      0.130500
     60 H20        -0.7090   -7.0700    0.3240 ha        1 SB3      0.129500
     61 H21        -2.7040   -8.1600    1.3560 ha        1 SB3      0.130000
     62 H22        -4.5580   -6.7560    2.2600 ha        1 SB3      0.129500
     63 H23        -4.4220   -4.2740    2.1350 ha        1 SB3      0.130500
     64 H25        -1.4050   -1.1610   -2.9720 ha        1 SB3      0.138000
     65 H26        -2.4240   -0.2530   -5.0680 ha        1 SB3      0.131000
     66 H27        -4.4340    1.2220   -4.9390 ha        1 SB3      0.130000
     67 H28        -5.4160    1.7960   -2.7170 ha        1 SB3      0.131000
     68 H29        -4.3980    0.8970   -0.6300 ha        1 SB3      0.138000
@<TRIPOS>BOND
     1    1    2 1   
     2    1    8 2   
     3    1    9 1   
     4    2    3 1   
     5    2    7 1   
     6    2   34 1   
     7    3    4 1   
     8    3   35 1   
     9    3   36 1   
    10    4    5 1   
    11    4   37 1   
    12    4   38 1   
    13    5    6 1   
    14    5   39 1   
    15    5   40 1   
    16    6    7 1   
    17    6   41 1   
    18    6   42 1   
    19    7   10 1   
    20    9   19 1   
    21   10   11 2   
    22   10   12 1   
    23   12   13 2   
    24   12   14 1   
    25   14   15 1   
    26   14   17 1   
    27   14   18 1   
    28   15   16 1   
    29   15   43 1   
    30   15   44 1   
    31   16   45 1   
    32   16   46 1   
    33   16   47 1   
    34   17   48 1   
    35   17   49 1   
    36   17   50 1   
    37   18   51 1   
    38   18   52 1   
    39   18   53 1   
    40   19   20 1   
    41   19   28 1   
    42   19   54 1   
    43   20   21 1   
    44   20   55 1   
    45   20   56 1   
    46   21   22 1   
    47   21   57 1   
    48   21   58 1   
    49   22   23 ar  
    50   22   27 ar  
    51   23   24 ar  
    52   23   59 1   
    53   24   25 ar  
    54   24   60 1   
    55   25   26 ar  
    56   25   61 1   
    57   26   27 ar  
    58   26   62 1   
    59   27   63 1   
    60   28   29 ar  
    61   28   33 ar  
    62   29   30 ar  
    63   29   64 1   
    64   30   31 ar  
    65   30   65 1   
    66   31   32 ar  
    67   31   66 1   
    68   32   33 ar  
    69   32   67 1   
    70   33   68 1   
@<TRIPOS>SUBSTRUCTURE
     1 SB3         1 TEMP              0 ****  ****    0 ROOT
