@<TRIPOS>MOLECULE
SB3
   68    70     1     0     0
SMALL
bcc


@<TRIPOS>ATOM
      1 C1         -1.1550    0.7650   -0.4020 c         1 SB3      0.653100
      2 C2         -2.1290    0.0110    0.4940 c3        1 SB3      0.053700
      3 C3         -3.5270    0.6290    0.3160 c3        1 SB3     -0.101400
      4 C4         -4.5480   -0.1070    1.1560 c3        1 SB3     -0.079400
      5 C5         -4.1120   -0.2020    2.6030 c3        1 SB3     -0.108400
      6 C6         -2.6960   -0.7720    2.7110 c3        1 SB3      0.081000
      7 N7         -1.7190   -0.0780    1.8920 n         1 SB3     -0.434800
      8 O1         -1.3120    1.8690   -0.9190 o         1 SB3     -0.527000
      9 O2         -0.0620    0.0080   -0.7090 os        1 SB3     -0.433900
     10 C8         -0.8570    0.8650    2.4450 c         1 SB3      0.566100
     11 O3         -0.2210    1.6690    1.7390 o         1 SB3     -0.566100
     12 C9         -0.6230    0.8520    3.9540 c         1 SB3      0.524100
     13 O4         -1.4590    1.3480    4.7080 o         1 SB3     -0.500100
     14 C10         0.7070    0.2730    4.4110 c3        1 SB3     -0.128000
     15 C11         0.5780   -0.1340    5.8810 c3        1 SB3     -0.074400
     16 C12         1.8790   -0.5390    6.5220 c3        1 SB3     -0.091100
     17 C13         1.7590    1.3620    4.2350 c3        1 SB3     -0.096100
     18 C14         1.0600   -0.9290    3.5500 c3        1 SB3     -0.096100
     19 C15         0.9810    0.6080   -1.5140 c3        1 SB3      0.193400
     20 C16         0.8630    0.0660   -2.9380 c3        1 SB3     -0.091400
     21 C17        -0.1750    0.8270   -3.7390 c3        1 SB3     -0.041100
     22 C18        -0.4080    0.2070   -5.0720 ca        1 SB3     -0.074300
     23 C19        -1.0620   -1.0270   -5.1710 ca        1 SB3     -0.128000
     24 C20        -1.2920   -1.6050   -6.4180 ca        1 SB3     -0.128500
     25 C21        -0.8720   -0.9540   -7.5780 ca        1 SB3     -0.134000
     26 C22        -0.2220    0.2760   -7.4870 ca        1 SB3     -0.128500
     27 C23         0.0090    0.8550   -6.2400 ca        1 SB3     -0.128000
     28 C24         2.2900    0.2060   -0.8980 ca        1 SB3     -0.091300
     29 C25         2.5440   -1.1290   -0.5680 ca        1 SB3     -0.107500
     30 C26         3.7740   -1.4940   -0.0240 ca        1 SB3     -0.136000
     31 C27         4.7560   -0.5280    0.1930 ca        1 SB3     -0.126000
     32 C28         4.5040    0.8050   -0.1280 ca        1 SB3     -0.136000
     33 C29         3.2730    1.1750   -0.6680 ca        1 SB3     -0.107500
     34 H2         -2.1570   -1.0590    0.1160 h1        1 SB3      0.083700
     35 H31        -3.8020    0.5710   -0.7690 hc        1 SB3      0.070200
     36 H32        -3.4950    1.7150    0.5960 hc        1 SB3      0.070200
     37 H41        -4.6970   -1.1400    0.7440 hc        1 SB3      0.047200
     38 H42        -5.5330    0.4240    1.0940 hc        1 SB3      0.047200
     39 H51        -4.8070   -0.8720    3.1710 hc        1 SB3      0.059700
     40 H52        -4.1490    0.8120    3.0810 hc        1 SB3      0.059700
     41 H61        -2.7080   -1.8470    2.3670 h1        1 SB3      0.059200
     42 H62        -2.3710   -0.7590    3.7880 h1        1 SB3      0.059200
     43 H111       -0.1530   -0.9840    5.9480 hc        1 SB3      0.051200
     44 H112        0.1380    0.7290    6.4510 hc        1 SB3      0.051200
     45 H121        1.6930   -0.8570    7.5770 hc        1 SB3      0.037033
     46 H122        2.3520   -1.3910    5.9780 hc        1 SB3      0.037033
     47 H123        2.5990    0.3150    6.5360 hc        1 SB3      0.037033
     48 H131        1.5950    2.1820    4.9740 hc        1 SB3      0.051867
     49 H132        2.7770    0.9310    4.3930 hc        1 SB3      0.051867
     50 H133        1.7070    1.7860    3.2010 hc        1 SB3      0.051867
     51 H141        0.2670   -1.7110    3.6250 hc        1 SB3      0.051867
     52 H142        1.1680   -0.6250    2.4790 hc        1 SB3      0.051867
     53 H143        2.0290   -1.3690    3.8880 hc        1 SB3      0.051867
     54 H15         0.8660    1.7290   -1.5050 h1        1 SB3      0.091700
     55 H161        1.8630    0.1520   -3.4380 hc        1 SB3      0.059200
     56 H162        0.5950   -1.0220   -2.8960 hc        1 SB3      0.059200
     57 H171       -1.1400    0.8520   -3.1600 hc        1 SB3      0.057200
     58 H172        0.1560    1.8930   -3.8600 hc        1 SB3      0.057200
     59 H19        -1.3950   -1.5410   -4.2560 ha        1 SB3      0.130500
     60 H20        -1.8060   -2.5740   -6.4870 ha        1 SB3      0.129500
     61 H21        -1.0540   -1.4100   -8.5620 ha        1 SB3      0.130000
     62 H22         0.1090    0.7920   -8.4000 ha        1 SB3      0.129500
     63 H23         0.5210    1.8270   -6.1740 ha        1 SB3      0.130500
     64 H25         1.7600   -1.8830   -0.7360 ha        1 SB3      0.138000
     65 H26         3.9700   -2.5460    0.2320 ha        1 SB3      0.131000
     66 H27         5.7290   -0.8170    0.6180 ha        1 SB3      0.130000
     67 H28         5.2750    1.5700    0.0470 ha        1 SB3      0.131000
     68 H29         3.0730    2.2300   -0.9100 ha        1 SB3      0.138000
@<TRIPOS>BOND
     1    1    2 1   
     2    1    8 2   
     3    1    9 1   
     4    2    3 1   
     5    2    7 1   
     6    2   34 1   
     7    3    4 1   
     8    3   35 1   
     9    3   36 1   
    10    4    5 1   
    11    4   37 1   
    12    4   38 1   
    13    5    6 1   
    14    5   39 1   
    15    5   40 1   
    16    6    7 1   
    17    6   41 1   
    18    6   42 1   
    19    7   10 1   
    20    9   19 1   
    21   10   11 2   
    22   10   12 1   
    23   12   13 2   
    24   12   14 1   
    25   14   15 1   
    26   14   17 1   
    27   14   18 1   
    28   15   16 1   
    29   15   43 1   
    30   15   44 1   
    31   16   45 1   
    32   16   46 1   
    33   16   47 1   
    34   17   48 1   
    35   17   49 1   
    36   17   50 1   
    37   18   51 1   
    38   18   52 1   
    39   18   53 1   
    40   19   20 1   
    41   19   28 1   
    42   19   54 1   
    43   20   21 1   
    44   20   55 1   
    45   20   56 1   
    46   21   22 1   
    47   21   57 1   
    48   21   58 1   
    49   22   23 ar  
    50   22   27 ar  
    51   23   24 ar  
    52   23   59 1   
    53   24   25 ar  
    54   24   60 1   
    55   25   26 ar  
    56   25   61 1   
    57   26   27 ar  
    58   26   62 1   
    59   27   63 1   
    60   28   29 ar  
    61   28   33 ar  
    62   29   30 ar  
    63   29   64 1   
    64   30   31 ar  
    65   30   65 1   
    66   31   32 ar  
    67   31   66 1   
    68   32   33 ar  
    69   32   67 1   
    70   33   68 1   
@<TRIPOS>SUBSTRUCTURE
     1 SB3         1 TEMP              0 ****  ****    0 ROOT
