@<TRIPOS>MOLECULE
SB3
   68    70     1     0     0
SMALL
bcc


@<TRIPOS>ATOM
      1 C1         -0.1910   -0.1330    0.6400 c         1 SB3      0.653100
      2 C2          1.2930    0.1000    0.3870 c3        1 SB3      0.053700
      3 C3          2.0370   -0.0160    1.7300 c3        1 SB3     -0.101400
      4 C4          3.5260    0.1680    1.5330 c3        1 SB3     -0.079400
      5 C5          3.8330    1.4470    0.7840 c3        1 SB3     -0.108400
      6 C6          3.0240    1.5280   -0.5120 c3        1 SB3      0.081000
      7 N7          1.5970    1.3350   -0.3290 n         1 SB3     -0.434800
      8 O1         -0.7860   -0.0780    1.7150 o         1 SB3     -0.527000
      9 O2         -0.8350   -0.5590   -0.4850 os        1 SB3     -0.433900
     10 C8          0.7240    2.4170   -0.2890 c         1 SB3      0.566100
     11 O3         -0.4380    2.3100    0.1450 o         1 SB3     -0.566100
     12 C9          1.1800    3.7520   -0.8740 c         1 SB3      0.524100
     13 O4          1.9270    4.4820   -0.2240 o         1 SB3     -0.500100
     14 C10         0.5910    4.1150   -2.2280 c3        1 SB3     -0.128000
     15 C11         1.4950    5.1620   -2.8840 c3        1 SB3     -0.074400
     16 C12         0.9260    5.7630   -4.1420 c3        1 SB3     -0.091100
     17 C13        -0.8050    4.6770   -1.9790 c3        1 SB3     -0.096100
     18 C14         0.4990    2.8680   -3.0920 c3        1 SB3     -0.096100
     19 C15        -2.2650   -0.7720   -0.4150 c3        1 SB3      0.193400
     20 C16        -2.5250   -2.2760   -0.3350 c3        1 SB3     -0.091400
     21 C17        -2.3930   -2.7890    1.0860 c3        1 SB3     -0.041100
     22 C18        -2.4900   -4.2720    1.1490 ca        1 SB3     -0.074300
     23 C19        -1.4570   -5.0690    0.6390 ca        1 SB3     -0.128000
     24 C20        -1.5400   -6.4580    0.7070 ca        1 SB3     -0.128500
     25 C21        -2.6550   -7.0660    1.2860 ca        1 SB3     -0.134000
     26 C22        -3.6850   -6.2780    1.7980 ca        1 SB3     -0.128500
     27 C23        -3.6040   -4.8880    1.7300 ca        1 SB3     -0.128000
     28 C24        -2.8520   -0.1970   -1.6710 ca        1 SB3     -0.091300
     29 C25        -2.3060   -0.5060   -2.9210 ca        1 SB3     -0.107500
     30 C26        -2.8780    0.0110   -4.0820 ca        1 SB3     -0.136000
     31 C27        -3.9970    0.8400   -4.0000 ca        1 SB3     -0.126000
     32 C28        -4.5390    1.1560   -2.7550 ca        1 SB3     -0.136000
     33 C29        -3.9670    0.6440   -1.5910 ca        1 SB3     -0.107500
     34 H2          1.6420   -0.7410   -0.2910 h1        1 SB3      0.083700
     35 H31         1.6360    0.7470    2.4470 hc        1 SB3      0.070200
     36 H32         1.8240   -1.0270    2.1640 hc        1 SB3      0.070200
     37 H41         3.9390   -0.7060    0.9630 hc        1 SB3      0.047200
     38 H42         4.0330    0.1860    2.5330 hc        1 SB3      0.047200
     39 H51         4.9220    1.4890    0.5240 hc        1 SB3      0.059700
     40 H52         3.6020    2.3340    1.4300 hc        1 SB3      0.059700
     41 H61         3.3780    0.7180   -1.2140 h1        1 SB3      0.059200
     42 H62         3.2150    2.5200   -1.0080 h1        1 SB3      0.059200
     43 H111        1.6890    5.9810   -2.1390 hc        1 SB3      0.051200
     44 H112        2.4830    4.6800   -3.1130 hc        1 SB3      0.051200
     45 H121       -0.0210    6.3160   -3.9260 hc        1 SB3      0.037033
     46 H122        1.6600    6.4830   -4.5790 hc        1 SB3      0.037033
     47 H123        0.7100    4.9780   -4.9060 hc        1 SB3      0.037033
     48 H131       -0.7380    5.6720   -1.4780 hc        1 SB3      0.051867
     49 H132       -1.3900    3.9790   -1.3300 hc        1 SB3      0.051867
     50 H133       -1.3410    4.7950   -2.9510 hc        1 SB3      0.051867
     51 H141        1.5090    2.4140   -3.2340 hc        1 SB3      0.051867
     52 H142       -0.1750    2.1120   -2.6180 hc        1 SB3      0.051867
     53 H143        0.0810    3.1290   -4.0940 hc        1 SB3      0.051867
     54 H15        -2.6800   -0.2490    0.4930 h1        1 SB3      0.091700
     55 H161       -1.8020   -2.8100   -1.0050 hc        1 SB3      0.059200
     56 H162       -3.5590   -2.4820   -0.7160 hc        1 SB3      0.059200
     57 H171       -1.4030   -2.4570    1.5060 hc        1 SB3      0.057200
     58 H172       -3.1880   -2.3210    1.7260 hc        1 SB3      0.057200
     59 H19        -0.5780   -4.5910    0.1830 ha        1 SB3      0.130500
     60 H20        -0.7250   -7.0770    0.3040 ha        1 SB3      0.129500
     61 H21        -2.7190   -8.1620    1.3400 ha        1 SB3      0.130000
     62 H22        -4.5650   -6.7530    2.2560 ha        1 SB3      0.129500
     63 H23        -4.4200   -4.2710    2.1370 ha        1 SB3      0.130500
     64 H25        -1.4190   -1.1550   -2.9750 ha        1 SB3      0.138000
     65 H26        -2.4470   -0.2360   -5.0630 ha        1 SB3      0.131000
     66 H27        -4.4510    1.2440   -4.9170 ha        1 SB3      0.130000
     67 H28        -5.4180    1.8140   -2.6880 ha        1 SB3      0.131000
     68 H29        -4.3910    0.9050   -0.6100 ha        1 SB3      0.138000
@<TRIPOS>BOND
     1    1    2 1   
     2    1    8 2   
     3    1    9 1   
     4    2    3 1   
     5    2    7 1   
     6    2   34 1   
     7    3    4 1   
     8    3   35 1   
     9    3   36 1   
    10    4    5 1   
    11    4   37 1   
    12    4   38 1   
    13    5    6 1   
    14    5   39 1   
    15    5   40 1   
    16    6    7 1   
    17    6   41 1   
    18    6   42 1   
    19    7   10 1   
    20    9   19 1   
    21   10   11 2   
    22   10   12 1   
    23   12   13 2   
    24   12   14 1   
    25   14   15 1   
    26   14   17 1   
    27   14   18 1   
    28   15   16 1   
    29   15   43 1   
    30   15   44 1   
    31   16   45 1   
    32   16   46 1   
    33   16   47 1   
    34   17   48 1   
    35   17   49 1   
    36   17   50 1   
    37   18   51 1   
    38   18   52 1   
    39   18   53 1   
    40   19   20 1   
    41   19   28 1   
    42   19   54 1   
    43   20   21 1   
    44   20   55 1   
    45   20   56 1   
    46   21   22 1   
    47   21   57 1   
    48   21   58 1   
    49   22   23 ar  
    50   22   27 ar  
    51   23   24 ar  
    52   23   59 1   
    53   24   25 ar  
    54   24   60 1   
    55   25   26 ar  
    56   25   61 1   
    57   26   27 ar  
    58   26   62 1   
    59   27   63 1   
    60   28   29 ar  
    61   28   33 ar  
    62   29   30 ar  
    63   29   64 1   
    64   30   31 ar  
    65   30   65 1   
    66   31   32 ar  
    67   31   66 1   
    68   32   33 ar  
    69   32   67 1   
    70   33   68 1   
@<TRIPOS>SUBSTRUCTURE
     1 SB3         1 TEMP              0 ****  ****    0 ROOT
