@<TRIPOS>MOLECULE
SB3
   68    70     1     0     0
SMALL
bcc


@<TRIPOS>ATOM
      1 C1         -0.2060   -0.1210    0.6480 c         1 SB3      0.653100
      2 C2          1.2810    0.1140    0.4090 c3        1 SB3      0.053700
      3 C3          2.0100    0.0090    1.7600 c3        1 SB3     -0.101400
      4 C4          3.5010    0.1960    1.5770 c3        1 SB3     -0.079400
      5 C5          3.8120    1.4710    0.8230 c3        1 SB3     -0.108400
      6 C6          3.0170    1.5410   -0.4830 c3        1 SB3      0.081000
      7 N7          1.5880    1.3450   -0.3120 n         1 SB3     -0.434800
      8 O1         -0.8120   -0.0620    1.7160 o         1 SB3     -0.527000
      9 O2         -0.8360   -0.5560   -0.4810 os        1 SB3     -0.433900
     10 C8          0.7110    2.4250   -0.2890 c         1 SB3      0.566100
     11 O3         -0.4550    2.3170    0.1340 o         1 SB3     -0.566100
     12 C9          1.1690    3.7570   -0.8800 c         1 SB3      0.524100
     13 O4          1.9070    4.4940   -0.2280 o         1 SB3     -0.500100
     14 C10         0.5930    4.1080   -2.2420 c3        1 SB3     -0.128000
     15 C11         1.5010    5.1520   -2.8970 c3        1 SB3     -0.074400
     16 C12         0.9430    5.7400   -4.1660 c3        1 SB3     -0.091100
     17 C13        -0.8070    4.6670   -2.0120 c3        1 SB3     -0.096100
     18 C14         0.5130    2.8540   -3.0980 c3        1 SB3     -0.096100
     19 C15        -2.2660   -0.7740   -0.4240 c3        1 SB3      0.193400
     20 C16        -2.5230   -2.2780   -0.3390 c3        1 SB3     -0.091400
     21 C17        -2.4000   -2.7830    1.0860 c3        1 SB3     -0.041100
     22 C18        -2.4930   -4.2670    1.1560 ca        1 SB3     -0.074300
     23 C19        -1.4540   -5.0630    0.6560 ca        1 SB3     -0.128000
     24 C20        -1.5320   -6.4520    0.7310 ca        1 SB3     -0.128500
     25 C21        -2.6480   -7.0600    1.3060 ca        1 SB3     -0.134000
     26 C22        -3.6850   -6.2740    1.8060 ca        1 SB3     -0.128500
     27 C23        -3.6090   -4.8830    1.7320 ca        1 SB3     -0.128000
     28 C24        -2.8430   -0.2070   -1.6890 ca        1 SB3     -0.091300
     29 C25        -2.2830   -0.5220   -2.9320 ca        1 SB3     -0.107500
     30 C26        -2.8450   -0.0130   -4.1020 ca        1 SB3     -0.136000
     31 C27        -3.9680    0.8130   -4.0360 ca        1 SB3     -0.126000
     32 C28        -4.5240    1.1340   -2.7980 ca        1 SB3     -0.136000
     33 C29        -3.9620    0.6300   -1.6250 ca        1 SB3     -0.107500
     34 H2          1.6390   -0.7310   -0.2610 h1        1 SB3      0.083700
     35 H31         1.7960   -1.0000    2.1990 hc        1 SB3      0.070200
     36 H32         1.6000    0.7760    2.4680 hc        1 SB3      0.070200
     37 H41         3.9220   -0.6810    1.0180 hc        1 SB3      0.047200
     38 H42         3.9970    0.2230    2.5820 hc        1 SB3      0.047200
     39 H51         4.9030    1.5140    0.5740 hc        1 SB3      0.059700
     40 H52         3.5720    2.3620    1.4600 hc        1 SB3      0.059700
     41 H61         3.2100    2.5310   -0.9830 h1        1 SB3      0.059200
     42 H62         3.3800    0.7270   -1.1750 h1        1 SB3      0.059200
     43 H111        2.4930    4.6730   -3.1100 hc        1 SB3      0.051200
     44 H112        1.6830    5.9780   -2.1570 hc        1 SB3      0.051200
     45 H121        0.7410    4.9480   -4.9260 hc        1 SB3      0.037033
     46 H122       -0.0080    6.2900   -3.9670 hc        1 SB3      0.037033
     47 H123        1.6790    6.4610   -4.6000 hc        1 SB3      0.037033
     48 H131       -1.3340    4.7760   -2.9900 hc        1 SB3      0.051867
     49 H132       -0.7490    5.6650   -1.5180 hc        1 SB3      0.051867
     50 H133       -1.3970    3.9720   -1.3630 hc        1 SB3      0.051867
     51 H141       -0.1620    2.0990   -2.6240 hc        1 SB3      0.051867
     52 H142        1.5270    2.4020   -3.2260 hc        1 SB3      0.051867
     53 H143        0.1040    3.1060   -4.1060 hc        1 SB3      0.051867
     54 H15        -2.6920   -0.2470    0.4760 h1        1 SB3      0.091700
     55 H161       -3.5530   -2.4890   -0.7270 hc        1 SB3      0.059200
     56 H162       -1.7920   -2.8140   -1.0000 hc        1 SB3      0.059200
     57 H171       -1.4150   -2.4460    1.5120 hc        1 SB3      0.057200
     58 H172       -3.2030   -2.3150    1.7170 hc        1 SB3      0.057200
     59 H19        -0.5730   -4.5840    0.2030 ha        1 SB3      0.130500
     60 H20        -0.7120   -7.0690    0.3360 ha        1 SB3      0.129500
     61 H21        -2.7090   -8.1560    1.3650 ha        1 SB3      0.130000
     62 H22        -4.5660   -6.7500    2.2620 ha        1 SB3      0.129500
     63 H23        -4.4290   -4.2680    2.1310 ha        1 SB3      0.130500
     64 H25        -1.3930   -1.1680   -2.9740 ha        1 SB3      0.138000
     65 H26        -2.4030   -0.2640   -5.0770 ha        1 SB3      0.131000
     66 H27        -4.4140    1.2110   -4.9590 ha        1 SB3      0.130000
     67 H28        -5.4050    1.7890   -2.7440 ha        1 SB3      0.131000
     68 H29        -4.3960    0.8950   -0.6490 ha        1 SB3      0.138000
@<TRIPOS>BOND
     1    1    2 1   
     2    1    8 2   
     3    1    9 1   
     4    2    3 1   
     5    2    7 1   
     6    2   34 1   
     7    3    4 1   
     8    3   35 1   
     9    3   36 1   
    10    4    5 1   
    11    4   37 1   
    12    4   38 1   
    13    5    6 1   
    14    5   39 1   
    15    5   40 1   
    16    6    7 1   
    17    6   41 1   
    18    6   42 1   
    19    7   10 1   
    20    9   19 1   
    21   10   11 2   
    22   10   12 1   
    23   12   13 2   
    24   12   14 1   
    25   14   15 1   
    26   14   17 1   
    27   14   18 1   
    28   15   16 1   
    29   15   43 1   
    30   15   44 1   
    31   16   45 1   
    32   16   46 1   
    33   16   47 1   
    34   17   48 1   
    35   17   49 1   
    36   17   50 1   
    37   18   51 1   
    38   18   52 1   
    39   18   53 1   
    40   19   20 1   
    41   19   28 1   
    42   19   54 1   
    43   20   21 1   
    44   20   55 1   
    45   20   56 1   
    46   21   22 1   
    47   21   57 1   
    48   21   58 1   
    49   22   23 ar  
    50   22   27 ar  
    51   23   24 ar  
    52   23   59 1   
    53   24   25 ar  
    54   24   60 1   
    55   25   26 ar  
    56   25   61 1   
    57   26   27 ar  
    58   26   62 1   
    59   27   63 1   
    60   28   29 ar  
    61   28   33 ar  
    62   29   30 ar  
    63   29   64 1   
    64   30   31 ar  
    65   30   65 1   
    66   31   32 ar  
    67   31   66 1   
    68   32   33 ar  
    69   32   67 1   
    70   33   68 1   
@<TRIPOS>SUBSTRUCTURE
     1 SB3         1 TEMP              0 ****  ****    0 ROOT
