@<TRIPOS>MOLECULE
SB4
   44    47     1     0     0
SMALL
bcc


@<TRIPOS>ATOM
      1 CA1        -0.6880   -0.5120    0.4510 c3        1 SB4     -0.168000
      2 CA2         0.7300   -0.1260    0.0290 c3        1 SB4     -0.071000
      3 NA3         1.6670   -0.1160    1.1330 n7        1 SB4     -0.301000
      4 CA4         1.6750   -1.3390    1.9090 c3        1 SB4     -0.071000
      5 CA5         0.2840   -1.7620    2.3790 c3        1 SB4     -0.168000
      6 CA6        -0.6540   -1.8660    1.1690 c3        1 SB4     -0.027000
      7 CB1        -6.1910   -0.6420   -0.2020 c3        1 SB4     -0.186000
      8 CB2        -7.5900   -1.0330   -0.1230 c1        1 SB4      0.007000
      9 CB3        -8.0860   -2.4230   -0.4350 c3        1 SB4      0.046000
     10 CB4        -7.0190   -3.1930   -1.2350 c2        1 SB4     -0.183000
     11 CB5        -5.8080   -2.8480   -0.8620 c1        1 SB4     -0.101000
     12 CB6        -5.2440   -1.8360   -0.2080 c2        1 SB4     -0.081000
     13 CC1        -2.9470   -3.4860   -1.9500 c3        1 SB4     -0.255000
     14 CC2        -2.5800   -3.6950   -0.5070 c2        1 SB4      0.168000
     15 NC3        -1.8980   -4.7450   -0.0890 n2        1 SB4     -0.306000
     16 CC4        -1.4760   -5.6860   -1.0830 c2        1 SB4      0.230000
     17 NC5        -1.5880   -5.4740   -2.4700 n2        1 SB4     -0.270000
     18 CC6        -2.2960   -4.4570   -2.8790 c1        1 SB4     -0.121000
     19 NC7        -0.9300   -6.8430   -0.6200 n8        1 SB4     -0.301000
     20 ND1        -2.0120   -2.3350    1.5800 nx        1 SB4     -0.020000
     21 CD2        -2.7910   -1.2270    2.3400 c1        1 SB4     -0.042000
     22 ND3        -3.9320   -1.0030    1.7350 n2        1 SB4     -0.298000
     23 CD4        -4.0560   -1.8520    0.6000 c2        1 SB4      0.173000
     24 CD5        -2.9180   -2.6550    0.4480 c2        1 SB4     -0.302000
     25 H11        -0.2370   -2.6390    0.4560 hx        1 SB4      0.108000
     26 H12        -1.3310   -0.5720   -0.4650 hc        1 SB4      0.111750
     27 H21        -1.1150    0.2700    1.1330 hc        1 SB4      0.111750
     28 H22         1.0540   -0.8250   -0.7990 h1        1 SB4      0.074250
     29 HN3         0.7030    0.9170   -0.3970 h1        1 SB4      0.074250
     30 H41         2.5910    0.0910    0.8020 hn        1 SB4      0.167000
     31 H42         2.1310   -2.2020    1.3380 h1        1 SB4      0.074250
     32 H51         2.3170   -1.1550    2.8170 h1        1 SB4      0.074250
     33 H52        -0.1270   -1.0150    3.1090 hc        1 SB4      0.111750
     34 H6          0.3710   -2.7510    2.8980 hc        1 SB4      0.111750
     35 HB1        -5.9730    0.0140    0.6950 hc        1 SB4      0.187500
     36 HB2        -6.0610    0.0150   -1.1100 hc        1 SB4      0.187500
     37 HB4        -8.9580   -2.2800   -1.1510 h1        1 SB4      0.140000
     38 HB5        -7.3260   -3.8040   -2.0860 ha        1 SB4      0.176000
     39 HC6        -4.0580   -3.6020   -2.0940 hc        1 SB4      0.158500
     40 HN71       -0.5860   -7.5130   -1.2690 hn        1 SB4      0.250500
     41 HN72       -0.8730   -7.0370    0.3500 hn        1 SB4      0.250500
     42 H2         -1.9100   -3.1520    2.1840 hn        1 SB4      0.242000
     43 FB7        -8.5520   -3.0780    0.6870 f         1 SB4     -0.123000
     44 HC1        -2.6760   -2.4410   -2.2590 hc        1 SB4      0.158500
@<TRIPOS>BOND
     1    1    2 1   
     2    1    6 1   
     3    1   26 1   
     4    1   27 1   
     5    2    3 1   
     6    2   28 1   
     7    2   29 1   
     8    3    4 1   
     9    3   30 1   
    10    4    5 1   
    11    4   31 1   
    12    4   32 1   
    13    5    6 1   
    14    5   33 1   
    15    5   34 1   
    16    6   20 1   
    17    6   25 1   
    18    7    8 1   
    19    7   12 1   
    20    7   35 1   
    21    7   36 1   
    22    8    9 1   
    23    9   10 1   
    24    9   37 1   
    25    9   43 1   
    26   10   11 1   
    27   10   38 1   
    28   11   12 1   
    29   12   23 1   
    30   13   14 1   
    31   13   18 1   
    32   13   39 1   
    33   13   44 1   
    34   14   15 1   
    35   14   24 1   
    36   15   16 1   
    37   16   17 1   
    38   16   19 1   
    39   17   18 1   
    40   19   40 1   
    41   19   41 1   
    42   20   21 1   
    43   20   24 1   
    44   20   42 1   
    45   21   22 1   
    46   22   23 1   
    47   23   24 1   
@<TRIPOS>SUBSTRUCTURE
     1 SB4         1 TEMP              0 ****  ****    0 ROOT
