@<TRIPOS>MOLECULE
SB4
   44    46     1     0     0
SMALL
bcc


@<TRIPOS>ATOM
      1 CA1        -0.7650   -0.5160    0.3320 c3        1 SB4     -0.170000
      2 CA2         0.6780   -0.2080   -0.0670 c3        1 SB4     -0.070000
      3 NA3         1.5810   -0.1520    1.0650 n3        1 SB4     -0.301000
      4 CA4         1.5200   -1.3170    1.9240 c3        1 SB4     -0.070000
      5 CA5         0.0990   -1.6600    2.3730 c3        1 SB4     -0.170000
      6 CA6        -0.8000   -1.8190    1.1390 c3        1 SB4     -0.026000
      7 CB1        -6.5090   -1.2060   -0.0340 c2        1 SB4     -0.031000
      8 CB2        -7.5890   -1.8910    0.1930 c1        1 SB4     -0.248000
      9 CB3        -8.6780   -2.5630    0.4840 c2        1 SB4      0.065000
     10 CB4        -4.6240   -0.5720   -2.8630 c1        1 SB4     -0.157000
     11 CB5        -4.9040   -1.1330   -1.8450 c1        1 SB4     -0.188000
     12 CB6        -5.2690   -1.8180   -0.6300 c3        1 SB4      0.086000
     13 CC1        -3.3570   -4.0790   -1.6850 c3        1 SB4     -0.255000
     14 CC2        -2.7400   -3.8840   -0.3290 c2        1 SB4      0.164000
     15 NC3        -1.8960   -4.7610    0.1930 n2        1 SB4     -0.322000
     16 CC4        -1.4940   -5.8530   -0.6320 c2        1 SB4      0.231000
     17 NC5        -1.7870   -5.9520   -2.0090 n2        1 SB4     -0.268000
     18 CC6        -2.6800   -5.1390   -2.4970 c1        1 SB4     -0.118000
     19 NC7        -0.7800   -6.8400   -0.0250 n3        1 SB4     -0.304000
     20 ND1        -2.1870   -2.2170    1.5340 n4        1 SB4     -0.024000
     21 CD2        -2.9730   -0.9950    2.0860 c1        1 SB4     -0.027000
     22 ND3        -4.0520   -0.8090    1.3570 n2        1 SB4     -0.289000
     23 CD4        -4.1250   -1.7860    0.3440 c2        1 SB4      0.140000
     24 CD5        -3.0410   -2.6740    0.4060 c2        1 SB4     -0.311000
     25 H11        -0.3810   -2.6480    0.4950 hx        1 SB4      0.115000
     26 H12        -1.1820    0.3260    0.9470 hc        1 SB4      0.112250
     27 H21        -1.3810   -0.6140   -0.5970 hc        1 SB4      0.112250
     28 H22         1.0030   -0.9730   -0.8340 h1        1 SB4      0.074250
     29 HN3         0.7020    0.8030   -0.5640 h1        1 SB4      0.074250
     30 H41         2.5210   -0.0010    0.7520 hn        1 SB4      0.167000
     31 H42         1.9620   -2.2340    1.4310 h1        1 SB4      0.074250
     32 H51         2.1380   -1.0910    2.8380 h1        1 SB4      0.074250
     33 H52        -0.3070   -0.8490    3.0340 hc        1 SB4      0.112250
     34 H6          0.1350   -2.6110    2.9630 hc        1 SB4      0.112250
     35 HB1        -5.4840   -2.9030   -0.8810 hc        1 SB4      0.129000
     36 HB2        -6.4420   -0.1290    0.2070 ha        1 SB4      0.173000
     37 HB4        -8.8350   -3.0480    1.4660 h4        1 SB4      0.156000
     38 HB5        -4.3770   -0.0790   -3.7710 ha        1 SB4      0.232000
     39 HC6        -4.4270   -4.4160   -1.5830 hc        1 SB4      0.156500
     40 HN71       -0.4260   -7.5900   -0.5720 hn        1 SB4      0.250000
     41 HN72       -0.5900   -6.8190    0.9480 hn        1 SB4      0.250000
     42 H2         -2.1320   -2.9420    2.2490 hn        1 SB4      0.241000
     43 FB7        -9.7110   -2.7320   -0.3700 f         1 SB4     -0.107000
     44 HC1        -3.3570   -3.1110   -2.2550 hc        1 SB4      0.156500
@<TRIPOS>BOND
     1    1    2 1   
     2    1    6 1   
     3    1   26 1   
     4    1   27 1   
     5    2    3 1   
     6    2   28 1   
     7    2   29 1   
     8    3    4 1   
     9    3   30 1   
    10    4    5 1   
    11    4   31 1   
    12    4   32 1   
    13    5    6 1   
    14    5   33 1   
    15    5   34 1   
    16    6   20 1   
    17    6   25 1   
    18    7    8 1   
    19    7   12 1   
    20    7   36 1   
    21    8    9 1   
    22    9   37 1   
    23    9   43 1   
    24   10   11 1   
    25   10   38 1   
    26   11   12 1   
    27   12   23 1   
    28   12   35 1   
    29   13   14 1   
    30   13   18 1   
    31   13   39 1   
    32   13   44 1   
    33   14   15 1   
    34   14   24 1   
    35   15   16 1   
    36   16   17 1   
    37   16   19 1   
    38   17   18 1   
    39   19   40 1   
    40   19   41 1   
    41   20   21 1   
    42   20   24 1   
    43   20   42 1   
    44   21   22 1   
    45   22   23 1   
    46   23   24 1   
@<TRIPOS>SUBSTRUCTURE
     1 SB4         1 TEMP              0 ****  ****    0 ROOT
