@<TRIPOS>MOLECULE
SB4
   45    48     1     0     0
SMALL
bcc


@<TRIPOS>ATOM
      1 CA1        -1.0960    0.2760    0.7480 c3        1 SB4     -0.176000
      2 CA2        -0.0570    0.9640   -0.1410 c3        1 SB4     -0.067000
      3 NA3         1.2980    0.7500    0.3190 n3        1 SB4     -0.307000
      4 CA4         1.6420   -0.6440    0.4890 c3        1 SB4     -0.067000
      5 CA5         0.6580   -1.3810    1.4010 c3        1 SB4     -0.176000
      6 CA6        -0.7650   -1.2200    0.8490 c3        1 SB4     -0.040000
      7 CB1        -6.5990   -2.2630    1.1340 c3        1 SB4     -0.181000
      8 CB2        -7.6070   -1.8320    0.1920 c1        1 SB4      0.030000
      9 CB3        -7.4240   -1.9080   -1.2900 c3        1 SB4      0.060000
     10 CB4        -6.4510   -3.0700   -1.6080 c2        1 SB4     -0.189000
     11 CB5        -5.4660   -3.0830   -0.7430 c1        1 SB4      0.014000
     12 CB6        -5.2440   -2.6140    0.4880 c2        1 SB4     -0.150000
     13 CC1        -0.9020   -4.4680    0.3980 c3        1 SB4     -0.279000
     14 CC2        -2.3320   -4.0070    0.2840 c2        1 SB4      0.182000
     15 NC3        -3.2640   -4.7510   -0.3820 n2        1 SB4     -0.289000
     16 CC4        -2.9030   -5.9470   -0.9460 c2        1 SB4      0.258000
     17 NC5        -1.5410   -6.4300   -0.8960 n3        1 SB4     -0.221000
     18 CC6        -0.5850   -5.7580   -0.2740 c1        1 SB4      0.027000
     19 NC7        -3.8580   -6.6890   -1.5740 n3        1 SB4     -0.310000
     20 ND1        -1.7650   -1.9760    1.6840 n4        1 SB4     -0.049000
     21 CD2        -2.7150   -0.9930    2.4340 c1        1 SB4      0.096000
     22 ND3        -3.9630   -1.1960    2.0340 n2        1 SB4     -0.304000
     23 CD4        -4.0280   -2.2210    1.0990 c2        1 SB4      0.292000
     24 CD5        -2.7030   -2.8160    0.9040 c2        1 SB4     -0.320000
     25 H11        -0.8050   -1.6580   -0.1940 hx        1 SB4      0.110000
     26 H12        -1.0950    0.7420    1.7700 hc        1 SB4      0.115000
     27 H21        -2.1080    0.4260    0.2930 hc        1 SB4      0.115000
     28 H22        -0.2510    2.0740   -0.1180 h1        1 SB4      0.083750
     29 HN3        -0.2100    0.6100   -1.2040 h1        1 SB4      0.083750
     30 H41         1.9590    1.2160   -0.2720 hn        1 SB4      0.188000
     31 H42         2.6650   -0.6880    0.9600 h1        1 SB4      0.083750
     32 H51         1.6910   -1.2010   -0.4950 h1        1 SB4      0.083750
     33 H52         0.7170   -0.9590    2.4390 hc        1 SB4      0.115000
     34 H6          0.9510   -2.4620    1.4400 hc        1 SB4      0.115000
     35 HB2        -7.0210   -3.1470    1.7000 hc        1 SB4      0.198500
     36 HB4        -6.9670   -0.9060   -1.5830 h1        1 SB4      0.161000
     37 HB5        -6.7260   -3.7880   -2.3850 ha        1 SB4      0.200000
     38 HC6        -0.2000   -3.7000   -0.0410 hc        1 SB4      0.175500
     39 HN71       -1.3090   -7.2970   -1.3430 hn        1 SB4      0.286000
     40 HN72       -3.6390   -7.5570   -2.0060 hn        1 SB4      0.270000
     41 H2         -1.2730   -2.5390    2.3810 hn        1 SB4      0.240000
     42 FB7        -8.5970   -2.0730   -1.9940 f         1 SB4     -0.104000
     43 HC1        -0.6120   -4.5970    1.4820 hc        1 SB4      0.175500
     44 HC73       -4.8010   -6.3680   -1.6020 hn        1 SB4      0.270000
     45 HB1        -6.4550   -1.4400    1.8990 hc        1 SB4      0.198500
@<TRIPOS>BOND
     1    1    2 1   
     2    1    6 1   
     3    1   26 1   
     4    1   27 1   
     5    2    3 1   
     6    2   28 1   
     7    2   29 1   
     8    3    4 1   
     9    3   30 1   
    10    4    5 1   
    11    4   31 1   
    12    4   32 1   
    13    5    6 1   
    14    5   33 1   
    15    5   34 1   
    16    6   20 1   
    17    6   25 1   
    18    7    8 1   
    19    7   12 1   
    20    7   35 1   
    21    7   45 1   
    22    8    9 1   
    23    9   10 1   
    24    9   36 1   
    25    9   42 1   
    26   10   11 1   
    27   10   37 1   
    28   11   12 1   
    29   12   23 1   
    30   13   14 1   
    31   13   18 1   
    32   13   38 1   
    33   13   43 1   
    34   14   15 1   
    35   14   24 1   
    36   15   16 1   
    37   16   17 1   
    38   16   19 1   
    39   17   18 1   
    40   17   39 1   
    41   19   40 1   
    42   19   44 1   
    43   20   21 1   
    44   20   24 1   
    45   20   41 1   
    46   21   22 1   
    47   22   23 1   
    48   23   24 1   
@<TRIPOS>SUBSTRUCTURE
     1 SB4         1 TEMP              0 ****  ****    0 ROOT
