@<TRIPOS>MOLECULE
SB4
   44    47     1     0     0
SMALL
bcc


@<TRIPOS>ATOM
      1 CA1        -0.8460   -1.1250   -3.8100 c3        1 SB4     -0.090900
      2 CA2        -0.1020   -1.0200   -5.1400 c3        1 SB4      0.163300
      3 NA3        -0.2840    0.2610   -5.7930 n3        1 SB4     -0.823200
      4 CA4         0.0300    1.3940   -4.9460 c3        1 SB4      0.163300
      5 CA5        -0.7100    1.3660   -3.6090 c3        1 SB4     -0.090900
      6 CA6        -0.4340    0.0360   -2.8870 c3        1 SB4      0.045000
      7 CB1        -2.2140    0.5560    2.9060 ca        1 SB4     -0.084000
      8 CB2        -2.0860    0.4940    4.2890 ca        1 SB4     -0.171000
      9 CB3        -1.0630   -0.2860    4.8590 ca        1 SB4      0.122900
     10 CB4        -0.1770   -1.0020    4.0330 ca        1 SB4     -0.171000
     11 CB5        -0.3190   -0.9300    2.6520 ca        1 SB4     -0.084000
     12 CB6        -1.3300   -0.1490    2.0750 ca        1 SB4     -0.112500
     13 CC1         1.7320   -1.2550   -0.6740 ca        1 SB4     -0.424600
     14 CC2         1.0170   -0.1490   -0.1610 ca        1 SB4      0.556800
     15 NC3         1.6180    0.8610    0.5050 nb        1 SB4     -0.727000
     16 CC4         2.9970    0.7570    0.6700 ca        1 SB4      0.868900
     17 NC5         3.7720   -0.3140    0.2230 nb        1 SB4     -0.747000
     18 CC6         3.1180   -1.2770   -0.4380 ca        1 SB4      0.464200
     19 NC7         3.6550    1.8310    1.2680 nh        1 SB4     -0.926500
     20 ND1        -1.0690   -0.0360   -1.5910 na        1 SB4     -0.187900
     21 CD2        -2.4460    0.0230   -1.3350 cc        1 SB4      0.408400
     22 ND3        -2.7150   -0.0070   -0.0150 nd        1 SB4     -0.663000
     23 CD4        -1.4710   -0.0790    0.6310 cd        1 SB4      0.393800
     24 CD5        -0.4360   -0.0950   -0.3400 cc        1 SB4     -0.269100
     25 H11        -0.5910   -2.1070   -3.3360 hc        1 SB4      0.061200
     26 H12        -1.9520   -1.1000   -3.9860 hc        1 SB4      0.061200
     27 H21         0.9890   -1.2500   -4.9510 h1        1 SB4      0.034700
     28 H22        -0.5000   -1.8110   -5.8370 h1        1 SB4      0.034700
     29 HN3         0.2570    0.2990   -6.6360 hn        1 SB4      0.369800
     30 H41         1.1380    1.4720   -4.7330 h1        1 SB4      0.034700
     31 H42        -0.2750    2.3240   -5.5040 h1        1 SB4      0.034700
     32 H51        -1.8110    1.4880   -3.7770 hc        1 SB4      0.061200
     33 H52        -0.3550    2.2270   -2.9870 hc        1 SB4      0.061200
     34 H6          0.6830   -0.0420   -2.7080 h1        1 SB4      0.075700
     35 HB1        -3.0190    1.1630    2.4610 ha        1 SB4      0.145500
     36 HB2        -2.7760    1.0470    4.9420 ha        1 SB4      0.146500
     37 HB4         0.6140   -1.6150    4.4860 ha        1 SB4      0.146500
     38 HB5         0.3700   -1.4940    2.0050 ha        1 SB4      0.145500
     39 HC6         3.7420   -2.1180   -0.7920 h4        1 SB4      0.028100
     40 HN71        4.5750    1.6660    1.6030 hn        1 SB4      0.433300
     41 HN72        3.0980    2.4710    1.7860 hn        1 SB4      0.433300
     42 H2         -3.1890    0.0800   -2.1380 h5        1 SB4      0.066100
     43 FB7        -0.9310   -0.3490    6.2060 f         1 SB4     -0.144900
     44 HC1         1.2260   -2.0640   -1.2100 ha        1 SB4      0.158000
@<TRIPOS>BOND
     1    1    2 1   
     2    1    6 1   
     3    1   25 1   
     4    1   26 1   
     5    2    3 1   
     6    2   27 1   
     7    2   28 1   
     8    3    4 1   
     9    3   29 1   
    10    4    5 1   
    11    4   30 1   
    12    4   31 1   
    13    5    6 1   
    14    5   32 1   
    15    5   33 1   
    16    6   20 1   
    17    6   34 1   
    18    7    8 ar  
    19    7   12 ar  
    20    7   35 1   
    21    8    9 ar  
    22    8   36 1   
    23    9   10 ar  
    24    9   43 1   
    25   10   11 ar  
    26   10   37 1   
    27   11   12 ar  
    28   11   38 1   
    29   12   23 1   
    30   13   14 ar  
    31   13   18 ar  
    32   13   44 1   
    33   14   15 ar  
    34   14   24 1   
    35   15   16 ar  
    36   16   17 ar  
    37   16   19 1   
    38   17   18 ar  
    39   18   39 1   
    40   19   40 1   
    41   19   41 1   
    42   20   21 1   
    43   20   24 1   
    44   21   22 2   
    45   21   42 1   
    46   22   23 1   
    47   23   24 2   
@<TRIPOS>SUBSTRUCTURE
     1 SB4         1 TEMP              0 ****  ****    0 ROOT
