@<TRIPOS>MOLECULE
SB4
   44    38     1     0     0
SMALL
bcc


@<TRIPOS>ATOM
      1 CA1         2.5430    2.0880    0.0140 c3        1 SB4     -0.111900
      2 CA2         4.0490    1.9650    0.0170 c3        1 SB4      0.157800
      3 NA3         4.4380    0.9740    0.7580 n3        1 SB4     -0.812200
      4 CA4         3.9460    0.6100    1.9020 c3        1 SB4      0.157800
      5 CA5         2.4390    0.7240    1.9100 c3        1 SB4     -0.111900
      6 CA6         1.8290    0.7680    0.4670 c3        1 SB4      0.055000
      7 CB1        -2.9810    0.9060   -1.5770 c1        1 SB4     -0.071250
      8 CB2        -4.2710    1.1960   -1.9870 c1        1 SB4     -0.071250
      9 CB3        -5.3520    0.7080   -1.2720 c1        1 SB4      0.093100
     10 CB4        -5.1420   -0.0710   -0.1450 c1        1 SB4     -0.113500
     11 CB5        -3.8510   -0.3620    0.2650 c1        1 SB4     -0.036500
     12 CB6        -2.7700    0.1270   -0.4510 c1        1 SB4     -0.016000
     13 FB7        -6.5990    0.9820   -1.6730 f         1 SB4     -0.110100
     14 CC1        -0.0780   -1.5230   -1.8470 c1        1 SB4     -0.071250
     15 CC2        -0.2960   -1.2260   -0.5330 c1        1 SB4      0.442800
     16 NC3        -0.4350   -2.2150    0.3640 n1        1 SB4     -0.556800
     17 CC4        -0.3600   -3.5150   -0.0370 c1        1 SB4      0.523600
     18 NC5        -0.1430   -3.8130   -1.3490 n1        1 SB4     -0.541800
     19 CC6        -0.0020   -2.8260   -2.2470 c1        1 SB4     -0.071250
     20 NC7        -0.5250   -4.5600    0.9090 n3        1 SB4     -0.786400
     21 ND1         0.5400    0.9000    0.4910 n3        1 SB4     -0.056400
     22 CD2        -0.1450    1.9250    1.0540 c1        1 SB4      0.131400
     23 ND3        -1.4610    1.7480    0.7850 ne        1 SB4     -0.406400
     24 CD4        -1.5890    0.6300    0.0660 cg        1 SB4     -0.005000
     25 CD5        -0.3410    0.1000   -0.1180 c1        1 SB4     -0.122300
     26 H11         2.2840    2.8110    0.6190 hc        1 SB4      0.064950
     27 H12         2.2460    2.3110   -0.8910 hc        1 SB4      0.064950
     28 H21         4.4380    2.7950    0.3620 h1        1 SB4      0.043450
     29 H22         4.3620    1.8220   -0.9010 h1        1 SB4      0.043450
     30 HN3         5.3520    0.9660    0.8030 hn        1 SB4      0.359800
     31 H41         4.3150    1.1820    2.6060 h1        1 SB4      0.043450
     32 H42         4.1990   -0.3200    2.0790 h1        1 SB4      0.043450
     33 H51         2.0670   -0.0450    2.3860 hc        1 SB4      0.064950
     34 H52         2.1870    1.5420    2.3840 hc        1 SB4      0.064950
     35 H6          2.1120    0.0020   -0.0690 h1        1 SB4      0.081700
     36 HB1        -2.2200    1.2500   -2.0810 ha        1 SB4      0.102000
     37 HB2        -4.4190    1.7450   -2.7800 ha        1 SB4      0.102000
     38 HB4        -5.9030   -0.4150    0.3590 ha        1 SB4      0.090500
     39 HB5        -3.7030   -0.9110    1.0580 ha        1 SB4      0.084500
     40 HC1         0.0240   -0.8050   -2.4990 ha        1 SB4      0.102000
     41 HC6         0.1530   -3.0390   -3.1860 ha        1 SB4      0.102000
     42 HN71       -0.7560   -4.3630    1.7710 hn        1 SB4      0.426300
     43 HN72       -0.4250   -5.4310    0.6500 hn        1 SB4      0.426300
     44 H2          0.2430    2.6620    1.5650 DU        1 SB4      0.201000
@<TRIPOS>BOND
     1    1    2 1   
     2    1    6 1   
     3    1   26 1   
     4    1   27 1   
     5    2    3 1   
     6    2   28 1   
     7    2   29 1   
     8    3    4 1   
     9    3   30 1   
    10    4    5 1   
    11    4   31 1   
    12    4   32 1   
    13    5    6 1   
    14    5   33 1   
    15    5   34 1   
    16    6   21 1   
    17    6   35 1   
    18    7    8 3   
    19    7   36 1   
    20    8   37 1   
    21    9   10 3   
    22    9   13 1   
    23   10   38 1   
    24   11   12 3   
    25   11   39 1   
    26   14   19 3   
    27   14   40 1   
    28   15   16 3   
    29   17   18 3   
    30   17   20 1   
    31   19   41 1   
    32   20   42 1   
    33   20   43 1   
    34   21   22 2   
    35   21   25 1   
    36   22   23 2   
    37   23   24 1   
    38   24   25 3   
@<TRIPOS>SUBSTRUCTURE
     1 SB4         1 TEMP              0 ****  ****    0 ROOT
