@<TRIPOS>MOLECULE
SB5
   40    41     1     0     0
SMALL
bcc


@<TRIPOS>ATOM
      1 FA1         1.6790    1.5520    0.1150 f         1 SB5     -0.124000
      2 CA1         1.5650    0.8450    2.4210 c2        1 SB5     -0.037000
      3 CA2         1.1630    0.6790    1.0280 c2        1 SB5     -0.007000
      4 CA3         0.3160   -0.3010    0.6440 c2        1 SB5     -0.127000
      5 CA4         4.3840    0.4380   -2.9040 c1        1 SB5      0.390000
      6 CA5         4.8680    0.8170   -1.7230 c2        1 SB5     -0.491000
      7 CA6         2.3410    1.7940    2.9710 c2        1 SB5     -0.202000
      8 CB1         6.5150    3.1340    3.0630 c2        1 SB5      0.007000
      9 NB2         5.1770    3.3080    3.1770 n2        1 SB5     -0.174000
     10 CB3         4.4480    2.7170    2.1810 c2        1 SB5      0.015000
     11 NB4         4.8930    1.9680    1.1320 n2        1 SB5     -0.191000
     12 CB5         6.2520    1.8010    1.0470 c2        1 SB5      0.182000
     13 CB6         7.1030    2.4040    2.0260 c2        1 SB5     -0.240000
     14 NC1         8.1850    0.5440   -0.0390 n4        1 SB5     -0.035000
     15 CC2         6.7870    1.0270   -0.0290 c2        1 SB5     -0.355000
     16 CC3         6.2030    0.6050   -1.2520 c2        1 SB5      0.267000
     17 NC4         7.1350   -0.0880   -2.0500 n2        1 SB5     -0.304000
     18 CC5         8.2960   -0.1640   -1.4360 c1        1 SB5      0.034000
     19 CD1         8.4920   -0.4260    1.0220 c3        1 SB5     -0.153000
     20 CE1        10.2640    3.1720    0.5280 cu        1 SB5     -0.197000
     21 CE2        10.8770    2.3110    1.5780 cx        1 SB5     -0.182000
     22 CE3        11.2780    2.4180    0.1470 cu        1 SB5     -0.197000
     23 HCA1        1.1540    0.0740    3.1080 ha        1 SB5      0.192000
     24 HCA3       -0.1090   -1.0130    1.3640 ha        1 SB5      0.162000
     25 HCA4        0.0140   -0.4280   -0.4070 ha        1 SB5      0.162000
     26 HCA6        4.1480    1.3400   -1.0570 ha        1 SB5      0.211000
     27 HCB6        8.2000    2.3310    1.9640 ha        1 SB5      0.181000
     28 HN71        2.5960    1.7970    4.0510 hx        1 SB5      0.207000
     29 HN72        2.5820    2.9780    1.2960 hn        1 SB5      0.276500
     30 HCC5        8.8440    1.3270   -0.0110 hn        1 SB5      0.242000
     31 HCD1        9.5490   -0.7810    0.8810 hx        1 SB5      0.122000
     32 HCD2        7.7960   -1.3020    0.9400 hx        1 SB5      0.122000
     33 HCE1        8.3770    0.0490    2.0310 hx        1 SB5      0.122000
     34 HC21        9.5390    3.9340    0.3350 ha        1 SB5      0.200000
     35 HC22       11.5100    2.7440    2.3740 hc        1 SB5      0.091500
     36 HC31       10.3470    1.4050    1.9350 hc        1 SB5      0.091500
     37 HC32       11.9750    2.0720   -0.5910 ha        1 SB5      0.200000
     38 NB7         2.9570    2.9040    2.2580 n4        1 SB5      0.058000
     39 HB73        2.7580    3.7780    2.7700 hn        1 SB5      0.276500
     40 HCB1        7.1210    3.6200    3.8550 h4        1 SB5      0.203000
@<TRIPOS>BOND
     1    1    3 1   
     2    2    3 1   
     3    2    7 1   
     4    2   23 1   
     5    3    4 1   
     6    4   24 1   
     7    4   25 1   
     8    5    6 1   
     9    6   16 1   
    10    6   26 1   
    11    7   28 1   
    12    7   38 1   
    13    8    9 1   
    14    8   13 1   
    15    8   40 1   
    16    9   10 1   
    17   10   11 1   
    18   10   38 1   
    19   11   12 1   
    20   12   13 1   
    21   12   15 1   
    22   13   27 1   
    23   14   15 1   
    24   14   18 1   
    25   14   19 1   
    26   14   30 1   
    27   15   16 1   
    28   16   17 1   
    29   17   18 1   
    30   19   31 1   
    31   19   32 1   
    32   19   33 1   
    33   20   21 1   
    34   20   22 1   
    35   20   34 1   
    36   21   22 1   
    37   21   35 1   
    38   21   36 1   
    39   22   37 1   
    40   29   38 1   
    41   38   39 1   
@<TRIPOS>SUBSTRUCTURE
     1 SB5         1 TEMP              0 ****  ****    0 ROOT
