@<TRIPOS>MOLECULE
SB5
   39    41     1     0     0
SMALL
bcc


@<TRIPOS>ATOM
      1 FA1         0.0640    0.4060   -0.2130 f         1 SB5     -0.099500
      2 CA1         1.8130   -1.2560    0.5980 c1        1 SB5     -0.102800
      3 CA2         1.2650   -0.0560    0.0140 c2        1 SB5      0.140200
      4 CA3         2.6050    0.6070   -0.3230 c3        1 SB5     -0.119000
      5 CA4         3.0940   -0.6980    0.3020 ce        1 SB5     -0.065300
      6 CA5         4.4170   -1.1970    0.4790 ce        1 SB5     -0.070000
      7 CA6         4.6190   -2.4880    0.8250 c2        1 SB5     -0.062000
      8 CB1         5.6470    3.3320    5.1970 c1        1 SB5      0.528800
      9 NB2         5.4470    3.5970    4.0590 n1        1 SB5     -0.935400
     10 CB3         5.1960    3.9020    2.7060 ce        1 SB5      0.962500
     11 NB4         5.1340    3.0300    1.7190 nf        1 SB5     -0.691300
     12 CB5         5.1390    1.6330    1.8920 cf        1 SB5      0.177600
     13 CB6         4.4740    0.9470    2.8500 c2        1 SB5     -0.234000
     14 NC1         7.0860    1.4190    0.2180 nx        1 SB5     -0.528800
     15 CC2         5.8480    0.8960    0.8450 cf        1 SB5     -0.141000
     16 CC3         5.5520   -0.3100    0.2250 ce        1 SB5      0.575700
     17 NC4         6.5310   -0.6460   -0.7590 n1        1 SB5     -1.092500
     18 CC5         7.4290    0.2990   -0.8260 c1        1 SB5      0.298600
     19 CE1         9.2510    2.5540    0.6670 cx        1 SB5     -0.174700
     20 CE2        10.6930    2.1130    0.6850 cx        1 SB5     -0.114400
     21 CE3         9.9730    2.2450   -0.6200 cx        1 SB5     -0.114400
     22 HCA1        5.6260   -2.9160    0.9220 ha        1 SB5      0.145000
     23 HCA3        2.8240    0.7480   -1.4040 hc        1 SB5      0.074700
     24 HCA4        2.8490    1.5380    0.2330 hc        1 SB5      0.074700
     25 HCA6        3.7690   -3.1620    1.0170 ha        1 SB5      0.145000
     26 HCB1        3.8770    1.4240    3.6350 ha        1 SB5      0.134500
     27 HCB6        4.4750   -0.1520    2.8620 ha        1 SB5      0.134500
     28 HN71        5.4420    5.9230    3.0120 hn        1 SB5      0.425800
     29 HN72        4.9030    5.5140    1.4750 hn        1 SB5      0.425800
     30 HCC5        6.8940    2.2900   -0.2740 hn        1 SB5      0.441800
     31 HCD1        7.7880    1.9860    2.1500 hx        1 SB5      0.075700
     32 HCD2        8.6540    0.5850    1.3620 hx        1 SB5      0.075700
     33 HCE1        9.6770    1.3310   -1.1750 hc        1 SB5      0.086200
     34 HC21       11.4640    2.8550    0.9580 hc        1 SB5      0.086200
     35 HC22        9.0230    3.6110    0.9040 hc        1 SB5      0.077700
     36 HC31       10.2310    3.0810   -1.2950 hc        1 SB5      0.086200
     37 HC32       10.9400    1.1040    1.0620 hc        1 SB5      0.086200
     38 CD1         8.2030    1.6020    1.1750 c3        1 SB5      0.186800
     39 NB7         4.9610    5.2690    2.4390 nv        1 SB5     -0.900800
@<TRIPOS>BOND
     1    1    3 1   
     2    2    3 2   
     3    2    5 2   
     4    3    4 1   
     5    4    5 1   
     6    4   23 1   
     7    4   24 1   
     8    5    6 1   
     9    6    7 2   
    10    6   16 1   
    11    7   22 1   
    12    7   25 1   
    13    8    9 3   
    14    9   10 1   
    15   10   11 2   
    16   10   39 1   
    17   11   12 1   
    18   12   13 2   
    19   12   15 1   
    20   13   26 1   
    21   13   27 1   
    22   14   15 1   
    23   14   18 1   
    24   14   30 1   
    25   14   38 1   
    26   15   16 2   
    27   16   17 1   
    28   17   18 3   
    29   19   20 1   
    30   19   21 1   
    31   19   35 1   
    32   19   38 1   
    33   20   21 1   
    34   20   34 1   
    35   20   37 1   
    36   21   33 1   
    37   21   36 1   
    38   28   39 1   
    39   29   39 1   
    40   31   38 1   
    41   32   38 1   
@<TRIPOS>SUBSTRUCTURE
     1 SB5         1 TEMP              0 ****  ****    0 ROOT
