@<TRIPOS>MOLECULE
SB5
   39    40     1     0     0
SMALL
bcc


@<TRIPOS>ATOM
      1 FA1        -0.2260   -0.7800   -1.1960 f         1 SB5     -0.037000
      2 CA1         1.4100   -0.9520    0.7460 c1        1 SB5     -0.243000
      3 CA2         0.9230   -0.6730   -0.5850 c2        1 SB5      0.148000
      4 CA3         2.2560   -0.1790   -1.1600 c3        1 SB5     -0.187000
      5 CA4         2.6790   -0.5100    0.2690 c2        1 SB5      0.004000
      6 CA5         3.9480   -0.4150    0.9200 c2        1 SB5     -0.052000
      7 CA6         4.0820   -0.8880    2.1780 c2        1 SB5     -0.093000
      8 CB1         3.8300    2.6280    4.6700 c1        1 SB5      0.206000
      9 NB2         4.4310    3.1460    3.7890 n2        1 SB5     -0.371000
     10 CB3         5.1220    3.7430    2.7150 c2        1 SB5      0.295000
     11 NB4         5.9350    3.1140    1.8910 n2        1 SB5     -0.263000
     12 CB5         6.1890    1.7300    1.9430 c2        1 SB5      0.053000
     13 CB6         6.6740    1.0560    3.0070 c2        1 SB5     -0.244000
     14 NC1         6.9020    1.4070   -0.4910 n4        1 SB5     -0.028000
     15 CC2         6.0240    1.0550    0.6500 c2        1 SB5     -0.238000
     16 CC3         5.0640    0.1720    0.1820 c2        1 SB5      0.096000
     17 NC4         5.2610   -0.1160   -1.2050 n2        1 SB5     -0.288000
     18 CC5         6.2880    0.5490   -1.6560 c1        1 SB5     -0.074000
     19 CE1         9.1160    2.1070    0.4130 c3        1 SB5     -0.369000
     20 CE2        10.5810    2.2700    0.1080 c3        1 SB5     -0.364000
     21 CE3         9.6220    3.3160   -0.3160 c1        1 SB5      0.205000
     22 HCA1        5.0350   -0.8600    2.7220 ha        1 SB5      0.142000
     23 HCA3        2.7060   -0.8010   -1.9650 hc        1 SB5      0.120500
     24 HCA4        2.2990    0.8920   -1.4510 hc        1 SB5      0.120500
     25 HCA6        3.2210   -1.3290    2.7080 ha        1 SB5      0.142000
     26 HCB1        6.8000    1.5100    3.9970 ha        1 SB5      0.128000
     27 HCB6        6.9860    0.0070    2.9250 ha        1 SB5      0.128000
     28 HN71        4.5730    5.6410    3.2960 hn        1 SB5      0.223500
     29 HN72        5.4220    5.5740    1.8460 hn        1 SB5      0.223500
     30 HCC5        6.8120    2.4000   -0.7080 hn        1 SB5      0.246000
     31 HCD1        8.3830    0.0840    0.2610 hx        1 SB5      0.130500
     32 HCD2        8.7520    0.8810   -1.3410 hx        1 SB5      0.130500
     33 HCE1       10.9250    2.4250    3.5290 ha        1 SB5      0.000500
     34 HC21       10.4510    2.3440    3.0520 ha        1 SB5      0.000500
     35 HC22        8.7880    2.2350    1.4700 hc        1 SB5      0.169000
     36 HC31       11.2780    2.4540    0.9500 hc        1 SB5      0.159500
     37 HC32       11.0580    1.6320   -0.6620 hc        1 SB5      0.159500
     38 CD1         8.3260    1.0530   -0.3090 c3        1 SB5     -0.038000
     39 NB7         4.8340    5.1070    2.5000 n3        1 SB5     -0.342000
@<TRIPOS>BOND
     1    1    3 1   
     2    2    3 1   
     3    2    5 1   
     4    3    4 1   
     5    4    5 1   
     6    4   23 1   
     7    4   24 1   
     8    5    6 1   
     9    6    7 1   
    10    6   16 1   
    11    7   22 1   
    12    7   25 1   
    13    8    9 1   
    14    9   10 1   
    15   10   11 1   
    16   10   39 1   
    17   11   12 1   
    18   12   13 1   
    19   12   15 1   
    20   13   26 1   
    21   13   27 1   
    22   14   15 1   
    23   14   18 1   
    24   14   30 1   
    25   14   38 1   
    26   15   16 1   
    27   16   17 1   
    28   17   18 1   
    29   19   20 1   
    30   19   21 1   
    31   19   35 1   
    32   19   38 1   
    33   20   21 1   
    34   20   36 1   
    35   20   37 1   
    36   28   39 1   
    37   29   39 1   
    38   31   38 1   
    39   32   38 1   
    40   33   34 1   
@<TRIPOS>SUBSTRUCTURE
     1 SB5         1 TEMP              0 ****  ****    0 ROOT
