@<TRIPOS>MOLECULE
SB5
   39    42     1     0     0
SMALL
bcc


@<TRIPOS>ATOM
      1 FA1        -0.7630   -0.0130    5.7600 f         1 SB5     -0.143900
      2 CA1        -0.0260   -0.8230    3.6360 ca        1 SB5     -0.170500
      3 CA2        -0.9330   -0.0860    4.4180 ca        1 SB5      0.122900
      4 CA3        -2.0180    0.5740    3.8110 ca        1 SB5     -0.170500
      5 CA4        -2.1850    0.4960    2.4330 ca        1 SB5     -0.085000
      6 CA5        -1.2800   -0.2310    1.6430 ca        1 SB5     -0.113500
      7 CA6        -0.2070   -0.8910    2.2590 ca        1 SB5     -0.085000
      8 CB1         3.1160   -1.5250   -0.7860 ca        1 SB5      0.464200
      9 NB2         3.7760   -0.4420   -0.3580 nb        1 SB5     -0.746000
     10 CB3         2.9980    0.6880   -0.1040 ca        1 SB5      0.867900
     11 NB4         1.6130    0.7430   -0.2320 nb        1 SB5     -0.728000
     12 CB5         1.0070   -0.3880   -0.6570 ca        1 SB5      0.555800
     13 CB6         1.7220   -1.5670   -0.9650 ca        1 SB5     -0.422600
     14 NC1        -1.1190   -0.4800   -2.0220 na        1 SB5     -0.189900
     15 CC2        -0.4530   -0.3870   -0.7900 cc        1 SB5     -0.268100
     16 CC3        -1.4610   -0.3060    0.2050 cd        1 SB5      0.391800
     17 NC4        -2.7230   -0.3350   -0.4100 nd        1 SB5     -0.662000
     18 CC5        -2.4900   -0.4250   -1.7340 cc        1 SB5      0.410400
     19 CD1        -0.5250   -0.4840   -3.3290 c3        1 SB5      0.064300
     20 CE1        -0.4220    0.8720   -3.9830 cx        1 SB5     -0.154700
     21 CE2        -0.2710    0.9170   -5.4800 cx        1 SB5     -0.124900
     22 CE3        -1.5500    1.3730   -4.8460 cx        1 SB5     -0.124900
     23 HCA1        0.8150   -1.3410    4.1180 ha        1 SB5      0.147000
     24 HCA3       -2.7240    1.1440    4.4300 ha        1 SB5      0.147000
     25 HCA4       -3.0370    1.0090    1.9590 ha        1 SB5      0.146000
     26 HCA6        0.4990   -1.4720    1.6450 ha        1 SB5      0.146000
     27 HCB1        3.7420   -2.4140   -0.9900 h4        1 SB5      0.029100
     28 HCB6        1.2110   -2.4730   -1.3060 ha        1 SB5      0.159000
     29 HN71        4.5930    1.7820    0.5640 hn        1 SB5      0.432800
     30 HN72        3.1090    2.5900    0.6450 hn        1 SB5      0.432800
     31 HCC5       -3.2560   -0.4680   -2.5160 h5        1 SB5      0.064100
     32 HCD1        0.5150   -0.9160   -3.2350 h1        1 SB5      0.066700
     33 HCD2       -1.1380   -1.1720   -3.9810 h1        1 SB5      0.066700
     34 HCE1        0.1370    1.6090   -3.3730 hc        1 SB5      0.102700
     35 HC21        0.4120    1.6660   -5.9200 hc        1 SB5      0.074450
     36 HC22       -0.2610   -0.0300   -6.0480 hc        1 SB5      0.074450
     37 HC31       -2.4560    0.7500   -4.9590 hc        1 SB5      0.074450
     38 HC32       -1.7920    2.4500   -4.8290 hc        1 SB5      0.074450
     39 NB7         3.6580    1.8680    0.2400 nh        1 SB5     -0.926500
@<TRIPOS>BOND
     1    1    3 1   
     2    2    3 ar  
     3    2    7 ar  
     4    2   23 1   
     5    3    4 ar  
     6    4    5 ar  
     7    4   24 1   
     8    5    6 ar  
     9    5   25 1   
    10    6    7 ar  
    11    6   16 1   
    12    7   26 1   
    13    8    9 ar  
    14    8   13 ar  
    15    8   27 1   
    16    9   10 ar  
    17   10   11 ar  
    18   10   39 1   
    19   11   12 ar  
    20   12   13 ar  
    21   12   15 1   
    22   13   28 1   
    23   14   15 1   
    24   14   18 1   
    25   14   19 1   
    26   15   16 2   
    27   16   17 1   
    28   17   18 2   
    29   18   31 1   
    30   19   20 1   
    31   19   32 1   
    32   19   33 1   
    33   20   21 1   
    34   20   22 1   
    35   20   34 1   
    36   21   22 1   
    37   21   35 1   
    38   21   36 1   
    39   22   37 1   
    40   22   38 1   
    41   29   39 1   
    42   30   39 1   
@<TRIPOS>SUBSTRUCTURE
     1 SB5         1 TEMP              0 ****  ****    0 ROOT
