@<TRIPOS>MOLECULE
SB6
   38    38     1     0     0
SMALL
bcc


@<TRIPOS>ATOM
      1 FA1         2.1900   -2.1410    0.9130 f         1 SB6     -0.098000
      2 CA1         0.7440   -0.8560    2.2530 c1        1 SB6     -0.176000
      3 CA2         1.9000   -0.9210    1.4320 c2        1 SB6      0.178000
      4 CA3         2.6450    0.1910    1.1830 c2        1 SB6     -0.166000
      5 CA4         3.8300    0.2950    0.3720 c2        1 SB6     -0.065000
      6 CA5         4.5960   -0.7380   -0.0290 c2        1 SB6     -0.134000
      7 CA6        -0.2270   -0.7880    2.9490 c1        1 SB6     -0.138000
      8 CB1         7.1150   -0.3310   -6.3320 c2        1 SB6     -0.501000
      9 NB2         4.3620   -6.0020   -2.0130 n1        1 SB6     -0.052000
     10 CB3         4.5930   -4.8710   -1.8560 c1        1 SB6     -0.102000
     11 CB4         4.8490   -3.4910   -1.6630 c2        1 SB6     -0.127000
     12 CB5         6.0880   -2.9730   -1.7770 c2        1 SB6     -0.022000
     13 CB6         7.3270   -0.7550   -5.1240 c1        1 SB6      0.121000
     14 NC1         7.6050   -0.9840   -2.2080 nx        1 SB6     -0.052000
     15 CC2         6.4140   -1.5950   -1.5700 c2        1 SB6     -0.270000
     16 CC3         5.7800   -0.5800   -0.8420 c2        1 SB6      0.111000
     17 NC4         6.4730    0.6560   -0.9700 n2        1 SB6     -0.289000
     18 CC5         7.5260    0.4920   -1.7320 c1        1 SB6     -0.085000
     19 CE1         9.1620   -1.7450   -0.3890 cx        1 SB6     -0.196000
     20 CE2        10.5740   -1.5460    0.0990 cx        1 SB6     -0.196000
     21 CE3         9.5250   -0.5260    0.4170 cx        1 SB6     -0.196000
     22 HCA1       -1.0880   -0.7280    3.5670 ha        1 SB6      0.231000
     23 HCA3        2.3060    1.1370    1.6420 ha        1 SB6      0.153000
     24 HCA4        4.0990    1.3310    0.0860 ha        1 SB6      0.159000
     25 HCA6        4.3650   -1.7770    0.2680 ha        1 SB6      0.145000
     26 HCB1        6.7950   -0.9740   -7.1690 ha        1 SB6      0.207500
     27 HCB3        7.2340    0.7260   -6.6300 ha        1 SB6      0.207500
     28 HCB4        3.9610   -2.8800   -1.4240 ha        1 SB6      0.164000
     29 HCB6        6.9320   -3.6330   -2.0550 ha        1 SB6      0.129000
     30 HCC5        7.4920   -0.9920   -3.2470 hn        1 SB6      0.278000
     31 HCD1        9.6940   -0.9560   -2.3330 hx        1 SB6      0.107500
     32 HCD2        8.9400   -2.6280   -2.3380 hx        1 SB6      0.107500
     33 HCE1        9.5410    0.4550   -0.0960 hc        1 SB6      0.120250
     34 HE21        8.5380   -2.5270    0.0880 hc        1 SB6      0.130000
     35 HE22       11.3640   -1.2950   -0.6310 hc        1 SB6      0.120250
     36 HE31       10.9490   -2.2060    0.9020 hc        1 SB6      0.120250
     37 HE32        9.1470   -0.4450    1.4520 hc        1 SB6      0.120250
     38 CD1         8.9000   -1.6060   -1.8620 c3        1 SB6     -0.047000
@<TRIPOS>BOND
     1    1    3 1   
     2    2    3 1   
     3    2    7 1   
     4    3    4 1   
     5    4    5 1   
     6    4   23 1   
     7    5    6 1   
     8    5   24 1   
     9    6   16 1   
    10    6   25 1   
    11    7   22 1   
    12    8   13 1   
    13    8   26 1   
    14    8   27 1   
    15    9   10 1   
    16   10   11 1   
    17   11   12 1   
    18   11   28 1   
    19   12   15 1   
    20   12   29 1   
    21   14   15 1   
    22   14   18 1   
    23   14   30 1   
    24   14   38 1   
    25   15   16 1   
    26   16   17 1   
    27   17   18 1   
    28   19   20 1   
    29   19   21 1   
    30   19   34 1   
    31   19   38 1   
    32   20   21 1   
    33   20   35 1   
    34   20   36 1   
    35   21   33 1   
    36   21   37 1   
    37   31   38 1   
    38   32   38 1   
@<TRIPOS>SUBSTRUCTURE
     1 SB6         1 TEMP              0 ****  ****    0 ROOT
