@<TRIPOS>MOLECULE
SB6
   38    41     1     0     0
SMALL
bcc


@<TRIPOS>ATOM
      1 FA1         0.3700    0.2880   -5.8210 f         1 SB6     -0.142900
      2 CA1         1.7280    0.6870   -3.8940 ca        1 SB6     -0.170500
      3 CA2         0.5710    0.1500   -4.4890 ca        1 SB6      0.124900
      4 CA3        -0.3760   -0.5320   -3.7030 ca        1 SB6     -0.170500
      5 CA4        -0.1610   -0.6680   -2.3360 ca        1 SB6     -0.087000
      6 CA5         0.9840   -0.1290   -1.7320 ca        1 SB6     -0.122500
      7 CA6         1.9270    0.5430   -2.5260 ca        1 SB6     -0.087000
      8 CB1        -3.4560   -1.0330    0.9420 ca        1 SB6      0.391200
      9 NB2        -4.0250    0.1030    0.4920 nb        1 SB6     -0.658000
     10 CB3        -3.1980    1.0990    0.1190 ca        1 SB6      0.391200
     11 CB4        -1.7960    1.0130    0.1790 ca        1 SB6     -0.232300
     12 CB5        -1.2180   -0.1750    0.6490 ca        1 SB6      0.021000
     13 CB6        -2.0660   -1.2220    1.0410 ca        1 SB6     -0.232300
     14 NC1         0.9320   -0.5240    1.9230 na        1 SB6     -0.191900
     15 CC2         0.2250   -0.3140    0.7260 cc        1 SB6     -0.165600
     16 CC3         1.2030   -0.2790   -0.3050 cd        1 SB6      0.378800
     17 NC4         2.4810   -0.4400    0.2550 nd        1 SB6     -0.660000
     18 CC5         2.2900   -0.5730    1.5820 cc        1 SB6      0.408400
     19 CD1         0.3970   -0.5520    3.2550 c3        1 SB6      0.063300
     20 CE1         0.5480    0.7380    4.0250 cx        1 SB6     -0.155700
     21 CE2         0.5170    0.6640    5.5290 cx        1 SB6     -0.123900
     22 CE3         1.7990    0.9900    4.8230 cx        1 SB6     -0.123900
     23 HCA1        2.4650    1.2140   -4.5160 ha        1 SB6      0.148000
     24 HCA3       -1.2740   -0.9550   -4.1760 ha        1 SB6      0.148000
     25 HCA4       -0.8990   -1.2060   -1.7200 ha        1 SB6      0.148000
     26 HCA6        2.8370    0.9580   -2.0640 ha        1 SB6      0.148000
     27 HCB3       -3.6890    2.0180   -0.2490 h4        1 SB6      0.026100
     28 HCB4       -1.1690    1.8570   -0.1410 ha        1 SB6      0.152500
     29 HCB6       -1.6580   -2.1740    1.4050 ha        1 SB6      0.152500
     30 HCC5        3.0780   -0.7160    2.3300 h5        1 SB6      0.064100
     31 HCD1       -0.7030   -0.8010    3.1860 h1        1 SB6      0.067700
     32 HCD2        0.9150   -1.3860    3.8150 h1        1 SB6      0.067700
     33 HCE1        0.0600    1.6010    3.5290 hc        1 SB6      0.096700
     34 HE21       -0.0100    1.4580    6.0860 hc        1 SB6      0.075200
     35 HE22        0.4090   -0.3210    6.0160 hc        1 SB6      0.075200
     36 HE31        2.6070    0.2370    4.8040 hc        1 SB6      0.075200
     37 HE32        2.1980    2.0190    4.8740 hc        1 SB6      0.075200
     38 HCB1       -4.1550   -1.8360    1.2370 h4        1 SB6      0.026100
@<TRIPOS>BOND
     1    1    3 1   
     2    2    3 ar  
     3    2    7 ar  
     4    2   23 1   
     5    3    4 ar  
     6    4    5 ar  
     7    4   24 1   
     8    5    6 ar  
     9    5   25 1   
    10    6    7 ar  
    11    6   16 1   
    12    7   26 1   
    13    8    9 ar  
    14    8   13 ar  
    15    8   38 1   
    16    9   10 ar  
    17   10   11 ar  
    18   10   27 1   
    19   11   12 ar  
    20   11   28 1   
    21   12   13 ar  
    22   12   15 1   
    23   13   29 1   
    24   14   15 1   
    25   14   18 1   
    26   14   19 1   
    27   15   16 2   
    28   16   17 1   
    29   17   18 2   
    30   18   30 1   
    31   19   20 1   
    32   19   31 1   
    33   19   32 1   
    34   20   21 1   
    35   20   22 1   
    36   20   33 1   
    37   21   22 1   
    38   21   34 1   
    39   21   35 1   
    40   22   36 1   
    41   22   37 1   
@<TRIPOS>SUBSTRUCTURE
     1 SB6         1 TEMP              0 ****  ****    0 ROOT
