@<TRIPOS>MOLECULE
SB7
   29    29     1     0     0
SMALL
bcc


@<TRIPOS>ATOM
      1 C1          0.0170    0.2130   -0.1070 ca        1 SB7     -0.120000
      2 C2          1.4100    0.1960   -0.0530 ca        1 SB7     -0.122000
      3 C3          2.0630   -0.0060    1.1680 ca        1 SB7     -0.114300
      4 C4          1.3080   -0.1870    2.3330 ca        1 SB7     -0.122000
      5 C5         -0.0840   -0.1700    2.2760 ca        1 SB7     -0.120000
      6 C6         -0.7320    0.0290    1.0560 ca        1 SB7     -0.110000
      7 C7          3.5490   -0.0070    1.2350 c3        1 SB7     -0.023100
      8 C8          4.0770   -1.4330    1.3110 c3        1 SB7     -0.109400
      9 C11         5.5950   -1.3990    1.3680 c3        1 SB7      0.131800
     10 N14         6.2070   -2.7880    1.4370 nx        1 SB7     -0.524900
     11 O22         6.0890   -3.2150    2.7170 oh        1 SB7     -0.356300
     12 C24         7.6930   -2.7470    1.0170 c3        1 SB7      0.325600
     13 O25         7.7530   -2.5360   -0.3530 oh        1 SB7     -0.541800
     14 H1         -0.4920    0.3770   -1.0690 ha        1 SB7      0.145000
     15 H2          1.9940    0.3520   -0.9720 ha        1 SB7      0.129500
     16 H4          1.8150   -0.3320    3.2990 ha        1 SB7      0.129500
     17 H5         -0.6730   -0.3070    3.1960 ha        1 SB7      0.145000
     18 H6         -1.8320    0.0460    1.0120 ha        1 SB7      0.147000
     19 H71         3.9770    0.5050    0.3320 hc        1 SB7      0.060200
     20 H72         3.8870    0.5660    2.1400 hc        1 SB7      0.060200
     21 H81         3.6620   -1.9340    2.2260 hc        1 SB7      0.074200
     22 H82         3.7260   -2.0060    0.4120 hc        1 SB7      0.074200
     23 H111        5.9410   -0.8350    2.2810 hx        1 SB7      0.118700
     24 H112        6.0230   -0.9280    0.4360 hx        1 SB7      0.118700
     25 H22         6.3690   -4.1550    2.7700 ho        1 SB7      0.458000
     26 H241        8.1500   -1.8410    1.5170 hx        1 SB7      0.124200
     27 H242        8.1690   -3.7070    1.3630 hx        1 SB7      0.124200
     28 H25         7.8640   -3.3830   -0.8170 ho        1 SB7      0.452000
     29 H141        5.6730   -3.4010    0.7940 hn        1 SB7      0.445800
@<TRIPOS>BOND
     1    1    2 ar  
     2    1    6 ar  
     3    1   14 1   
     4    2    3 ar  
     5    2   15 1   
     6    3    4 ar  
     7    3    7 1   
     8    4    5 ar  
     9    4   16 1   
    10    5    6 ar  
    11    5   17 1   
    12    6   18 1   
    13    7    8 1   
    14    7   19 1   
    15    7   20 1   
    16    8    9 1   
    17    8   21 1   
    18    8   22 1   
    19    9   10 1   
    20    9   23 1   
    21    9   24 1   
    22   10   11 1   
    23   10   12 1   
    24   10   29 1   
    25   11   25 1   
    26   12   13 1   
    27   12   26 1   
    28   12   27 1   
    29   13   28 1   
@<TRIPOS>SUBSTRUCTURE
     1 SB7         1 TEMP              0 ****  ****    0 ROOT
