@<TRIPOS>MOLECULE
SB7
   28    28     1     0     0
SMALL
bcc


@<TRIPOS>ATOM
      1 C1         -3.9330    1.2050   -0.5930 ca        1 SB7     -0.128000
      2 C2         -2.6320    1.3860   -0.1240 ca        1 SB7     -0.127500
      3 C3         -1.9190    0.3090    0.4130 ca        1 SB7     -0.078300
      4 C4         -2.5260   -0.9510    0.4760 ca        1 SB7     -0.127500
      5 C5         -3.8260   -1.1310    0.0080 ca        1 SB7     -0.128000
      6 C6         -4.5320   -0.0530   -0.5280 ca        1 SB7     -0.132000
      7 C7         -0.5330    0.4980    0.9240 c3        1 SB7     -0.037100
      8 C8          0.4930   -0.1180   -0.0070 c3        1 SB7     -0.075400
      9 C11         1.8930    0.0700    0.5670 c3        1 SB7      0.129800
     10 N14         2.9460   -0.4910   -0.3000 n3        1 SB7     -0.526100
     11 O22         2.8680   -1.8340   -0.3100 oh        1 SB7     -0.422300
     12 C24         4.2960   -0.1230    0.2110 c3        1 SB7      0.339600
     13 O25         4.5110    1.2730    0.1550 oh        1 SB7     -0.594800
     14 H1         -4.4870    2.0570   -1.0130 ha        1 SB7      0.130000
     15 H2         -2.1650    2.3810   -0.1770 ha        1 SB7      0.131500
     16 H4         -1.9700   -1.8010    0.8990 ha        1 SB7      0.131500
     17 H5         -4.2950   -2.1240    0.0610 ha        1 SB7      0.130000
     18 H6         -5.5580   -0.1950   -0.8970 ha        1 SB7      0.130000
     19 H71        -0.4470    0.0250    1.9400 hc        1 SB7      0.049200
     20 H72        -0.3140    1.5920    1.0480 hc        1 SB7      0.049200
     21 H81         0.4220    0.3600   -1.0180 hc        1 SB7      0.051700
     22 H82         0.2790   -1.2120   -0.1360 hc        1 SB7      0.051700
     23 H111        1.9270   -0.3860    1.5980 h1        1 SB7      0.052700
     24 H112        2.1200    1.1690    0.6600 h1        1 SB7      0.052700
     25 H22         2.6140   -2.0550   -1.2250 ho        1 SB7      0.421000
     26 H241        5.0500   -0.6680   -0.4230 h2        1 SB7      0.057200
     27 H242        4.4390   -0.3860    1.2980 h2        1 SB7      0.057200
     28 H25         4.4380    1.5570   -0.7650 ho        1 SB7      0.410000
@<TRIPOS>BOND
     1    1    2 ar  
     2    1    6 ar  
     3    1   14 1   
     4    2    3 ar  
     5    2   15 1   
     6    3    4 ar  
     7    3    7 1   
     8    4    5 ar  
     9    4   16 1   
    10    5    6 ar  
    11    5   17 1   
    12    6   18 1   
    13    7    8 1   
    14    7   19 1   
    15    7   20 1   
    16    8    9 1   
    17    8   21 1   
    18    8   22 1   
    19    9   10 1   
    20    9   23 1   
    21    9   24 1   
    22   10   11 1   
    23   10   12 1   
    24   11   25 1   
    25   12   13 1   
    26   12   26 1   
    27   12   27 1   
    28   13   28 1   
@<TRIPOS>SUBSTRUCTURE
     1 SB7         1 TEMP              0 ****  ****    0 ROOT
