@<TRIPOS>MOLECULE
SB7
   29    29     1     0     0
SMALL
bcc


@<TRIPOS>ATOM
      1 C1          0.0150    0.2010   -0.1110 ca        1 SB7     -0.120000
      2 C2          1.4080    0.1850   -0.0570 ca        1 SB7     -0.122000
      3 C3          2.0610   -0.0080    1.1650 ca        1 SB7     -0.114300
      4 C4          1.3070   -0.1820    2.3320 ca        1 SB7     -0.122000
      5 C5         -0.0860   -0.1670    2.2740 ca        1 SB7     -0.120000
      6 C6         -0.7330    0.0240    1.0530 ca        1 SB7     -0.110000
      7 C7          3.5480   -0.0080    1.2320 c3        1 SB7     -0.023100
      8 C8          4.0770   -1.4320    1.3120 c3        1 SB7     -0.109400
      9 C11         5.5960   -1.3970    1.3690 c3        1 SB7      0.131800
     10 N14         6.2090   -2.7850    1.4400 n4        1 SB7     -0.524900
     11 O22         6.0910   -3.2090    2.7210 oh        1 SB7     -0.356300
     12 C24         7.6950   -2.7430    1.0210 c3        1 SB7      0.325600
     13 O25         7.7550   -2.5340   -0.3500 oh        1 SB7     -0.541800
     14 H1         -0.4940    0.3590   -1.0740 ha        1 SB7      0.145000
     15 H2          1.9920    0.3370   -0.9770 ha        1 SB7      0.130000
     16 H4          1.8140   -0.3220    3.2980 ha        1 SB7      0.130000
     17 H5         -0.6740   -0.2990    3.1950 ha        1 SB7      0.145000
     18 H6         -1.8330    0.0400    1.0090 ha        1 SB7      0.147000
     19 H71         3.8850    0.5690    2.1360 hc        1 SB7      0.060200
     20 H72         3.9750    0.5020    0.3270 hc        1 SB7      0.060200
     21 H81         3.7270   -2.0080    0.4150 hc        1 SB7      0.074200
     22 H82         3.6630   -1.9310    2.2290 hc        1 SB7      0.074200
     23 H111        6.0230   -0.9270    0.4360 hx        1 SB7      0.118700
     24 H112        5.9410   -0.8300    2.2800 hx        1 SB7      0.118700
     25 H22         6.3730   -4.1490    2.7760 ho        1 SB7      0.458000
     26 H241        8.1510   -1.8360    1.5190 hx        1 SB7      0.123700
     27 H242        8.1720   -3.7010    1.3680 hx        1 SB7      0.123700
     28 H25         7.8680   -3.3820   -0.8120 ho        1 SB7      0.452000
     29 H141        5.6750   -3.3990    0.7990 hn        1 SB7      0.445800
@<TRIPOS>BOND
     1    1    2 ar  
     2    1    6 ar  
     3    1   14 1   
     4    2    3 ar  
     5    2   15 1   
     6    3    4 ar  
     7    3    7 1   
     8    4    5 ar  
     9    4   16 1   
    10    5    6 ar  
    11    5   17 1   
    12    6   18 1   
    13    7    8 1   
    14    7   19 1   
    15    7   20 1   
    16    8    9 1   
    17    8   21 1   
    18    8   22 1   
    19    9   10 1   
    20    9   23 1   
    21    9   24 1   
    22   10   11 1   
    23   10   12 1   
    24   10   29 1   
    25   11   25 1   
    26   12   13 1   
    27   12   26 1   
    28   12   27 1   
    29   13   28 1   
@<TRIPOS>SUBSTRUCTURE
     1 SB7         1 TEMP              0 ****  ****    0 ROOT
