@<TRIPOS>MOLECULE
SB7
   29    29     1     0     0
SMALL
bcc


@<TRIPOS>ATOM
      1 C1          0.0140    0.2270   -0.0880 ca        1 SB7     -0.120000
      2 C2          1.4070    0.2100   -0.0350 ca        1 SB7     -0.122000
      3 C3          2.0620   -0.0070    1.1820 ca        1 SB7     -0.114300
      4 C4          1.3090   -0.2030    2.3460 ca        1 SB7     -0.122000
      5 C5         -0.0830   -0.1860    2.2900 ca        1 SB7     -0.120000
      6 C6         -0.7330    0.0280    1.0740 ca        1 SB7     -0.110000
      7 C7          3.5490   -0.0080    1.2460 c3        1 SB7     -0.023100
      8 C8          4.0770   -1.4340    1.3080 c3        1 SB7     -0.109400
      9 C11         5.5960   -1.4000    1.3640 c3        1 SB7      0.131800
     10 N14         6.2080   -2.7890    1.4190 n4        1 SB7     -0.524900
     11 O22         6.0920   -3.2280    2.6950 oh        1 SB7     -0.356300
     12 C24         7.6940   -2.7440    0.9980 c3        1 SB7      0.325600
     13 O25         7.7520   -2.5200   -0.3710 oh        1 SB7     -0.541800
     14 H1         -0.4960    0.4030   -1.0470 ha        1 SB7      0.145000
     15 H2          1.9900    0.3790   -0.9530 ha        1 SB7      0.129500
     16 H4          1.8180   -0.3600    3.3080 ha        1 SB7      0.129500
     17 H5         -0.6710   -0.3360    3.2090 ha        1 SB7      0.145000
     18 H6         -1.8330    0.0450    1.0320 ha        1 SB7      0.147000
     19 H71         3.9750    0.5130    0.3480 hc        1 SB7      0.060200
     20 H72         3.8870    0.5570    2.1570 hc        1 SB7      0.060200
     21 H81         3.6630   -1.9440    2.2190 hc        1 SB7      0.074200
     22 H82         3.7260   -1.9980    0.4050 hc        1 SB7      0.074200
     23 H111        5.9420   -0.8440    2.2810 hx        1 SB7      0.118700
     24 H112        6.0220   -0.9200    0.4360 hx        1 SB7      0.118700
     25 H22         6.3730   -4.1680    2.7390 ho        1 SB7      0.458000
     26 H241        8.1510   -1.8420    1.5050 hx        1 SB7      0.124200
     27 H242        8.1710   -3.7060    1.3330 hx        1 SB7      0.124200
     28 H25         7.8630   -3.3620   -0.8420 ho        1 SB7      0.452000
     29 H141        5.6730   -3.3960    0.7710 hn        1 SB7      0.445800
@<TRIPOS>BOND
     1    1    2 ar  
     2    1    6 ar  
     3    1   14 1   
     4    2    3 ar  
     5    2   15 1   
     6    3    4 ar  
     7    3    7 1   
     8    4    5 ar  
     9    4   16 1   
    10    5    6 ar  
    11    5   17 1   
    12    6   18 1   
    13    7    8 1   
    14    7   19 1   
    15    7   20 1   
    16    8    9 1   
    17    8   21 1   
    18    8   22 1   
    19    9   10 1   
    20    9   23 1   
    21    9   24 1   
    22   10   11 1   
    23   10   12 1   
    24   10   29 1   
    25   11   25 1   
    26   12   13 1   
    27   12   26 1   
    28   12   27 1   
    29   13   28 1   
@<TRIPOS>SUBSTRUCTURE
     1 SB7         1 TEMP              0 ****  ****    0 ROOT
