@<TRIPOS>MOLECULE
SB8
   36    37     1     0     0
SMALL
bcc


@<TRIPOS>ATOM
      1 C1          1.3440   -2.8410   -0.1850 ca        1 SB8     -0.112000
      2 C2          1.5000   -1.4510   -0.2950 ca        1 SB8     -0.136600
      3 C3          0.4380   -0.6010    0.0110 ca        1 SB8     -0.113000
      4 C4         -0.7810   -1.1560    0.4420 ca        1 SB8      0.109100
      5 C5         -0.9380   -2.5410    0.5660 ca        1 SB8     -0.180000
      6 C6          0.1350   -3.3760    0.2470 ca        1 SB8     -0.109000
      7 C7          2.7950   -0.9130   -0.7780 c         1 SB8      0.588300
      8 O8          3.4730   -1.5390   -1.6050 o         1 SB8     -0.526100
      9 C9          3.2490    0.3880   -0.2420 ca        1 SB8     -0.169600
     10 C10         4.0490    1.2100   -1.0480 ca        1 SB8     -0.083000
     11 C11         4.5040    2.4350   -0.5640 ca        1 SB8     -0.143000
     12 C12         4.1750    2.8410    0.7300 ca        1 SB8     -0.104000
     13 C13         3.3900    2.0190    1.5400 ca        1 SB8     -0.143000
     14 C14         2.9250    0.7980    1.0570 ca        1 SB8     -0.083000
     15 O24        -1.7570   -0.2260    0.7520 os        1 SB8     -0.318900
     16 C25        -3.0750   -0.7470    0.9370 c3        1 SB8      0.099400
     17 C26        -3.9930    0.4710    1.0870 c3        1 SB8      0.060000
     18 N29        -4.4740    1.1050   -0.1370 n         1 SB8     -0.296300
     19 O32        -3.5550    1.9330   -0.6490 oh        1 SB8     -0.419100
     20 C34        -5.1230    0.2620   -1.0820 c         1 SB8      0.607900
     21 O35        -5.1600    0.5250   -2.2880 o         1 SB8     -0.544100
     22 H1          2.1850   -3.5000   -0.4550 ha        1 SB8      0.154000
     23 H3          0.5320    0.4910   -0.0850 ha        1 SB8      0.163000
     24 H5         -1.8860   -2.9780    0.9050 ha        1 SB8      0.136000
     25 H6          0.0180   -4.4660    0.3360 ha        1 SB8      0.138000
     26 H10         4.3180    0.8730   -2.0620 ha        1 SB8      0.147000
     27 H11         5.1260    3.0800   -1.2020 ha        1 SB8      0.137000
     28 H12         4.5370    3.8070    1.1130 ha        1 SB8      0.134000
     29 H13         3.1360    2.3350    2.5630 ha        1 SB8      0.137000
     30 H14         2.3060    0.1510    1.6980 ha        1 SB8      0.147000
     31 H251       -3.1020   -1.3510    1.8830 h1        1 SB8      0.046200
     32 H252       -3.3630   -1.3920    0.0670 h1        1 SB8      0.046200
     33 H261       -3.4480    1.2590    1.6810 h1        1 SB8      0.084200
     34 H262       -4.9120    0.1460    1.6500 h1        1 SB8      0.084200
     35 H32        -4.0640    2.6500   -1.0770 ho        1 SB8      0.426000
     36 H34        -5.6940   -0.5710   -0.6130 h5        1 SB8      0.033200
@<TRIPOS>BOND
     1    1    2 ar  
     2    1    6 ar  
     3    1   22 1   
     4    2    3 ar  
     5    2    7 1   
     6    3    4 ar  
     7    3   23 1   
     8    4    5 ar  
     9    4   15 1   
    10    5    6 ar  
    11    5   24 1   
    12    6   25 1   
    13    7    8 2   
    14    7    9 1   
    15    9   10 ar  
    16    9   14 ar  
    17   10   11 ar  
    18   10   26 1   
    19   11   12 ar  
    20   11   27 1   
    21   12   13 ar  
    22   12   28 1   
    23   13   14 ar  
    24   13   29 1   
    25   14   30 1   
    26   15   16 1   
    27   16   17 1   
    28   16   31 1   
    29   16   32 1   
    30   17   18 1   
    31   17   33 1   
    32   17   34 1   
    33   18   19 1   
    34   18   20 1   
    35   19   35 1   
    36   20   21 2   
    37   20   36 1   
@<TRIPOS>SUBSTRUCTURE
     1 SB8         1 TEMP              0 ****  ****    0 ROOT
