@<TRIPOS>MOLECULE
SB8
   36    32     1     0     0
SMALL
bcc


@<TRIPOS>ATOM
      1 C1         -2.1780   -0.0170   -1.3600 c1        1 SB8     -0.121250
      2 C2         -0.7930    0.0070   -1.3090 c1        1 SB8     -0.111000
      3 C3         -0.1460    0.0480   -0.0830 c1        1 SB8     -0.153000
      4 C4         -0.8840    0.0650    1.0900 c1        1 SB8      0.068000
      5 C5         -2.2680    0.0410    1.0380 c1        1 SB8     -0.131000
      6 C6         -2.9160   -0.0000   -0.1870 c1        1 SB8     -0.121250
      7 C7          0.0100    0.0860   -2.5920 c2        1 SB8      0.307000
      8 O8          0.4410    1.1560   -2.9740 o         1 SB8     -0.286000
      9 C9          0.2610   -1.1670   -3.4070 c2        1 SB8     -0.149000
     10 C10         1.2740   -2.0400   -3.0400 c1        1 SB8     -0.091000
     11 C11         1.5550   -3.1440   -3.8290 c1        1 SB8     -0.121250
     12 C12         0.8250   -3.3760   -4.9840 c1        1 SB8     -0.121250
     13 C13        -0.1870   -2.5030   -5.3510 c1        1 SB8     -0.143000
     14 C14        -0.4690   -1.3980   -4.5620 c2        1 SB8     -0.077000
     15 O24        -0.2280    0.0420    2.3320 os        1 SB8     -0.216000
     16 C25         0.0550    1.3210    2.8510 c3        1 SB8     -0.053000
     17 C26         0.5740    1.1870    4.2660 c3        1 SB8     -0.059000
     18 N29         1.0010    2.4580    4.7360 n         1 SB8     -0.181000
     19 O32         0.0790    3.4310    5.0080 oh        1 SB8     -0.239000
     20 C34         2.3770    2.6950    4.9860 c2        1 SB8      0.207000
     21 O35         2.8000    3.8350    5.0320 o         1 SB8     -0.304000
     22 H1         -2.6340   -0.0460   -2.2230 ha        1 SB8      0.139250
     23 H3          0.8300    0.0650   -0.0470 ha        1 SB8      0.159000
     24 H5         -2.7880    0.0530    1.8640 ha        1 SB8      0.152000
     25 H6         -3.8920   -0.0170   -0.2240 ha        1 SB8      0.139250
     26 H10         1.7870   -1.8770   -2.2270 ha        1 SB8      0.142000
     27 H11         2.2690   -3.7600   -3.5700 ha        1 SB8      0.139250
     28 H12         1.0230   -4.1540   -5.5390 ha        1 SB8      0.139250
     29 H13        -0.7010   -2.6670   -6.1640 ha        1 SB8      0.138000
     30 H14        -1.1820   -0.7830   -4.8210 ha        1 SB8      0.152000
     31 H251        0.7320    1.7560    2.2940 h1        1 SB8      0.094500
     32 H252       -0.7630    1.8600    2.8530 h1        1 SB8      0.094500
     33 H261       -0.1390    0.8480    4.8440 h1        1 SB8      0.121000
     34 H262        1.3300    0.5630    4.2790 h1        1 SB8      0.121000
     35 H32        -0.0380    3.4900    5.8880 ho        1 SB8      0.231000
     36 H34         2.9840    1.9430    5.1340 h5        1 SB8      0.134000
@<TRIPOS>BOND
     1    1    6 1   
     2    1   22 1   
     3    2    3 1   
     4    2    7 1   
     5    3   23 1   
     6    4    5 1   
     7    4   15 1   
     8    5   24 1   
     9    6   25 1   
    10    7    8 1   
    11    7    9 1   
    12    9   10 1   
    13    9   14 1   
    14   10   26 1   
    15   11   12 1   
    16   11   27 1   
    17   12   28 1   
    18   13   14 1   
    19   13   29 1   
    20   14   30 1   
    21   15   16 1   
    22   16   17 1   
    23   16   31 1   
    24   16   32 1   
    25   17   18 1   
    26   17   33 1   
    27   17   34 1   
    28   18   19 1   
    29   18   20 1   
    30   19   35 1   
    31   20   21 1   
    32   20   36 1   
@<TRIPOS>SUBSTRUCTURE
     1 SB8         1 TEMP              0 ****  ****    0 ROOT
