@<TRIPOS>MOLECULE
SB8
   37    38     1     0     0
SMALL
bcc


@<TRIPOS>ATOM
      1 C1         -0.0340   -0.2640   -0.1190 ca        1 SB8     -0.073000
      2 C2          1.2830    0.1930    0.0220 ca        1 SB8     -0.129600
      3 C3          1.7890    0.4980    1.2900 ca        1 SB8     -0.100000
      4 C4          0.9460    0.3530    2.3970 ca        1 SB8      0.056100
      5 C5         -0.3670   -0.1160    2.2740 ca        1 SB8     -0.145000
      6 C6         -0.8470   -0.4280    1.0030 ca        1 SB8     -0.104000
      7 C7          2.1150    0.3940   -1.1950 c         1 SB8      0.582300
      8 O8          1.6170    0.8900   -2.2110 o         1 SB8     -0.496100
      9 C9          3.5330   -0.0120   -1.1310 ca        1 SB8     -0.180600
     10 C10         4.4540    0.6140   -1.9830 ca        1 SB8     -0.085000
     11 C11         5.7940    0.2330   -1.9640 ca        1 SB8     -0.141500
     12 C12         6.2200   -0.7830   -1.1090 ca        1 SB8     -0.093000
     13 C13         5.3040   -1.4180   -0.2690 ca        1 SB8     -0.141500
     14 C14         3.9650   -1.0340   -0.2770 ca        1 SB8     -0.085000
     15 O24         1.4540    0.7930    3.6230 os        1 SB8     -0.398900
     16 C25         1.1840   -0.0680    4.7280 c3        1 SB8      0.103400
     17 C26         2.3830   -0.0090    5.6820 c3        1 SB8      0.088800
     18 N29         3.0130    1.3620    5.7640 nx        1 SB8     -0.398700
     19 O32         4.0250    1.3740    6.6590 oh        1 SB8     -0.357300
     20 C34         1.9530    2.4420    6.0100 c         1 SB8      0.551900
     21 O35         1.9010    2.9230    7.1200 o         1 SB8     -0.376100
     22 H1         -0.4240   -0.4830   -1.1280 ha        1 SB8      0.173000
     23 H3          2.8200    0.8620    1.4090 ha        1 SB8      0.154000
     24 H5         -1.0090   -0.2280    3.1590 ha        1 SB8      0.142000
     25 H6         -1.8790   -0.7950    0.8840 ha        1 SB8      0.160000
     26 H10         4.1030    1.3990   -2.6740 ha        1 SB8      0.145000
     27 H11         6.5140    0.7280   -2.6350 ha        1 SB8      0.144000
     28 H12         7.2770   -1.0910   -1.1030 ha        1 SB8      0.145000
     29 H13         5.6370   -2.2330    0.3910 ha        1 SB8      0.144000
     30 H14         3.2410   -1.5470    0.3750 ha        1 SB8      0.145000
     31 H251        0.2520    0.3010    5.2350 h1        1 SB8      0.088700
     32 H252        1.0380   -1.1340    4.4050 h1        1 SB8      0.088700
     33 H261        3.1930   -0.7170    5.3420 hx        1 SB8      0.121200
     34 H262        2.0540   -0.3070    6.7180 hx        1 SB8      0.121200
     35 H32         3.6490    1.4940    7.5630 ho        1 SB8      0.476000
     36 H34         1.3550    2.6290    5.0850 hx        1 SB8      0.170200
     37 H291        3.4620    1.5590    4.8390 hn        1 SB8      0.506800
@<TRIPOS>BOND
     1    1    2 ar  
     2    1    6 ar  
     3    1   22 1   
     4    2    3 ar  
     5    2    7 1   
     6    3    4 ar  
     7    3   23 1   
     8    4    5 ar  
     9    4   15 1   
    10    5    6 ar  
    11    5   24 1   
    12    6   25 1   
    13    7    8 2   
    14    7    9 1   
    15    9   10 ar  
    16    9   14 ar  
    17   10   11 ar  
    18   10   26 1   
    19   11   12 ar  
    20   11   27 1   
    21   12   13 ar  
    22   12   28 1   
    23   13   14 ar  
    24   13   29 1   
    25   14   30 1   
    26   15   16 1   
    27   16   17 1   
    28   16   31 1   
    29   16   32 1   
    30   17   18 1   
    31   17   33 1   
    32   17   34 1   
    33   18   19 1   
    34   18   20 1   
    35   18   37 1   
    36   19   35 1   
    37   20   21 2   
    38   20   36 1   
@<TRIPOS>SUBSTRUCTURE
     1 SB8         1 TEMP              0 ****  ****    0 ROOT
