@<TRIPOS>MOLECULE
SB8
   37    38     1     0     0
SMALL
bcc


@<TRIPOS>ATOM
      1 C1         -0.0270   -0.2890   -0.1200 ca        1 SB8     -0.073000
      2 C2          1.2850    0.1810    0.0220 ca        1 SB8     -0.129600
      3 C3          1.7870    0.4910    1.2890 ca        1 SB8     -0.100000
      4 C4          0.9450    0.3380    2.3960 ca        1 SB8      0.056100
      5 C5         -0.3630   -0.1440    2.2720 ca        1 SB8     -0.146000
      6 C6         -0.8400   -0.4610    1.0020 ca        1 SB8     -0.104000
      7 C7          2.1160    0.3910   -1.1950 c         1 SB8      0.582300
      8 O8          1.6130    0.8830   -2.2110 o         1 SB8     -0.496100
      9 C9          3.5360   -0.0020   -1.1310 ca        1 SB8     -0.180600
     10 C10         4.4520    0.6320   -1.9830 ca        1 SB8     -0.085000
     11 C11         5.7960    0.2640   -1.9640 ca        1 SB8     -0.141500
     12 C12         6.2310   -0.7480   -1.1080 ca        1 SB8     -0.093000
     13 C13         5.3200   -1.3920   -0.2680 ca        1 SB8     -0.141500
     14 C14         3.9780   -1.0200   -0.2770 ca        1 SB8     -0.085000
     15 O24         1.4490    0.7820    3.6230 os        1 SB8     -0.398900
     16 C25         1.1860   -0.0810    4.7280 c3        1 SB8      0.103400
     17 C26         2.3820   -0.0100    5.6830 c3        1 SB8      0.088800
     18 N29         2.9990    1.3670    5.7650 n4        1 SB8     -0.398700
     19 O32         4.0110    1.3890    6.6610 oh        1 SB8     -0.357300
     20 C34         1.9290    2.4370    6.0090 c         1 SB8      0.551900
     21 O35         1.8710    2.9180    7.1190 o         1 SB8     -0.376100
     22 H1         -0.4150   -0.5110   -1.1290 ha        1 SB8      0.173000
     23 H3          2.8140    0.8650    1.4090 ha        1 SB8      0.154000
     24 H5         -1.0040   -0.2630    3.1570 ha        1 SB8      0.142000
     25 H6         -1.8680   -0.8370    0.8820 ha        1 SB8      0.160000
     26 H10         4.0950    1.4140   -2.6740 ha        1 SB8      0.145000
     27 H11         6.5110    0.7650   -2.6340 ha        1 SB8      0.144000
     28 H12         7.2910   -1.0470   -1.1020 ha        1 SB8      0.145000
     29 H13         5.6610   -2.2040    0.3910 ha        1 SB8      0.144000
     30 H14         3.2590   -1.5400    0.3750 ha        1 SB8      0.145000
     31 H251        0.2490    0.2800    5.2330 h1        1 SB8      0.088700
     32 H252        1.0500   -1.1480    4.4050 h1        1 SB8      0.088700
     33 H261        3.2000   -0.7100    5.3440 hx        1 SB8      0.121200
     34 H262        2.0560   -0.3110    6.7180 hx        1 SB8      0.121200
     35 H32         3.6320    1.5060    7.5650 ho        1 SB8      0.476000
     36 H34         1.3300    2.6180    5.0830 hx        1 SB8      0.170200
     37 H291        3.4480    1.5680    4.8410 hn        1 SB8      0.506800
@<TRIPOS>BOND
     1    1    2 ar  
     2    1    6 ar  
     3    1   22 1   
     4    2    3 ar  
     5    2    7 1   
     6    3    4 ar  
     7    3   23 1   
     8    4    5 ar  
     9    4   15 1   
    10    5    6 ar  
    11    5   24 1   
    12    6   25 1   
    13    7    8 2   
    14    7    9 1   
    15    9   10 ar  
    16    9   14 ar  
    17   10   11 ar  
    18   10   26 1   
    19   11   12 ar  
    20   11   27 1   
    21   12   13 ar  
    22   12   28 1   
    23   13   14 ar  
    24   13   29 1   
    25   14   30 1   
    26   15   16 1   
    27   16   17 1   
    28   16   31 1   
    29   16   32 1   
    30   17   18 1   
    31   17   33 1   
    32   17   34 1   
    33   18   19 1   
    34   18   20 1   
    35   18   37 1   
    36   19   35 1   
    37   20   21 2   
    38   20   36 1   
@<TRIPOS>SUBSTRUCTURE
     1 SB8         1 TEMP              0 ****  ****    0 ROOT
