@<TRIPOS>MOLECULE
SB9
   29    29     1     0     0
SMALL
bcc


@<TRIPOS>ATOM
      1 C1         -0.0400   -0.0500    0.0330 ca        1 SB9      0.429600
      2 N2          1.2750   -0.3700    0.0510 nb        1 SB9     -0.701000
      3 C3          1.9680   -0.1460    1.1940 ca        1 SB9      0.388600
      4 C4          1.3810    0.4010    2.3530 ca        1 SB9     -0.238300
      5 C5          0.0240    0.7280    2.3230 ca        1 SB9     -0.074000
      6 C6         -0.7010    0.5030    1.1560 ca        1 SB9     -0.231300
      7 C7         -0.8360   -0.2710   -1.2120 c3        1 SB9     -0.155400
      8 C11         3.4360   -0.4620    1.2520 c3        1 SB9     -0.118700
      9 C12         3.8970   -1.3640    0.1220 c3        1 SB9     -0.099400
     10 C15         5.3810   -1.6590    0.2920 c3        1 SB9      0.091800
     11 N18         5.8990   -2.5950   -0.7810 n4        1 SB9     -0.405700
     12 O21         7.0560   -3.1830   -0.3970 oh        1 SB9     -0.356300
     13 C23         6.0200   -1.8610   -2.1190 c         1 SB9      0.547900
     14 O24         7.1330   -1.5530   -2.4820 o         1 SB9     -0.368100
     15 H4          1.9800    0.5650    3.2580 ha        1 SB9      0.148000
     16 H5         -0.4640    1.1570    3.2120 ha        1 SB9      0.155000
     17 H6         -1.7700    0.7480    1.0950 ha        1 SB9      0.159000
     18 H71        -1.0520    0.7180   -1.6890 hc        1 SB9      0.060700
     19 H72        -0.3020   -0.9130   -1.9540 hc        1 SB9      0.060700
     20 H73        -1.8070   -0.7610   -0.9510 hc        1 SB9      0.060700
     21 H111        4.0030    0.5080    1.2190 hc        1 SB9      0.066200
     22 H112        3.6540   -0.9530    2.2390 hc        1 SB9      0.066200
     23 H121        3.7100   -0.8560   -0.8610 hc        1 SB9      0.078700
     24 H122        3.2990   -2.3140    0.1410 hc        1 SB9      0.078700
     25 H151        5.9920   -0.7140    0.2390 hx        1 SB9      0.115700
     26 H152        5.5740   -2.1590    1.2860 hx        1 SB9      0.115700
     27 H21         7.7900   -2.5300   -0.4870 ho        1 SB9      0.477000
     28 H23         5.0260   -1.6940   -2.5930 hx        1 SB9      0.152200
     29 H181        5.2250   -3.3850   -0.8880 hn        1 SB9      0.495800
@<TRIPOS>BOND
     1    1    2 ar  
     2    1    6 ar  
     3    1    7 1   
     4    2    3 ar  
     5    3    4 ar  
     6    3    8 1   
     7    4    5 ar  
     8    4   15 1   
     9    5    6 ar  
    10    5   16 1   
    11    6   17 1   
    12    7   18 1   
    13    7   19 1   
    14    7   20 1   
    15    8    9 1   
    16    8   21 1   
    17    8   22 1   
    18    9   10 1   
    19    9   23 1   
    20    9   24 1   
    21   10   11 1   
    22   10   25 1   
    23   10   26 1   
    24   11   12 1   
    25   11   13 1   
    26   11   29 1   
    27   12   27 1   
    28   13   14 2   
    29   13   28 1   
@<TRIPOS>SUBSTRUCTURE
     1 SB9         1 TEMP              0 ****  ****    0 ROOT
