@<TRIPOS>MOLECULE
SB9
   29    29     1     0     0
SMALL
bcc


@<TRIPOS>ATOM
      1 C1         -0.0380   -0.0500    0.0430 ca        1 SB9      0.429600
      2 N2          1.2760   -0.3710    0.0550 nb        1 SB9     -0.701000
      3 C3          1.9720   -0.1540    1.1970 ca        1 SB9      0.388600
      4 C4          1.3880    0.3860    2.3610 ca        1 SB9     -0.238300
      5 C5          0.0310    0.7140    2.3370 ca        1 SB9     -0.074000
      6 C6         -0.6960    0.4980    1.1710 ca        1 SB9     -0.231300
      7 C7         -0.8440   -0.2800   -1.1950 c3        1 SB9     -0.156400
      8 C11         3.4410   -0.4700    1.2500 c3        1 SB9     -0.118700
      9 C12         3.8980   -1.3700    0.1160 c3        1 SB9     -0.099400
     10 C15         5.3810   -1.6650    0.2800 c3        1 SB9      0.091800
     11 N18         5.8950   -2.5990   -0.7970 n4        1 SB9     -0.405700
     12 O21         7.0530   -3.1880   -0.4180 oh        1 SB9     -0.356300
     13 C23         6.0120   -1.8630   -2.1340 c         1 SB9      0.547900
     14 O24         7.1250   -1.5540   -2.5000 o         1 SB9     -0.368100
     15 H4          1.9900    0.5450    3.2660 ha        1 SB9      0.148000
     16 H5         -0.4540    1.1390    3.2300 ha        1 SB9      0.155000
     17 H6         -1.7650    0.7440    1.1130 ha        1 SB9      0.159000
     18 H71        -1.3940    0.6570   -1.4580 hc        1 SB9      0.060700
     19 H72        -1.5910   -1.0900   -1.0010 hc        1 SB9      0.060700
     20 H73        -0.2140   -0.5800   -2.0680 hc        1 SB9      0.060700
     21 H111        4.0070    0.5000    1.2160 hc        1 SB9      0.066200
     22 H112        3.6620   -0.9620    2.2350 hc        1 SB9      0.066200
     23 H121        3.2990   -2.3200    0.1360 hc        1 SB9      0.078700
     24 H122        3.7070   -0.8600   -0.8660 hc        1 SB9      0.078700
     25 H151        5.9920   -0.7210    0.2270 hx        1 SB9      0.115700
     26 H152        5.5790   -2.1680    1.2720 hx        1 SB9      0.115700
     27 H21         7.7870   -2.5360   -0.5100 ho        1 SB9      0.477000
     28 H23         5.0170   -1.6940   -2.6030 hx        1 SB9      0.152200
     29 H181        5.2210   -3.3890   -0.9030 hn        1 SB9      0.495800
@<TRIPOS>BOND
     1    1    2 ar  
     2    1    6 ar  
     3    1    7 1   
     4    2    3 ar  
     5    3    4 ar  
     6    3    8 1   
     7    4    5 ar  
     8    4   15 1   
     9    5    6 ar  
    10    5   16 1   
    11    6   17 1   
    12    7   18 1   
    13    7   19 1   
    14    7   20 1   
    15    8    9 1   
    16    8   21 1   
    17    8   22 1   
    18    9   10 1   
    19    9   23 1   
    20    9   24 1   
    21   10   11 1   
    22   10   25 1   
    23   10   26 1   
    24   11   12 1   
    25   11   13 1   
    26   11   29 1   
    27   12   27 1   
    28   13   14 2   
    29   13   28 1   
@<TRIPOS>SUBSTRUCTURE
     1 SB9         1 TEMP              0 ****  ****    0 ROOT
