@<TRIPOS>MOLECULE
SB9
   29    29     1     0     0
SMALL
bcc


@<TRIPOS>ATOM
      1 C1         -0.0430   -0.0590    0.0550 ca        1 SB9      0.429600
      2 N2          1.2730   -0.3730    0.0630 nb        1 SB9     -0.701000
      3 C3          1.9710   -0.1570    1.2040 ca        1 SB9      0.388600
      4 C4          1.3890    0.3770    2.3710 ca        1 SB9     -0.238300
      5 C5          0.0300    0.6990    2.3520 ca        1 SB9     -0.074000
      6 C6         -0.7000    0.4820    1.1870 ca        1 SB9     -0.231300
      7 C7         -0.8470   -0.2740   -1.1860 c3        1 SB9     -0.156400
      8 C11         3.4410   -0.4680    1.2510 c3        1 SB9     -0.118700
      9 C12         3.8990   -1.3590    0.1120 c3        1 SB9     -0.099400
     10 C15         5.3850   -1.6490    0.2710 c3        1 SB9      0.091800
     11 N18         5.9000   -2.5750   -0.8120 nx        1 SB9     -0.405700
     12 O21         7.0610   -3.1610   -0.4390 oh        1 SB9     -0.356300
     13 C23         6.0110   -1.8310   -2.1450 c         1 SB9      0.547900
     14 O24         7.1220   -1.5160   -2.5120 o         1 SB9     -0.368100
     15 H4          1.9920    0.5350    3.2750 ha        1 SB9      0.148000
     16 H5         -0.4550    1.1180    3.2470 ha        1 SB9      0.155000
     17 H6         -1.7710    0.7230    1.1330 ha        1 SB9      0.159000
     18 H71        -1.1260    0.7190   -1.6190 hc        1 SB9      0.060700
     19 H72        -0.2920   -0.8550   -1.9620 hc        1 SB9      0.060700
     20 H73        -1.7840   -0.8280   -0.9300 hc        1 SB9      0.060700
     21 H111        4.0040    0.5050    1.2220 hc        1 SB9      0.066200
     22 H112        3.6670   -0.9650    2.2340 hc        1 SB9      0.066200
     23 H121        3.7050   -0.8450   -0.8670 hc        1 SB9      0.078700
     24 H122        3.3050   -2.3120    0.1270 hc        1 SB9      0.078700
     25 H151        5.9920   -0.7020    0.2220 hx        1 SB9      0.115700
     26 H152        5.5860   -2.1560    1.2600 hx        1 SB9      0.115700
     27 H21         7.7920   -2.5050   -0.5280 ho        1 SB9      0.477000
     28 H23         5.0140   -1.6640   -2.6120 hx        1 SB9      0.152200
     29 H181        5.2290   -3.3670   -0.9210 hn        1 SB9      0.495800
@<TRIPOS>BOND
     1    1    2 ar  
     2    1    6 ar  
     3    1    7 1   
     4    2    3 ar  
     5    3    4 ar  
     6    3    8 1   
     7    4    5 ar  
     8    4   15 1   
     9    5    6 ar  
    10    5   16 1   
    11    6   17 1   
    12    7   18 1   
    13    7   19 1   
    14    7   20 1   
    15    8    9 1   
    16    8   21 1   
    17    8   22 1   
    18    9   10 1   
    19    9   23 1   
    20    9   24 1   
    21   10   11 1   
    22   10   25 1   
    23   10   26 1   
    24   11   12 1   
    25   11   13 1   
    26   11   29 1   
    27   12   27 1   
    28   13   14 2   
    29   13   28 1   
@<TRIPOS>SUBSTRUCTURE
     1 SB9         1 TEMP              0 ****  ****    0 ROOT
