@<TRIPOS>MOLECULE
SB9
   28    28     1     0     0
SMALL
bcc


@<TRIPOS>ATOM
      1 C1          3.1500    1.0700   -0.0300 ca        1 SB9      0.418600
      2 N2          1.9610    0.6710   -0.5440 nb        1 SB9     -0.673000
      3 C3          1.5780   -0.6120   -0.3430 ca        1 SB9      0.414600
      4 C4          2.3650   -1.5390    0.3740 ca        1 SB9     -0.249300
      5 C5          3.5870   -1.1180    0.8970 ca        1 SB9     -0.088000
      6 C6          3.9920    0.2000    0.6980 ca        1 SB9     -0.250300
      7 C7          3.5820    2.4860   -0.2390 c3        1 SB9     -0.149400
      8 C11         0.2640   -1.0690   -0.9130 c3        1 SB9     -0.124700
      9 C12        -0.9040   -0.4410   -0.1800 c3        1 SB9     -0.108400
     10 C15        -2.2170   -0.9000   -0.8080 c3        1 SB9      0.060000
     11 N18        -3.4430   -0.4000   -0.1830 n         1 SB9     -0.292300
     12 O21        -3.6650   -1.0250    0.9820 oh        1 SB9     -0.436100
     13 C23        -3.5940    1.0150   -0.1400 c         1 SB9      0.606900
     14 O24        -4.2610    1.5810    0.7340 o         1 SB9     -0.554100
     15 H4          2.0170   -2.5710    0.5160 ha        1 SB9      0.143000
     16 H5          4.2220   -1.8180    1.4610 ha        1 SB9      0.138000
     17 H6          4.9480    0.5620    1.0970 ha        1 SB9      0.143000
     18 H71         3.5720    2.7470   -1.3260 hc        1 SB9      0.053700
     19 H72         2.8890    3.1830    0.2950 hc        1 SB9      0.053700
     20 H73         4.6160    2.6360    0.1560 hc        1 SB9      0.053700
     21 H111        0.2130   -0.8030   -2.0030 hc        1 SB9      0.055200
     22 H112        0.2010   -2.1870   -0.8370 hc        1 SB9      0.055200
     23 H121       -0.8790   -0.7350    0.9020 hc        1 SB9      0.063700
     24 H122       -0.8280    0.6780   -0.2270 hc        1 SB9      0.063700
     25 H151       -2.2610   -0.5670   -1.8830 h1        1 SB9      0.066700
     26 H152       -2.2690   -2.0240   -0.7770 h1        1 SB9      0.066700
     27 H21        -4.6350   -1.0160    1.1000 ho        1 SB9      0.429000
     28 H23        -3.1670    1.5360   -1.0260 h5        1 SB9      0.040200
@<TRIPOS>BOND
     1    1    2 ar  
     2    1    6 ar  
     3    1    7 1   
     4    2    3 ar  
     5    3    4 ar  
     6    3    8 1   
     7    4    5 ar  
     8    4   15 1   
     9    5    6 ar  
    10    5   16 1   
    11    6   17 1   
    12    7   18 1   
    13    7   19 1   
    14    7   20 1   
    15    8    9 1   
    16    8   21 1   
    17    8   22 1   
    18    9   10 1   
    19    9   23 1   
    20    9   24 1   
    21   10   11 1   
    22   10   25 1   
    23   10   26 1   
    24   11   12 1   
    25   11   13 1   
    26   12   27 1   
    27   13   14 2   
    28   13   28 1   
@<TRIPOS>SUBSTRUCTURE
     1 SB9         1 TEMP              0 ****  ****    0 ROOT
