@<TRIPOS>MOLECULE
SBA
   67    67     1     0     0
SMALL
bcc


@<TRIPOS>ATOM
      1 C5          1.0770   -1.5120    0.2240 ca        1 SBA     -0.129000
      2 C6          2.2010   -0.9910    0.8590 ca        1 SBA     -0.075000
      3 C1          2.0920    0.1800    1.6270 ca        1 SBA     -0.181300
      4 C2          0.8520    0.8300    1.7350 ca        1 SBA     -0.075000
      5 C3         -0.2670    0.3030    1.0960 ca        1 SBA     -0.129000
      6 C4         -0.1570   -0.8670    0.3410 ca        1 SBA     -0.055000
      7 C7          3.2600    0.6950    2.3550 c3        1 SBA      0.243700
      8 O8          3.9040    1.6490    1.3670 os        1 SBA     -0.385900
      9 C9          4.9820    2.2910    1.7640 c         1 SBA      0.644100
     10 O27         5.5840    2.2200    2.8360 o         1 SBA     -0.520000
     11 N10         5.4980    3.2330    0.6950 n4        1 SBA     -0.659800
     12 C11         6.9220    3.6310    0.9610 c3        1 SBA      0.077500
     13 C12         7.0040    4.3410    2.3240 c         1 SBA      0.534100
     14 N13         8.0180    3.8510    3.2910 n4        1 SBA     -0.650800
     15 C14         8.8930    4.9640    3.8510 c3        1 SBA      0.131500
     16 C15         9.6340    5.6710    2.6890 c3        1 SBA      0.121100
     17 C23         9.8540    4.4030    4.8970 c3        1 SBA     -0.119400
     18 C24         9.2090    3.5870    6.0090 c3        1 SBA     -0.078700
     19 C25        10.2740    3.2280    7.0300 c3        1 SBA     -0.104600
     20 C26         8.0750    4.3310    6.6830 c3        1 SBA     -0.104600
     21 C19         7.4780    4.5860   -0.1040 c3        1 SBA     -0.121400
     22 C20         7.3930    4.0420   -1.5240 c3        1 SBA     -0.075700
     23 C21         8.0950    5.0170   -2.4550 c3        1 SBA     -0.107100
     24 C22         8.0060    2.6650   -1.6530 c3        1 SBA     -0.107100
     25 O28         6.2750    5.2730    2.6390 o         1 SBA     -0.394100
     26 O29        10.1800    4.6700    1.8440 oh        1 SBA     -0.658800
     27 C16        10.6970    6.6490    3.2000 c3        1 SBA      0.100400
     28 O17        11.2260    7.2340    2.0170 os        1 SBA     -0.442600
     29 C18        12.1890    8.2510    2.2820 c3        1 SBA      0.112700
     30 H5          1.1600   -2.4380   -0.3680 ha        1 SBA      0.164000
     31 H6          3.1690   -1.5070    0.7730 ha        1 SBA      0.138500
     32 H2          0.7590    1.7470    2.3370 ha        1 SBA      0.138500
     33 H3         -1.2430    0.8070    1.1920 ha        1 SBA      0.164000
     34 H4         -1.0460   -1.2850   -0.1600 ha        1 SBA      0.167000
     35 H71         4.0400   -0.0740    2.5800 h1        1 SBA      0.089200
     36 H72         3.0080    1.3140    3.2520 h1        1 SBA      0.089200
     37 HNA         4.8930    4.0680    0.6690 hn        1 SBA      0.495800
     38 H11         7.5300    2.6730    0.9530 hx        1 SBA      0.142700
     39 HND         8.6440    3.1680    2.8400 hn        1 SBA      0.487300
     40 H14         8.1910    5.7110    4.3350 hx        1 SBA      0.129700
     41 H15         8.8790    6.2500    2.0760 h1        1 SBA      0.066700
     42 H231       10.6470    3.7910    4.3890 hc        1 SBA      0.097200
     43 H232       10.3620    5.2930    5.3670 hc        1 SBA      0.097200
     44 H24         8.8140    2.6190    5.5860 hc        1 SBA      0.026700
     45 H251       10.6680    4.1470    7.5280 hc        1 SBA      0.055200
     46 H252       11.1230    2.6930    6.5420 hc        1 SBA      0.055200
     47 H253        9.8390    2.5630    7.8160 hc        1 SBA      0.055200
     48 H261        7.7110    3.7500    7.5670 hc        1 SBA      0.055200
     49 H262        8.4190    5.3300    7.0460 hc        1 SBA      0.055200
     50 H263        7.2130    4.4820    5.9890 hc        1 SBA      0.055200
     51 H191        8.5630    4.7600    0.1600 hc        1 SBA      0.108700
     52 H192        6.9480    5.5750   -0.0480 hc        1 SBA      0.108700
     53 H20         6.3110    3.9940   -1.8390 hc        1 SBA      0.041700
     54 H211        7.9730    4.6810   -3.5140 hc        1 SBA      0.058867
     55 H212        7.6590    6.0400   -2.3560 hc        1 SBA      0.058867
     56 H213        9.1870    5.0660   -2.2250 hc        1 SBA      0.058867
     57 H221        8.0520    2.3700   -2.7320 hc        1 SBA      0.058867
     58 H222        9.0490    2.6520   -1.2510 hc        1 SBA      0.058867
     59 H223        7.4010    1.8960   -1.1140 hc        1 SBA      0.058867
     60 HOT        11.0300    4.9890    1.4990 ho        1 SBA      0.479000
     61 H161       11.5150    6.1110    3.7490 h1        1 SBA      0.064700
     62 H162       10.2340    7.4290    3.8580 h1        1 SBA      0.064700
     63 H181       11.7220    9.0870    2.8580 h1        1 SBA      0.060700
     64 H182       13.0590    7.8270    2.8410 h1        1 SBA      0.060700
     65 H183       12.4990    8.5950    1.2620 h1        1 SBA      0.060700
     66 H102        5.4470    2.7710   -0.2290 hn        1 SBA      0.495800
     67 H132        7.5260    3.3930    4.0790 hn        1 SBA      0.487300
@<TRIPOS>BOND
     1    1    2 ar  
     2    1    6 ar  
     3    1   30 1   
     4    2    3 ar  
     5    2   31 1   
     6    3    4 ar  
     7    3    7 1   
     8    4    5 ar  
     9    4   32 1   
    10    5    6 ar  
    11    5   33 1   
    12    6   34 1   
    13    7    8 1   
    14    7   35 1   
    15    7   36 1   
    16    8    9 1   
    17    9   10 2   
    18    9   11 1   
    19   11   12 1   
    20   11   37 1   
    21   11   66 1   
    22   12   13 1   
    23   12   21 1   
    24   12   38 1   
    25   13   14 1   
    26   13   25 2   
    27   14   15 1   
    28   14   39 1   
    29   14   67 1   
    30   15   16 1   
    31   15   17 1   
    32   15   40 1   
    33   16   26 1   
    34   16   27 1   
    35   16   41 1   
    36   17   18 1   
    37   17   42 1   
    38   17   43 1   
    39   18   19 1   
    40   18   20 1   
    41   18   44 1   
    42   19   45 1   
    43   19   46 1   
    44   19   47 1   
    45   20   48 1   
    46   20   49 1   
    47   20   50 1   
    48   21   22 1   
    49   21   51 1   
    50   21   52 1   
    51   22   23 1   
    52   22   24 1   
    53   22   53 1   
    54   23   54 1   
    55   23   55 1   
    56   23   56 1   
    57   24   57 1   
    58   24   58 1   
    59   24   59 1   
    60   26   60 1   
    61   27   28 1   
    62   27   61 1   
    63   27   62 1   
    64   28   29 1   
    65   29   63 1   
    66   29   64 1   
    67   29   65 1   
@<TRIPOS>SUBSTRUCTURE
     1 SBA         1 TEMP              0 ****  ****    0 ROOT
