@<TRIPOS>MOLECULE
SBA
   67    67     1     0     0
SMALL
bcc


@<TRIPOS>ATOM
      1 C5          0.4110    0.7280    1.0510 ca        1 SBA     -0.128500
      2 C6          1.6600    0.2280    0.6910 ca        1 SBA     -0.085500
      3 C1          2.6960    0.1780    1.6350 ca        1 SBA     -0.209300
      4 C2          2.4660    0.6320    2.9430 ca        1 SBA     -0.085500
      5 C3          1.2150    1.1270    3.2990 ca        1 SBA     -0.128500
      6 C4          0.1860    1.1750    2.3540 ca        1 SBA     -0.063000
      7 C7          3.9910   -0.4230    1.2760 c3        1 SBA      0.232700
      8 O8          4.7770    0.5320    0.4300 os        1 SBA     -0.386900
      9 C9          5.5190    1.4430    1.0310 c         1 SBA      0.655100
     10 O27         5.8460    1.5430    2.2120 o         1 SBA     -0.510000
     11 N10         6.0540    2.4540    0.0360 ny        1 SBA     -0.661800
     12 C11         7.2940    3.1250    0.5540 c3        1 SBA      0.077500
     13 C12         6.9580    3.8780    1.8540 c         1 SBA      0.533100
     14 N13         7.8180    3.6170    3.0360 ny        1 SBA     -0.651800
     15 C14         8.3500    4.8920    3.6780 c3        1 SBA      0.131500
     16 C15         9.1820    5.6830    2.6370 c3        1 SBA      0.121100
     17 C23         9.1560    4.5540    4.9300 c3        1 SBA     -0.119400
     18 C24         8.4460    3.6710    5.9470 c3        1 SBA     -0.078700
     19 C25         9.3230    3.5500    7.1820 c3        1 SBA     -0.104600
     20 C26         7.0870    4.2160    6.3300 c3        1 SBA     -0.104600
     21 C19         7.8780    4.1380   -0.4410 c3        1 SBA     -0.121400
     22 C20         8.1900    3.5480   -1.8100 c3        1 SBA     -0.075700
     23 C21         8.8850    4.6110   -2.6440 c3        1 SBA     -0.107100
     24 C22         9.0530    2.3090   -1.7210 c3        1 SBA     -0.107100
     25 O28         6.0260    4.6640    1.9520 o         1 SBA     -0.392100
     26 O29        10.0570    4.7710    1.9910 oh        1 SBA     -0.658800
     27 C16         9.9300    6.8570    3.2770 c3        1 SBA      0.100400
     28 O17        10.5840    7.4890    2.1840 os        1 SBA     -0.442600
     29 C18        11.2820    8.6730    2.5610 c3        1 SBA      0.112700
     30 H5         -0.4050    0.7560    0.3100 ha        1 SBA      0.163000
     31 H6          1.8290   -0.1450   -0.3320 ha        1 SBA      0.140500
     32 H2          3.2680    0.5740    3.6950 ha        1 SBA      0.140500
     33 H3          1.0290    1.4660    4.3310 ha        1 SBA      0.163000
     34 H4         -0.8080    1.5580    2.6420 ha        1 SBA      0.166000
     35 H71         3.9010   -1.2680    0.5340 h1        1 SBA      0.111200
     36 H72         4.6230   -0.6990    2.1580 h1        1 SBA      0.111200
     37 HNA         5.3190    3.1550   -0.1480 hn        1 SBA      0.496300
     38 H11         8.0550    2.3020    0.7310 hx        1 SBA      0.142700
     39 HND         8.6330    3.0460    2.7700 hn        1 SBA      0.486800
     40 H14         7.4440    5.5120    3.9580 hx        1 SBA      0.129700
     41 H15         8.4820    6.0910    1.8470 h1        1 SBA      0.066700
     42 H231       10.1320    4.0820    4.6340 hc        1 SBA      0.097200
     43 H232        9.3930    5.5380    5.4260 hc        1 SBA      0.097200
     44 H24         8.3220    2.6330    5.5240 hc        1 SBA      0.026700
     45 H251        9.4400    4.5420    7.6810 hc        1 SBA      0.055367
     46 H252        8.8570    2.8430    7.9120 hc        1 SBA      0.055367
     47 H253       10.3350    3.1640    6.9100 hc        1 SBA      0.055367
     48 H261        6.3740    4.1810    5.4710 hc        1 SBA      0.055367
     49 H262        7.1690    5.2730    6.6810 hc        1 SBA      0.055367
     50 H263        6.6540    3.6090    7.1640 hc        1 SBA      0.055367
     51 H191        7.1770    5.0090   -0.5580 hc        1 SBA      0.108700
     52 H192        8.8340    4.5240    0.0210 hc        1 SBA      0.108700
     53 H20         7.2250    3.2880   -2.3320 hc        1 SBA      0.041700
     54 H211        9.0490    4.2290   -3.6820 hc        1 SBA      0.059200
     55 H212        9.8780    4.8720   -2.2050 hc        1 SBA      0.059200
     56 H213        8.2620    5.5360   -2.7030 hc        1 SBA      0.059200
     57 H221        8.4970    1.4540   -1.2640 hc        1 SBA      0.059200
     58 H222        9.9740    2.5050   -1.1190 hc        1 SBA      0.059200
     59 H223        9.3760    1.9970   -2.7480 hc        1 SBA      0.059200
     60 HOT        10.8920    5.2290    1.8010 ho        1 SBA      0.479000
     61 H161       10.6970    6.4990    4.0150 h1        1 SBA      0.064700
     62 H162        9.2120    7.5610    3.7730 h1        1 SBA      0.064700
     63 H181       11.7320    9.0320    1.6010 h1        1 SBA      0.060700
     64 H182       10.5690    9.4280    2.9730 h1        1 SBA      0.060700
     65 H183       12.0770    8.4340    3.3090 h1        1 SBA      0.060700
     66 H102        6.2790    1.9810   -0.8560 hn        1 SBA      0.496300
     67 H132        7.2600    3.1050    3.7420 hn        1 SBA      0.486800
@<TRIPOS>BOND
     1    1    2 ar  
     2    1    6 ar  
     3    1   30 1   
     4    2    3 ar  
     5    2   31 1   
     6    3    4 ar  
     7    3    7 1   
     8    4    5 ar  
     9    4   32 1   
    10    5    6 ar  
    11    5   33 1   
    12    6   34 1   
    13    7    8 1   
    14    7   35 1   
    15    7   36 1   
    16    8    9 1   
    17    9   10 2   
    18    9   11 1   
    19   11   12 1   
    20   11   37 1   
    21   11   66 1   
    22   12   13 1   
    23   12   21 1   
    24   12   38 1   
    25   13   14 1   
    26   13   25 2   
    27   14   15 1   
    28   14   39 1   
    29   14   67 1   
    30   15   16 1   
    31   15   17 1   
    32   15   40 1   
    33   16   26 1   
    34   16   27 1   
    35   16   41 1   
    36   17   18 1   
    37   17   42 1   
    38   17   43 1   
    39   18   19 1   
    40   18   20 1   
    41   18   44 1   
    42   19   45 1   
    43   19   46 1   
    44   19   47 1   
    45   20   48 1   
    46   20   49 1   
    47   20   50 1   
    48   21   22 1   
    49   21   51 1   
    50   21   52 1   
    51   22   23 1   
    52   22   24 1   
    53   22   53 1   
    54   23   54 1   
    55   23   55 1   
    56   23   56 1   
    57   24   57 1   
    58   24   58 1   
    59   24   59 1   
    60   26   60 1   
    61   27   28 1   
    62   27   61 1   
    63   27   62 1   
    64   28   29 1   
    65   29   63 1   
    66   29   64 1   
    67   29   65 1   
@<TRIPOS>SUBSTRUCTURE
     1 SBA         1 TEMP              0 ****  ****    0 ROOT
