@<TRIPOS>MOLECULE
SBA
   65    65     1     0     0
SMALL
bcc


@<TRIPOS>ATOM
      1 C5         -1.3630    1.7410   -6.7400 ca        1 SBA     -0.131500
      2 C6         -0.7080    1.0770   -5.7030 ca        1 SBA     -0.111500
      3 C1         -1.0130   -0.2590   -5.4240 ca        1 SBA     -0.096300
      4 C2         -1.9790   -0.9240   -6.1890 ca        1 SBA     -0.111500
      5 C3         -2.6260   -0.2590   -7.2280 ca        1 SBA     -0.131500
      6 C4         -2.3190    1.0740   -7.5050 ca        1 SBA     -0.125000
      7 C7         -0.3060   -1.0110   -4.3480 c3        1 SBA      0.196700
      8 O8          0.0240   -0.0720   -3.3030 os        1 SBA     -0.435900
      9 C9          0.6800   -0.6230   -2.2220 c         1 SBA      0.731100
     10 O27         0.8730   -1.8510   -2.1950 o         1 SBA     -0.593000
     11 N10         1.1130    0.3280   -1.3140 n         1 SBA     -0.506900
     12 C11         1.4910   -0.0990    0.0150 c3        1 SBA      0.031700
     13 C12         0.4550    0.3670    1.0730 c         1 SBA      0.632100
     14 N13         0.3150   -0.4190    2.1900 n         1 SBA     -0.553900
     15 C14        -0.5400   -0.0620    3.2990 c3        1 SBA      0.069700
     16 C15         0.2830    0.0090    4.6190 c3        1 SBA      0.115100
     17 C23        -1.7220   -1.0280    3.4750 c3        1 SBA     -0.090400
     18 C24        -2.6890   -1.0400    2.3010 c3        1 SBA     -0.062700
     19 C25        -3.7790   -2.0630    2.5580 c3        1 SBA     -0.096600
     20 C26        -3.2970    0.3250    2.0550 c3        1 SBA     -0.096600
     21 C19         2.8520    0.4620    0.4590 c3        1 SBA     -0.077400
     22 C20         4.0050    0.0440   -0.4400 c3        1 SBA     -0.064700
     23 C21         5.2950    0.6350    0.0970 c3        1 SBA     -0.097100
     24 C22         4.1220   -1.4620   -0.5500 c3        1 SBA     -0.097100
     25 O28        -0.2130    1.4090    0.9070 o         1 SBA     -0.620100
     26 O29         0.8360   -1.2510    4.9440 oh        1 SBA     -0.589800
     27 C16        -0.5720    0.5780    5.7540 c3        1 SBA      0.100400
     28 O17         0.3170    1.3030    6.5990 os        1 SBA     -0.413600
     29 C18        -0.3410    1.8820    7.7130 c3        1 SBA      0.114700
     30 H5         -1.1220    2.7930   -6.9530 ha        1 SBA      0.132500
     31 H6          0.0440    1.6000   -5.0930 ha        1 SBA      0.139000
     32 H2         -2.2270   -1.9730   -5.9680 ha        1 SBA      0.139000
     33 H3         -3.3810   -0.7860   -7.8290 ha        1 SBA      0.132500
     34 H4         -2.8330    1.5980   -8.3240 ha        1 SBA      0.132000
     35 H71         0.6480   -1.4640   -4.7330 h1        1 SBA      0.064700
     36 H72        -0.9490   -1.8200   -3.9110 h1        1 SBA      0.064700
     37 HNA         0.7170    1.2430   -1.3860 hn        1 SBA      0.337500
     38 H11         1.5530   -1.2320    0.0150 h1        1 SBA      0.102700
     39 HND         0.9030   -1.2090    2.3210 hn        1 SBA      0.323500
     40 H14        -0.9520    0.9750    3.1020 h1        1 SBA      0.097700
     41 H15         1.1880    0.6700    4.4760 h1        1 SBA      0.105700
     42 H231       -1.3380   -2.0710    3.6340 hc        1 SBA      0.042200
     43 H232       -2.2770   -0.7260    4.4020 hc        1 SBA      0.042200
     44 H24        -2.1290   -1.3490    1.3740 hc        1 SBA      0.055700
     45 H251       -4.4680   -2.1180    1.6810 hc        1 SBA      0.037700
     46 H252       -3.3360   -3.0740    2.7240 hc        1 SBA      0.037700
     47 H253       -4.3760   -1.7840    3.4590 hc        1 SBA      0.037700
     48 H261       -3.7210    0.7460    2.9980 hc        1 SBA      0.037700
     49 H262       -2.5250    1.0320    1.6590 hc        1 SBA      0.037700
     50 H263       -4.1190    0.2490    1.3020 hc        1 SBA      0.037700
     51 H191        2.8020    1.5820    0.4950 hc        1 SBA      0.055700
     52 H192        3.0430    0.0930    1.5010 hc        1 SBA      0.055700
     53 H20         3.8290    0.4620   -1.4710 hc        1 SBA      0.060700
     54 H211        6.1440    0.3860   -0.5840 hc        1 SBA      0.037700
     55 H212        5.2150    1.7460    0.1720 hc        1 SBA      0.037700
     56 H213        5.5230    0.2260    1.1100 hc        1 SBA      0.037700
     57 H221        4.1510   -1.9320    0.4620 hc        1 SBA      0.037700
     58 H222        3.2560   -1.8840   -1.1190 hc        1 SBA      0.037700
     59 H223        5.0600   -1.7350   -1.0910 hc        1 SBA      0.037700
     60 HOT         0.1130   -1.8270    5.2250 ho        1 SBA      0.398000
     61 H161       -1.0640   -0.2440    6.3400 h1        1 SBA      0.035700
     62 H162       -1.3590    1.2730    5.3560 h1        1 SBA      0.035700
     63 H181        0.4710    2.4110    8.2710 h1        1 SBA      0.035367
     64 H182       -1.1240    2.6070    7.3770 h1        1 SBA      0.035367
     65 H183       -0.8050    1.0910    8.3530 h1        1 SBA      0.035367
@<TRIPOS>BOND
     1    1    2 ar  
     2    1    6 ar  
     3    1   30 1   
     4    2    3 ar  
     5    2   31 1   
     6    3    4 ar  
     7    3    7 1   
     8    4    5 ar  
     9    4   32 1   
    10    5    6 ar  
    11    5   33 1   
    12    6   34 1   
    13    7    8 1   
    14    7   35 1   
    15    7   36 1   
    16    8    9 1   
    17    9   10 2   
    18    9   11 1   
    19   11   12 1   
    20   11   37 1   
    21   12   13 1   
    22   12   21 1   
    23   12   38 1   
    24   13   14 1   
    25   13   25 2   
    26   14   15 1   
    27   14   39 1   
    28   15   16 1   
    29   15   17 1   
    30   15   40 1   
    31   16   26 1   
    32   16   27 1   
    33   16   41 1   
    34   17   18 1   
    35   17   42 1   
    36   17   43 1   
    37   18   19 1   
    38   18   20 1   
    39   18   44 1   
    40   19   45 1   
    41   19   46 1   
    42   19   47 1   
    43   20   48 1   
    44   20   49 1   
    45   20   50 1   
    46   21   22 1   
    47   21   51 1   
    48   21   52 1   
    49   22   23 1   
    50   22   24 1   
    51   22   53 1   
    52   23   54 1   
    53   23   55 1   
    54   23   56 1   
    55   24   57 1   
    56   24   58 1   
    57   24   59 1   
    58   26   60 1   
    59   27   28 1   
    60   27   61 1   
    61   27   62 1   
    62   28   29 1   
    63   29   63 1   
    64   29   64 1   
    65   29   65 1   
@<TRIPOS>SUBSTRUCTURE
     1 SBA         1 TEMP              0 ****  ****    0 ROOT
