@<TRIPOS>MOLECULE
SBA
   65    62     1     0     0
SMALL
bcc


@<TRIPOS>ATOM
      1 C5         -7.5600   -3.1620   -1.5830 c1        1 SBA     -0.065000
      2 C6         -6.1690   -3.2030   -1.5480 c1        1 SBA     -0.063500
      3 C1         -5.4940   -2.8460   -0.3910 c1        1 SBA     -0.062100
      4 C2         -6.2040   -2.4460    0.7350 c1        1 SBA     -0.065000
      5 C3         -7.5840   -2.4030    0.7040 c1        1 SBA     -0.065000
      6 C4         -8.2680   -2.7630   -0.4610 c1        1 SBA     -0.065000
      7 C7         -3.9490   -2.9440   -0.3330 c3        1 SBA      0.162500
      8 O8         -3.3710   -1.7200   -0.8230 os        1 SBA     -0.435900
      9 C9         -1.9290   -1.6760   -0.7350 c         1 SBA      0.731100
     10 O27        -1.3350   -2.5820   -0.2410 o         1 SBA     -0.592000
     11 N10        -1.2010   -0.5680   -1.3150 n         1 SBA     -0.505900
     12 C11         0.2280   -0.5190   -1.2110 c3        1 SBA      0.031700
     13 C12         0.6290    0.4570   -0.0830 c         1 SBA      0.632100
     14 N13         1.9880    0.4320    0.4580 n         1 SBA     -0.553900
     15 C14         2.4140    1.4600    1.3740 c3        1 SBA      0.110700
     16 C15         2.8670    2.6760    0.5940 c3        1 SBA      0.122100
     17 C23         3.5620    0.9380    2.2300 c3        1 SBA     -0.087400
     18 C24         2.9780    0.0960    3.4300 c3        1 SBA     -0.065700
     19 C25         3.8280   -1.1630    3.6340 c3        1 SBA     -0.096100
     20 C26         2.9990    0.9480    4.7160 c3        1 SBA     -0.096100
     21 C19         0.8100   -0.0520   -2.5130 c3        1 SBA     -0.076400
     22 C20         0.7040   -1.1910   -3.5650 c3        1 SBA     -0.064700
     23 C21         0.1340   -0.6140   -4.9090 c3        1 SBA     -0.096600
     24 C22         2.0750   -1.7800   -3.8100 c3        1 SBA     -0.096600
     25 O28        -0.2020    1.1510    0.4260 o         1 SBA     -0.624100
     26 O29         4.2540    2.6300    0.4150 oh        1 SBA     -0.608800
     27 C16         2.4890    3.9520    1.3680 c3        1 SBA      0.089400
     28 O17         2.3940    5.0490    0.4610 os        1 SBA     -0.435600
     29 C18         1.9710    6.2650    1.0710 c3        1 SBA      0.118700
     30 H5         -8.0510   -3.4210   -2.4200 ha        1 SBA      0.078250
     31 H6         -5.6730   -3.4830   -2.3320 ha        1 SBA      0.075500
     32 H2         -5.7300   -2.1960    1.5400 ha        1 SBA      0.078250
     33 H3         -8.0980   -2.1110    1.5230 ha        1 SBA      0.078250
     34 H4         -9.2600   -2.7330   -0.4830 ha        1 SBA      0.078250
     35 H71        -3.6650   -3.0910    0.5930 h1        1 SBA      0.064200
     36 H72        -3.6550   -3.6750   -0.8760 h1        1 SBA      0.064200
     37 HNA        -1.6570    0.1380   -1.6810 hn        1 SBA      0.336500
     38 H11         0.5770   -1.4290   -1.0010 h1        1 SBA      0.102700
     39 HND         2.5260   -0.2710    0.2900 hn        1 SBA      0.326500
     40 H14         1.6780    1.7030    1.9440 h1        1 SBA      0.091700
     41 H15         2.4340    2.6850   -0.2680 h1        1 SBA      0.056700
     42 H231        4.1650    0.3520    1.6680 hc        1 SBA      0.053200
     43 H232        4.0970    1.7240    2.5940 hc        1 SBA      0.053200
     44 H24         2.0410   -0.1680    3.2240 hc        1 SBA      0.051700
     45 H251        4.7770   -0.9070    3.7240 hc        1 SBA      0.036867
     46 H252        3.5400   -1.6190    4.4340 hc        1 SBA      0.036867
     47 H253        3.7240   -1.7470    2.8770 hc        1 SBA      0.036867
     48 H261        2.3400    1.6830    4.6330 hc        1 SBA      0.036867
     49 H262        2.7660    0.3840    5.4890 hc        1 SBA      0.036867
     50 H263        3.8740    1.3170    4.8420 hc        1 SBA      0.036867
     51 H191        0.3200    0.7240   -2.8260 hc        1 SBA      0.054700
     52 H192        1.7690    0.1910   -2.3810 hc        1 SBA      0.054700
     53 H20         0.0960   -1.8980   -3.2250 hc        1 SBA      0.061700
     54 H211       -0.7470   -0.2260   -4.7480 hc        1 SBA      0.037533
     55 H212        0.0560   -1.3520   -5.5850 hc        1 SBA      0.037533
     56 H213        0.7240    0.0610   -5.2420 hc        1 SBA      0.037533
     57 H221        2.6630   -1.0960   -4.1790 hc        1 SBA      0.037533
     58 H222        2.0020   -2.5160   -4.4370 hc        1 SBA      0.037533
     59 H223        2.4510   -2.1120   -2.9500 hc        1 SBA      0.037533
     60 HOT         4.4720    3.0700   -0.3300 ho        1 SBA      0.420000
     61 H161        3.1620    4.1380    2.0260 h1        1 SBA      0.044200
     62 H162        1.6040    3.8160    1.8240 h1        1 SBA      0.044200
     63 H181        2.6590    6.5630    1.7330 h1        1 SBA      0.036367
     64 H182        1.8580    6.9620    0.3760 h1        1 SBA      0.036367
     65 H183        1.1070    6.1190    1.5350 h1        1 SBA      0.036367
@<TRIPOS>BOND
     1    1    6 3   
     2    1   30 1   
     3    2    3 3   
     4    2   31 1   
     5    3    7 1   
     6    4    5 3   
     7    4   32 1   
     8    5   33 1   
     9    6   34 1   
    10    7    8 1   
    11    7   35 1   
    12    7   36 1   
    13    8    9 1   
    14    9   10 2   
    15    9   11 1   
    16   11   12 1   
    17   11   37 1   
    18   12   13 1   
    19   12   21 1   
    20   12   38 1   
    21   13   14 1   
    22   13   25 2   
    23   14   15 1   
    24   14   39 1   
    25   15   16 1   
    26   15   17 1   
    27   15   40 1   
    28   16   26 1   
    29   16   27 1   
    30   16   41 1   
    31   17   18 1   
    32   17   42 1   
    33   17   43 1   
    34   18   19 1   
    35   18   20 1   
    36   18   44 1   
    37   19   45 1   
    38   19   46 1   
    39   19   47 1   
    40   20   48 1   
    41   20   49 1   
    42   20   50 1   
    43   21   22 1   
    44   21   51 1   
    45   21   52 1   
    46   22   23 1   
    47   22   24 1   
    48   22   53 1   
    49   23   54 1   
    50   23   55 1   
    51   23   56 1   
    52   24   57 1   
    53   24   58 1   
    54   24   59 1   
    55   26   60 1   
    56   27   28 1   
    57   27   61 1   
    58   27   62 1   
    59   28   29 1   
    60   29   63 1   
    61   29   64 1   
    62   29   65 1   
@<TRIPOS>SUBSTRUCTURE
     1 SBA         1 TEMP              0 ****  ****    0 ROOT
