@<TRIPOS>MOLECULE
SBA
   67    67     1     0     0
SMALL
bcc


@<TRIPOS>ATOM
      1 C5          0.4060    0.7060    1.0680 ca        1 SBA     -0.128500
      2 C6          1.6570    0.2070    0.7130 ca        1 SBA     -0.085500
      3 C1          2.6920    0.1670    1.6590 ca        1 SBA     -0.209300
      4 C2          2.4590    0.6290    2.9640 ca        1 SBA     -0.085500
      5 C3          1.2050    1.1220    3.3150 ca        1 SBA     -0.128500
      6 C4          0.1780    1.1610    2.3690 ca        1 SBA     -0.063000
      7 C7          3.9890   -0.4320    1.3060 c3        1 SBA      0.232700
      8 O8          4.7730    0.5210    0.4540 os        1 SBA     -0.386900
      9 C9          5.5100    1.4390    1.0500 c         1 SBA      0.655100
     10 O27         5.8340    1.5490    2.2300 o         1 SBA     -0.510000
     11 N10         6.0430    2.4450    0.0490 n4        1 SBA     -0.661800
     12 C11         7.2790    3.1260    0.5640 c3        1 SBA      0.077500
     13 C12         6.9360    3.8860    1.8580 c         1 SBA      0.533100
     14 N13         7.7950    3.6380    3.0430 n4        1 SBA     -0.651800
     15 C14         8.3180    4.9210    3.6780 c3        1 SBA      0.131500
     16 C15         9.1480    5.7100    2.6340 c3        1 SBA      0.121100
     17 C23         9.1230    4.5960    4.9340 c3        1 SBA     -0.119400
     18 C24         8.4170    3.7160    5.9560 c3        1 SBA     -0.078700
     19 C25         9.2920    3.6080    7.1930 c3        1 SBA     -0.104600
     20 C26         7.0540    4.2550    6.3320 c3        1 SBA     -0.104600
     21 C19         7.8600    4.1340   -0.4370 c3        1 SBA     -0.121400
     22 C20         8.1790    3.5360   -1.8000 c3        1 SBA     -0.075700
     23 C21         8.8700    4.5960   -2.6410 c3        1 SBA     -0.107100
     24 C22         9.0480    2.3010   -1.7000 c3        1 SBA     -0.107100
     25 O28         5.9990    4.6680    1.9480 o         1 SBA     -0.393100
     26 O29        10.0300    4.7990    1.9960 oh        1 SBA     -0.658800
     27 C16         9.8860    6.8930    3.2670 c3        1 SBA      0.100400
     28 O17        10.5380    7.5210    2.1700 os        1 SBA     -0.442600
     29 C18        11.2280    8.7130    2.5410 c3        1 SBA      0.112700
     30 H5         -0.4090    0.7260    0.3260 ha        1 SBA      0.163000
     31 H6          1.8290   -0.1710   -0.3070 ha        1 SBA      0.140500
     32 H2          3.2600    0.5790    3.7170 ha        1 SBA      0.140500
     33 H3          1.0170    1.4670    4.3440 ha        1 SBA      0.163000
     34 H4         -0.8180    1.5410    2.6520 ha        1 SBA      0.166000
     35 H71         3.9040   -1.2810    0.5690 h1        1 SBA      0.111200
     36 H72         4.6210   -0.6990    2.1900 h1        1 SBA      0.111200
     37 HNA         5.3050    3.1400   -0.1420 hn        1 SBA      0.496300
     38 H11         8.0430    2.3070    0.7490 hx        1 SBA      0.142700
     39 HND         8.6140    3.0710    2.7830 hn        1 SBA      0.486800
     40 H14         7.4080    5.5370    3.9520 hx        1 SBA      0.129700
     41 H15         8.4470    6.1080    1.8390 h1        1 SBA      0.066700
     42 H231       10.1030    4.1290    4.6430 hc        1 SBA      0.097200
     43 H232        9.3530    5.5850    5.4240 hc        1 SBA      0.097200
     44 H24         8.3000    2.6750    5.5400 hc        1 SBA      0.026700
     45 H251        8.8300    2.9030    7.9260 hc        1 SBA      0.055367
     46 H252        9.4020    4.6050    7.6860 hc        1 SBA      0.055367
     47 H253       10.3070    3.2270    6.9250 hc        1 SBA      0.055367
     48 H261        6.6230    3.6510    7.1690 hc        1 SBA      0.055367
     49 H262        6.3430    4.2100    5.4720 hc        1 SBA      0.055367
     50 H263        7.1280    5.3150    6.6770 hc        1 SBA      0.055367
     51 H191        8.8130    4.5280    0.0250 hc        1 SBA      0.108700
     52 H192        7.1550    5.0000   -0.5610 hc        1 SBA      0.108700
     53 H20         7.2160    3.2670   -2.3230 hc        1 SBA      0.041700
     54 H211        9.0390    4.2070   -3.6750 hc        1 SBA      0.059200
     55 H212        8.2430    5.5180   -2.7080 hc        1 SBA      0.059200
     56 H213        9.8610    4.8650   -2.2010 hc        1 SBA      0.059200
     57 H221        9.9660    2.5060   -1.0970 hc        1 SBA      0.059200
     58 H222        8.4950    1.4480   -1.2390 hc        1 SBA      0.059200
     59 H223        9.3750    1.9840   -2.7230 hc        1 SBA      0.059200
     60 HOT        10.8620    5.2610    1.8040 ho        1 SBA      0.479000
     61 H161        9.1630    7.5960    3.7570 h1        1 SBA      0.064700
     62 H162       10.6540    6.5450    4.0090 h1        1 SBA      0.064700
     63 H181       10.5090    9.4660    2.9460 h1        1 SBA      0.060700
     64 H182       11.6780    9.0690    1.5790 h1        1 SBA      0.060700
     65 H183       12.0230    8.4840    3.2920 h1        1 SBA      0.060700
     66 H102        6.2720    1.9660   -0.8400 hn        1 SBA      0.496300
     67 H132        7.2380    3.1270    3.7520 hn        1 SBA      0.486800
@<TRIPOS>BOND
     1    1    2 ar  
     2    1    6 ar  
     3    1   30 1   
     4    2    3 ar  
     5    2   31 1   
     6    3    4 ar  
     7    3    7 1   
     8    4    5 ar  
     9    4   32 1   
    10    5    6 ar  
    11    5   33 1   
    12    6   34 1   
    13    7    8 1   
    14    7   35 1   
    15    7   36 1   
    16    8    9 1   
    17    9   10 2   
    18    9   11 1   
    19   11   12 1   
    20   11   37 1   
    21   11   66 1   
    22   12   13 1   
    23   12   21 1   
    24   12   38 1   
    25   13   14 1   
    26   13   25 2   
    27   14   15 1   
    28   14   39 1   
    29   14   67 1   
    30   15   16 1   
    31   15   17 1   
    32   15   40 1   
    33   16   26 1   
    34   16   27 1   
    35   16   41 1   
    36   17   18 1   
    37   17   42 1   
    38   17   43 1   
    39   18   19 1   
    40   18   20 1   
    41   18   44 1   
    42   19   45 1   
    43   19   46 1   
    44   19   47 1   
    45   20   48 1   
    46   20   49 1   
    47   20   50 1   
    48   21   22 1   
    49   21   51 1   
    50   21   52 1   
    51   22   23 1   
    52   22   24 1   
    53   22   53 1   
    54   23   54 1   
    55   23   55 1   
    56   23   56 1   
    57   24   57 1   
    58   24   58 1   
    59   24   59 1   
    60   26   60 1   
    61   27   28 1   
    62   27   61 1   
    63   27   62 1   
    64   28   29 1   
    65   29   63 1   
    66   29   64 1   
    67   29   65 1   
@<TRIPOS>SUBSTRUCTURE
     1 SBA         1 TEMP              0 ****  ****    0 ROOT
