@<TRIPOS>MOLECULE
SBB
   47    49     1     0     0
SMALL
bcc


@<TRIPOS>ATOM
      1 C01        -1.3480   -0.9540    3.1850 ca        1 SBB     -0.123000
      2 C02        -1.1310   -0.5490    4.5000 ca        1 SBB     -0.026000
      3 C03        -0.0730    0.3090    4.8220 ca        1 SBB     -0.364500
      4 C04         0.7610    0.7630    3.7950 ca        1 SBB     -0.026000
      5 C05         0.5510    0.3710    2.4750 ca        1 SBB     -0.123000
      6 C06        -0.5060   -0.4910    2.1690 ca        1 SBB     -0.077600
      7 C07        -0.7500   -0.9600    0.7690 c         1 SBB      0.658700
      8 O08        -1.0020   -2.1570    0.5270 o         1 SBB     -0.595100
      9 N09        -0.7440    0.0010   -0.2210 n         1 SBB     -0.556900
     10 C10        -0.8750   -0.3210   -1.6150 c3        1 SBB      0.087000
     11 C11         0.4530   -0.3450   -2.4040 c3        1 SBB     -0.038400
     12 C12         1.2090   -1.6410   -2.1350 c3        1 SBB     -0.077400
     13 C13         2.6670   -1.5310   -2.5000 c3        1 SBB     -0.093100
     14 S14         0.1750    0.8130    6.4230 sy        1 SBB      1.525200
     15 N15         1.1260   -0.3280    7.0180 n3        1 SBB     -1.026700
     16 O16         0.8770    2.0360    6.3920 o         1 SBB     -0.655300
     17 O17        -1.0660    0.7810    7.0910 o         1 SBB     -0.655300
     18 C18         0.8700    1.9900   -6.9280 cc        1 SBB     -0.188200
     19 C19         0.2470    1.6210   -8.1170 cd        1 SBB     -0.107100
     20 C20         0.4570    1.0400   -5.9190 ca        1 SBB     -0.095800
     21 N21        -0.5430    0.4850   -7.9140 na        1 SBB     -0.194400
     22 C22        -0.4320    0.1060   -6.5750 ca        1 SBB     -0.047200
     23 C23         0.7390    0.8850   -4.5620 ca        1 SBB     -0.078000
     24 C24        -1.0130   -0.9540   -5.8620 ca        1 SBB     -0.142000
     25 C25         0.1590   -0.1690   -3.8620 ca        1 SBB     -0.108300
     26 C26        -0.7070   -1.0730   -4.5170 ca        1 SBB     -0.108000
     27 HC1        -2.1710   -1.6430    2.9370 ha        1 SBB      0.152000
     28 HC2        -1.8110   -0.8950    5.2980 ha        1 SBB      0.157000
     29 HC4         1.5860    1.4580    4.0360 ha        1 SBB      0.157000
     30 HC5         1.2280    0.7330    1.6860 ha        1 SBB      0.152000
     31 HN9        -0.4330    0.9160    0.0050 hn        1 SBB      0.310500
     32 H101       -1.5510    0.4540   -2.0790 h1        1 SBB      0.069200
     33 H102       -1.3710   -1.3290   -1.7080 h1        1 SBB      0.069200
     34 H11         1.0960    0.5160   -2.0630 hc        1 SBB      0.048700
     35 H121        0.7360   -2.4750   -2.7170 hc        1 SBB      0.049700
     36 H122        1.1110   -1.9060   -1.0480 hc        1 SBB      0.049700
     37 H131        3.1760   -2.5140   -2.3520 hc        1 SBB      0.034367
     38 H132        2.7820   -1.2280   -3.5690 hc        1 SBB      0.034367
     39 H133        3.1790   -0.7690   -1.8630 hc        1 SBB      0.034367
     40 H151        2.1140   -0.2850    6.9950 hn        1 SBB      0.449800
     41 H152        0.7900   -1.1410    7.4690 hn        1 SBB      0.449800
     42 H19         0.3030    2.0850   -9.1030 h4        1 SBB      0.165000
     43 H21        -1.0800    0.0230   -8.5970 hn        1 SBB      0.298700
     44 H23         1.4150    1.5920   -4.0600 ha        1 SBB      0.133000
     45 H24        -1.6880   -1.6670   -6.3540 ha        1 SBB      0.133000
     46 H26        -1.1490   -1.8990   -3.9360 ha        1 SBB      0.134000
     47 H18         1.5400    2.8290   -6.7760 ha        1 SBB      0.157000
@<TRIPOS>BOND
     1    1    2 ar  
     2    1    6 ar  
     3    1   27 1   
     4    2    3 ar  
     5    2   28 1   
     6    3    4 ar  
     7    3   14 1   
     8    4    5 ar  
     9    4   29 1   
    10    5    6 ar  
    11    5   30 1   
    12    6    7 1   
    13    7    8 2   
    14    7    9 1   
    15    9   10 1   
    16    9   31 1   
    17   10   11 1   
    18   10   32 1   
    19   10   33 1   
    20   11   12 1   
    21   11   25 1   
    22   11   34 1   
    23   12   13 1   
    24   12   35 1   
    25   12   36 1   
    26   13   37 1   
    27   13   38 1   
    28   13   39 1   
    29   14   15 1   
    30   14   16 2   
    31   14   17 2   
    32   15   40 1   
    33   15   41 1   
    34   18   19 2   
    35   18   20 1   
    36   18   47 1   
    37   19   21 1   
    38   19   42 1   
    39   20   22 ar  
    40   20   23 ar  
    41   21   22 1   
    42   21   43 1   
    43   22   24 ar  
    44   23   25 ar  
    45   23   44 1   
    46   24   26 ar  
    47   24   45 1   
    48   25   26 ar  
    49   26   46 1   
@<TRIPOS>SUBSTRUCTURE
     1 SBB         1 TEMP              0 ****  ****    0 ROOT
