@<TRIPOS>MOLECULE
SBB
   49    51     1     0     0
SMALL
bcc


@<TRIPOS>ATOM
      1 C01         0.4240   -1.3280    1.0210 ca        1 SBB     -0.097000
      2 C02         1.6590   -0.6920    0.8950 ca        1 SBB      0.011500
      3 C03         1.8590    0.6110    1.3850 ca        1 SBB     -0.461500
      4 C04         0.7770    1.2600    2.0110 ca        1 SBB      0.011500
      5 C05        -0.4580    0.6310    2.1530 ca        1 SBB     -0.097000
      6 C06        -0.6330   -0.6660    1.6590 ca        1 SBB     -0.080600
      7 C07        -1.9360   -1.3700    1.7360 c         1 SBB      0.538700
      8 O08        -2.4560   -2.0100    0.8360 o         1 SBB     -0.360100
      9 N09        -2.6640   -1.3150    3.0480 n4        1 SBB     -0.672800
     10 C10        -3.9340   -0.5150    2.9490 c3        1 SBB      0.104800
     11 C11        -4.7240   -0.4920    4.2700 c3        1 SBB     -0.015400
     12 C12        -4.0490    0.4030    5.3010 c3        1 SBB     -0.076400
     13 C13        -4.6220    0.1850    6.6790 c3        1 SBB     -0.101100
     14 S14         3.3480    1.3020    1.3540 sy        1 SBB      1.462200
     15 N15         3.2640    2.1280   -0.3410 n4        1 SBB     -0.800500
     16 O16         3.4410    2.4040    2.1710 o         1 SBB     -0.534300
     17 O17         4.3580    0.3950    1.1440 o         1 SBB     -0.534300
     18 C18        -9.7710   -1.1090    3.9410 cc        1 SBB     -0.183200
     19 C19       -10.7000   -0.1680    3.5010 cd        1 SBB     -0.073100
     20 C20        -8.4690   -0.4930    3.8470 ca        1 SBB     -0.092800
     21 N21       -10.0490    1.0120    3.1240 na        1 SBB     -0.175400
     22 C22        -8.6840    0.8470    3.3300 ca        1 SBB     -0.030200
     23 C23        -7.1770   -0.9170    4.1430 ca        1 SBB     -0.050000
     24 C24        -7.6010    1.7170    3.1230 ca        1 SBB     -0.120000
     25 C25        -6.1110   -0.0420    3.9360 ca        1 SBB     -0.174300
     26 C26        -6.3320    1.2580    3.4300 ca        1 SBB     -0.124000
     27 HC1         0.2850   -2.3480    0.6140 ha        1 SBB      0.187500
     28 HC2         2.4980   -1.2410    0.4190 ha        1 SBB      0.195000
     29 HC4         0.9110    2.2820    2.4210 ha        1 SBB      0.195000
     30 HC5        -1.2860    1.1770    2.6390 ha        1 SBB      0.187500
     31 HN9        -2.0640   -0.9160    3.7790 hn        1 SBB      0.468800
     32 H101       -3.6580    0.5340    2.6490 hx        1 SBB      0.113200
     33 H102       -4.5640   -0.9830    2.1360 hx        1 SBB      0.113200
     34 H11        -4.7780   -1.5400    4.6880 hc        1 SBB      0.070700
     35 H121       -2.9450    0.1960    5.3270 hc        1 SBB      0.027700
     36 H122       -4.1800    1.4800    5.0100 hc        1 SBB      0.027700
     37 H131       -4.1540    0.8940    7.4050 hc        1 SBB      0.059033
     38 H132       -4.4340   -0.8580    7.0300 hc        1 SBB      0.059033
     39 H133       -5.7260    0.3630    6.6740 hc        1 SBB      0.059033
     40 H151        3.3940    3.1400   -0.2530 hn        1 SBB      0.471133
     41 H152        4.0170    1.7820   -0.9440 hn        1 SBB      0.471133
     42 H21       -10.4870    1.8370    2.8050 hn        1 SBB      0.315700
     43 H23        -7.0160   -1.9280    4.5470 ha        1 SBB      0.138000
     44 H24        -7.7570    2.7350    2.7380 ha        1 SBB      0.150000
     45 H26        -5.4750    1.9330    3.2870 ha        1 SBB      0.112000
     46 H18        -9.9810   -2.1150    4.2950 ha        1 SBB      0.173000
     47 H092       -2.9180   -2.2760    3.3280 hn        1 SBB      0.468800
     48 H153        2.3880    1.9770   -0.8350 hn        1 SBB      0.471133
     49 H19       -11.7880   -0.2490    3.4240 h4        1 SBB      0.190000
@<TRIPOS>BOND
     1    1    2 ar  
     2    1    6 ar  
     3    1   27 1   
     4    2    3 ar  
     5    2   28 1   
     6    3    4 ar  
     7    3   14 1   
     8    4    5 ar  
     9    4   29 1   
    10    5    6 ar  
    11    5   30 1   
    12    6    7 1   
    13    7    8 2   
    14    7    9 1   
    15    9   10 1   
    16    9   31 1   
    17    9   47 1   
    18   10   11 1   
    19   10   32 1   
    20   10   33 1   
    21   11   12 1   
    22   11   25 1   
    23   11   34 1   
    24   12   13 1   
    25   12   35 1   
    26   12   36 1   
    27   13   37 1   
    28   13   38 1   
    29   13   39 1   
    30   14   15 1   
    31   14   16 2   
    32   14   17 2   
    33   15   40 1   
    34   15   41 1   
    35   15   48 1   
    36   18   19 2   
    37   18   20 1   
    38   18   46 1   
    39   19   21 1   
    40   19   49 1   
    41   20   22 ar  
    42   20   23 ar  
    43   21   22 1   
    44   21   42 1   
    45   22   24 ar  
    46   23   25 ar  
    47   23   43 1   
    48   24   26 ar  
    49   24   44 1   
    50   25   26 ar  
    51   26   45 1   
@<TRIPOS>SUBSTRUCTURE
     1 SBB         1 TEMP              0 ****  ****    0 ROOT
