@<TRIPOS>MOLECULE
SBB
   49    51     1     0     0
SMALL
bcc


@<TRIPOS>ATOM
      1 C01         0.3980   -1.2840    0.9380 ca        1 SBB     -0.096500
      2 C02         1.6370   -0.6540    0.8280 ca        1 SBB      0.011500
      3 C03         1.8510    0.6270    1.3660 ca        1 SBB     -0.461500
      4 C04         0.7800    1.2610    2.0250 ca        1 SBB      0.011500
      5 C05        -0.4600    0.6380    2.1510 ca        1 SBB     -0.096500
      6 C06        -0.6490   -0.6380    1.6080 ca        1 SBB     -0.080600
      7 C07        -1.9580   -1.3330    1.6680 c         1 SBB      0.538700
      8 O08        -2.4900   -1.9340    0.7470 o         1 SBB     -0.360100
      9 N09        -2.6760   -1.3230    2.9860 ny        1 SBB     -0.672800
     10 C10        -3.9410   -0.5090    2.9260 c3        1 SBB      0.104800
     11 C11        -4.7210   -0.5280    4.2530 c3        1 SBB     -0.015400
     12 C12        -4.0300    0.3250    5.3100 c3        1 SBB     -0.076400
     13 C13        -4.5930    0.0600    6.6840 c3        1 SBB     -0.101100
     14 S14         3.3460    1.3070    1.3510 sy        1 SBB      1.462200
     15 N15         3.2590    2.1980   -0.3100 nz        1 SBB     -0.800500
     16 O16         3.4550    2.3740    2.2100 o         1 SBB     -0.534300
     17 O17         4.3470    0.3990    1.0990 o         1 SBB     -0.534300
     18 C18        -9.7740   -1.0970    3.9440 cc        1 SBB     -0.183200
     19 C19       -10.6990   -0.1350    3.5450 cd        1 SBB     -0.073100
     20 C20        -8.4680   -0.4880    3.8610 ca        1 SBB     -0.092800
     21 N21       -10.0430    1.0540    3.2050 na        1 SBB     -0.175400
     22 C22        -8.6770    0.8710    3.3930 ca        1 SBB     -0.030200
     23 C23        -7.1770   -0.9310    4.1320 ca        1 SBB     -0.050000
     24 C24        -7.5890    1.7410    3.2090 ca        1 SBB     -0.120000
     25 C25        -6.1060   -0.0570    3.9470 ca        1 SBB     -0.174300
     26 C26        -6.3220    1.2620    3.4880 ca        1 SBB     -0.124000
     27 HC1         0.2470   -2.2860    0.4920 ha        1 SBB      0.187500
     28 HC2         2.4680   -1.1910    0.3240 ha        1 SBB      0.195000
     29 HC4         0.9260    2.2650    2.4730 ha        1 SBB      0.195000
     30 HC5        -1.2790    1.1710    2.6640 ha        1 SBB      0.187500
     31 HN9        -2.9360   -2.2920    3.2300 hn        1 SBB      0.468800
     32 H101       -3.6580    0.5480    2.6630 hx        1 SBB      0.113200
     33 H102       -4.5810   -0.9420    2.1020 hx        1 SBB      0.113200
     34 H11        -4.7780   -1.5910    4.6340 hc        1 SBB      0.070700
     35 H121       -4.1570    1.4110    5.0590 hc        1 SBB      0.027700
     36 H122       -2.9280    0.1100    5.3190 hc        1 SBB      0.027700
     37 H131       -4.1140    0.7390    7.4310 hc        1 SBB      0.059033
     38 H132       -5.6960    0.2440    6.6950 hc        1 SBB      0.059033
     39 H133       -4.4090   -0.9970    6.9960 hc        1 SBB      0.059033
     40 H151        3.3980    3.2040   -0.1840 hn        1 SBB      0.471133
     41 H152        2.3780    2.0730   -0.8030 hn        1 SBB      0.471133
     42 H21       -10.4770    1.8930    2.9180 hn        1 SBB      0.315700
     43 H23        -7.0200   -1.9570    4.4980 ha        1 SBB      0.138000
     44 H24        -7.7410    2.7720    2.8610 ha        1 SBB      0.150000
     45 H26        -5.4610    1.9350    3.3620 ha        1 SBB      0.112000
     46 H18        -9.9890   -2.1130    4.2640 ha        1 SBB      0.173000
     47 H092       -2.0680   -0.9560    3.7270 hn        1 SBB      0.468800
     48 H153        4.0040    1.8700   -0.9310 hn        1 SBB      0.471133
     49 H19       -11.7890   -0.2050    3.4730 h4        1 SBB      0.190000
@<TRIPOS>BOND
     1    1    2 ar  
     2    1    6 ar  
     3    1   27 1   
     4    2    3 ar  
     5    2   28 1   
     6    3    4 ar  
     7    3   14 1   
     8    4    5 ar  
     9    4   29 1   
    10    5    6 ar  
    11    5   30 1   
    12    6    7 1   
    13    7    8 2   
    14    7    9 1   
    15    9   10 1   
    16    9   31 1   
    17    9   47 1   
    18   10   11 1   
    19   10   32 1   
    20   10   33 1   
    21   11   12 1   
    22   11   25 1   
    23   11   34 1   
    24   12   13 1   
    25   12   35 1   
    26   12   36 1   
    27   13   37 1   
    28   13   38 1   
    29   13   39 1   
    30   14   15 1   
    31   14   16 2   
    32   14   17 2   
    33   15   40 1   
    34   15   41 1   
    35   15   48 1   
    36   18   19 2   
    37   18   20 1   
    38   18   46 1   
    39   19   21 1   
    40   19   49 1   
    41   20   22 ar  
    42   20   23 ar  
    43   21   22 1   
    44   21   42 1   
    45   22   24 ar  
    46   23   25 ar  
    47   23   43 1   
    48   24   26 ar  
    49   24   44 1   
    50   25   26 ar  
    51   26   45 1   
@<TRIPOS>SUBSTRUCTURE
     1 SBB         1 TEMP              0 ****  ****    0 ROOT
