@<TRIPOS>MOLECULE
SBC
   39    42     1     0     0
SMALL
bcc


@<TRIPOS>ATOM
      1 C1         -0.0840    0.0540    0.0470 ca        1 SBC      0.026500
      2 C2          1.3010    0.0510    0.0260 ca        1 SBC     -0.151500
      3 C3          2.0240    0.0370    1.2420 ca        1 SBC      0.137800
      4 C4          1.3160    0.0760    2.4660 ca        1 SBC     -0.151500
      5 C5         -0.0700    0.0790    2.4590 ca        1 SBC      0.026500
      6 C6         -0.8090    0.0540    1.2570 ca        1 SBC     -0.533500
      7 N7          3.4450   -0.0210    1.2230 na        1 SBC      0.197800
      8 C8          4.2400   -0.7560    0.2990 ca        1 SBC      0.020800
      9 C9          5.6120   -0.4400    0.6110 ca        1 SBC     -0.167900
     10 C10         5.5130    0.4700    1.7370 cc        1 SBC      0.268900
     11 N11         4.2030    0.6870    2.0690 nd        1 SBC     -0.505100
     12 C12         3.9610   -1.6760   -0.7100 ca        1 SBC     -0.230900
     13 C13         6.6900   -0.9890   -0.1090 ca        1 SBC     -0.064000
     14 C14         6.4460   -1.8770   -1.1320 ca        1 SBC     -0.085000
     15 C15         5.1030   -2.2250   -1.4250 ca        1 SBC     -0.019200
     16 C16         2.8200   -2.3380   -1.3110 cc        1 SBC      0.337800
     17 N17         4.5680   -3.1140   -2.3580 na        1 SBC      0.029900
     18 N18         3.2390   -3.1780   -2.2840 nd        1 SBC     -0.451100
     19 C19         6.6630    1.0540    2.4020 c         1 SBC      0.515800
     20 N20         6.3700    1.9220    3.6110 n4        1 SBC     -0.753400
     21 O21         7.8460    0.9410    2.1230 o         1 SBC     -0.381100
     22 S22        -2.4170   -0.1190    1.2690 sy        1 SBC      1.481200
     23 O23        -2.9360   -0.4310    2.5050 o         1 SBC     -0.548800
     24 O24        -2.9390   -0.5800    0.0830 o         1 SBC     -0.548800
     25 N25        -2.9170    1.7170    1.1540 n4        1 SBC     -0.793500
     26 H1         -0.6320    0.0320   -0.9170 ha        1 SBC      0.183500
     27 H2          1.8330    0.0540   -0.9440 ha        1 SBC      0.189500
     28 H4          1.8510    0.0800    3.4310 ha        1 SBC      0.189500
     29 H5         -0.6090    0.0660    3.4280 ha        1 SBC      0.183500
     30 H13         7.7210   -0.7020    0.1590 ha        1 SBC      0.177000
     31 H14         7.2730   -2.3190   -1.7110 ha        1 SBC      0.181000
     32 H16         1.7650   -2.2440   -1.0530 h4        1 SBC      0.057800
     33 H17         5.0690   -3.6710   -3.0190 hn        1 SBC      0.360700
     34 H201        7.2520    2.2800    4.0030 hn        1 SBC      0.475800
     35 H202        5.8840    1.3710    4.3260 hn        1 SBC      0.475800
     36 H251       -3.4810    1.9820    1.9630 hn        1 SBC      0.463133
     37 H252       -3.4890    1.8750    0.3220 hn        1 SBC      0.463133
     38 H203        5.7760    2.7120    3.3400 hn        1 SBC      0.475800
     39 H253       -2.1250    2.3510    1.1090 hn        1 SBC      0.463133
@<TRIPOS>BOND
     1    1    2 ar  
     2    1    6 ar  
     3    1   26 1   
     4    2    3 ar  
     5    2   27 1   
     6    3    4 ar  
     7    3    7 1   
     8    4    5 ar  
     9    4   28 1   
    10    5    6 ar  
    11    5   29 1   
    12    6   22 1   
    13    7    8 1   
    14    7   11 1   
    15    8    9 ar  
    16    8   12 ar  
    17    9   10 1   
    18    9   13 ar  
    19   10   11 2   
    20   10   19 1   
    21   12   15 ar  
    22   12   16 1   
    23   13   14 ar  
    24   13   30 1   
    25   14   15 ar  
    26   14   31 1   
    27   15   17 1   
    28   16   18 2   
    29   16   32 1   
    30   17   18 1   
    31   17   33 1   
    32   19   20 1   
    33   19   21 2   
    34   20   34 1   
    35   20   35 1   
    36   20   38 1   
    37   22   23 2   
    38   22   24 2   
    39   22   25 1   
    40   25   36 1   
    41   25   37 1   
    42   25   39 1   
@<TRIPOS>SUBSTRUCTURE
     1 SBC         1 TEMP              0 ****  ****    0 ROOT
