@<TRIPOS>MOLECULE
SBC
   37    40     1     0     0
SMALL
bcc


@<TRIPOS>ATOM
      1 C1         -2.5030   -0.4900   -0.7210 ca        1 SBC     -0.008000
      2 C2         -1.1150   -0.4270   -0.7180 ca        1 SBC     -0.161000
      3 C3         -0.4630    0.5510    0.0620 ca        1 SBC      0.090800
      4 C4         -1.2310    1.4580    0.8220 ca        1 SBC     -0.161000
      5 C5         -2.6180    1.3720    0.7940 ca        1 SBC     -0.008000
      6 C6         -3.2760    0.4060    0.0250 ca        1 SBC     -0.385500
      7 N7          0.9570    0.6300    0.0740 na        1 SBC      0.164800
      8 C8          1.8630   -0.4540    0.0330 ca        1 SBC      0.020800
      9 C9          3.1780    0.1250   -0.0750 ca        1 SBC     -0.207900
     10 C10         2.9360    1.5610   -0.0890 cc        1 SBC      0.322900
     11 N11         1.6080    1.8120   -0.0000 nd        1 SBC     -0.499100
     12 C12         1.7360   -1.8420    0.1240 ca        1 SBC     -0.229900
     13 C13         4.3400   -0.6610   -0.1300 ca        1 SBC     -0.022000
     14 C14         4.2430   -2.0350   -0.0660 ca        1 SBC     -0.165000
     15 C15         2.9600   -2.6150    0.0670 ca        1 SBC     -0.021200
     16 C16         0.6930   -2.8370    0.2910 cc        1 SBC      0.352800
     17 N17         2.5620   -3.9510    0.1840 na        1 SBC     -0.011100
     18 N18         1.2370   -4.0730    0.3210 nd        1 SBC     -0.510100
     19 C19         4.0100    2.5830   -0.1850 c         1 SBC      0.618800
     20 N20         3.6640    3.9090   -0.1640 n         1 SBC     -0.660000
     21 O21         5.2080    2.2450   -0.2820 o         1 SBC     -0.612100
     22 S22        -4.9670    0.3030    0.0230 sy        1 SBC      1.528200
     23 O23        -5.4410    0.8670    1.2250 o         1 SBC     -0.655800
     24 O24        -5.3230   -1.0300   -0.2690 o         1 SBC     -0.655800
     25 N25        -5.3880    1.2410   -1.2030 n3        1 SBC     -1.027700
     26 H1         -3.0070   -1.2720   -1.3170 ha        1 SBC      0.160000
     27 H2         -0.5310   -1.1380   -1.3260 ha        1 SBC      0.161500
     28 H4         -0.7450    2.2320    1.4370 ha        1 SBC      0.161500
     29 H5         -3.2150    2.0680    1.4120 ha        1 SBC      0.160000
     30 H13         5.3160   -0.1530   -0.2220 ha        1 SBC      0.178000
     31 H14         5.1370   -2.6710   -0.1080 ha        1 SBC      0.147000
     32 H16        -0.3800   -2.6700    0.3970 h4        1 SBC      0.061800
     33 H17         3.1490   -4.7520    0.1960 hn        1 SBC      0.330700
     34 H201        4.3780    4.5910   -0.2300 hn        1 SBC      0.321500
     35 H202        2.7250    4.2040   -0.0940 hn        1 SBC      0.321500
     36 H251       -5.5840    2.2060   -1.1120 hn        1 SBC      0.448800
     37 H252       -5.5070    0.9140   -2.1280 hn        1 SBC      0.448800
@<TRIPOS>BOND
     1    1    2 ar  
     2    1    6 ar  
     3    1   26 1   
     4    2    3 ar  
     5    2   27 1   
     6    3    4 ar  
     7    3    7 1   
     8    4    5 ar  
     9    4   28 1   
    10    5    6 ar  
    11    5   29 1   
    12    6   22 1   
    13    7    8 1   
    14    7   11 1   
    15    8    9 ar  
    16    8   12 ar  
    17    9   10 1   
    18    9   13 ar  
    19   10   11 2   
    20   10   19 1   
    21   12   15 ar  
    22   12   16 1   
    23   13   14 ar  
    24   13   30 1   
    25   14   15 ar  
    26   14   31 1   
    27   15   17 1   
    28   16   18 2   
    29   16   32 1   
    30   17   18 1   
    31   17   33 1   
    32   19   20 1   
    33   19   21 2   
    34   20   34 1   
    35   20   35 1   
    36   22   23 2   
    37   22   24 2   
    38   22   25 1   
    39   25   36 1   
    40   25   37 1   
@<TRIPOS>SUBSTRUCTURE
     1 SBC         1 TEMP              0 ****  ****    0 ROOT
