@<TRIPOS>MOLECULE
SBC
   39    42     1     0     0
SMALL
bcc


@<TRIPOS>ATOM
      1 C1         -0.0830    0.0540    0.0440 ca        1 SBC      0.026500
      2 C2          1.3020    0.0530    0.0250 ca        1 SBC     -0.151500
      3 C3          2.0230    0.0360    1.2420 ca        1 SBC      0.137800
      4 C4          1.3140    0.0710    2.4640 ca        1 SBC     -0.151500
      5 C5         -0.0720    0.0730    2.4560 ca        1 SBC      0.026500
      6 C6         -0.8100    0.0510    1.2540 ca        1 SBC     -0.533500
      7 N7          3.4440   -0.0210    1.2240 na        1 SBC      0.197800
      8 C8          4.2410   -0.7540    0.3000 ca        1 SBC      0.020800
      9 C9          5.6130   -0.4370    0.6140 ca        1 SBC     -0.167900
     10 C10         5.5120    0.4700    1.7420 cc        1 SBC      0.268900
     11 N11         4.2010    0.6860    2.0730 nd        1 SBC     -0.505100
     12 C12         3.9640   -1.6720   -0.7120 ca        1 SBC     -0.230900
     13 C13         6.6920   -0.9850   -0.1060 ca        1 SBC     -0.064000
     14 C14         6.4490   -1.8710   -1.1310 ca        1 SBC     -0.085000
     15 C15         5.1070   -2.2190   -1.4260 ca        1 SBC     -0.019200
     16 C16         2.8240   -2.3320   -1.3160 cc        1 SBC      0.337800
     17 N17         4.5740   -3.1050   -2.3620 na        1 SBC      0.029900
     18 N18         3.2440   -3.1700   -2.2900 nd        1 SBC     -0.451100
     19 C19         6.6610    1.0530    2.4100 c         1 SBC      0.515800
     20 N20         6.3650    1.9190    3.6200 nz        1 SBC     -0.753400
     21 O21         7.8430    0.9400    2.1330 o         1 SBC     -0.381100
     22 S22        -2.4170   -0.1240    1.2630 sy        1 SBC      1.481200
     23 O23        -2.9380   -0.4390    2.4970 o         1 SBC     -0.548800
     24 O24        -2.9380   -0.5820    0.0740 o         1 SBC     -0.548800
     25 N25        -2.9190    1.7120    1.1520 nz        1 SBC     -0.793500
     26 H1         -0.6300    0.0350   -0.9210 ha        1 SBC      0.183500
     27 H2          1.8350    0.0590   -0.9450 ha        1 SBC      0.189500
     28 H4          1.8480    0.0730    3.4310 ha        1 SBC      0.189500
     29 H5         -0.6120    0.0570    3.4250 ha        1 SBC      0.183500
     30 H13         7.7230   -0.6980    0.1650 ha        1 SBC      0.177000
     31 H14         7.2770   -2.3110   -1.7100 ha        1 SBC      0.181000
     32 H16         1.7680   -2.2390   -1.0590 h4        1 SBC      0.057800
     33 H17         5.0760   -3.6610   -3.0240 hn        1 SBC      0.360700
     34 H201        7.2470    2.2770    4.0140 hn        1 SBC      0.475800
     35 H202        5.8780    1.3670    4.3330 hn        1 SBC      0.475800
     36 H251       -2.1280    2.3470    1.1090 hn        1 SBC      0.463133
     37 H252       -3.4830    1.9740    1.9620 hn        1 SBC      0.463133
     38 H203        5.7720    2.7090    3.3490 hn        1 SBC      0.475800
     39 H253       -3.4900    1.8730    0.3200 hn        1 SBC      0.463133
@<TRIPOS>BOND
     1    1    2 ar  
     2    1    6 ar  
     3    1   26 1   
     4    2    3 ar  
     5    2   27 1   
     6    3    4 ar  
     7    3    7 1   
     8    4    5 ar  
     9    4   28 1   
    10    5    6 ar  
    11    5   29 1   
    12    6   22 1   
    13    7    8 1   
    14    7   11 1   
    15    8    9 ar  
    16    8   12 ar  
    17    9   10 1   
    18    9   13 ar  
    19   10   11 2   
    20   10   19 1   
    21   12   15 ar  
    22   12   16 1   
    23   13   14 ar  
    24   13   30 1   
    25   14   15 ar  
    26   14   31 1   
    27   15   17 1   
    28   16   18 2   
    29   16   32 1   
    30   17   18 1   
    31   17   33 1   
    32   19   20 1   
    33   19   21 2   
    34   20   34 1   
    35   20   35 1   
    36   20   38 1   
    37   22   23 2   
    38   22   24 2   
    39   22   25 1   
    40   25   36 1   
    41   25   37 1   
    42   25   39 1   
@<TRIPOS>SUBSTRUCTURE
     1 SBC         1 TEMP              0 ****  ****    0 ROOT
