@<TRIPOS>MOLECULE
SBC
   39    42     1     0     0
SMALL
bcc


@<TRIPOS>ATOM
      1 C1         -0.0860    0.0480    0.0520 ca        1 SBC      0.026500
      2 C2          1.2990    0.0490    0.0290 ca        1 SBC     -0.151500
      3 C3          2.0240    0.0360    1.2430 ca        1 SBC      0.137800
      4 C4          1.3200    0.0740    2.4680 ca        1 SBC     -0.151500
      5 C5         -0.0670    0.0730    2.4640 ca        1 SBC      0.026500
      6 C6         -0.8090    0.0470    1.2640 ca        1 SBC     -0.533500
      7 N7          3.4450   -0.0190    1.2210 na        1 SBC      0.197800
      8 C8          4.2400   -0.7530    0.2960 ca        1 SBC      0.020800
      9 C9          5.6120   -0.4330    0.6050 ca        1 SBC     -0.167900
     10 C10         5.5140    0.4770    1.7310 cc        1 SBC      0.268900
     11 N11         4.2040    0.6920    2.0650 nd        1 SBC     -0.505100
     12 C12         3.9610   -1.6740   -0.7120 ca        1 SBC     -0.230900
     13 C13         6.6900   -0.9810   -0.1170 ca        1 SBC     -0.064000
     14 C14         6.4450   -1.8710   -1.1390 ca        1 SBC     -0.085000
     15 C15         5.1030   -2.2220   -1.4280 ca        1 SBC     -0.019200
     16 C16         2.8200   -2.3380   -1.3100 cc        1 SBC      0.337800
     17 N17         4.5680   -3.1120   -2.3600 na        1 SBC      0.029900
     18 N18         3.2380   -3.1790   -2.2830 nd        1 SBC     -0.451100
     19 C19         6.6640    1.0640    2.3930 c         1 SBC      0.515800
     20 N20         6.3720    1.9330    3.6010 n4        1 SBC     -0.753400
     21 O21         7.8460    0.9520    2.1120 o         1 SBC     -0.381100
     22 S22        -2.4160   -0.1300    1.2800 sy        1 SBC      1.481200
     23 O23        -2.9320   -0.4430    2.5170 o         1 SBC     -0.548800
     24 O24        -2.9400   -0.5920    0.0940 o         1 SBC     -0.548800
     25 N25        -2.9210    1.7040    1.1650 n4        1 SBC     -0.793500
     26 H1         -0.6360    0.0250   -0.9100 ha        1 SBC      0.183500
     27 H2          1.8290    0.0530   -0.9430 ha        1 SBC      0.189500
     28 H4          1.8560    0.0790    3.4330 ha        1 SBC      0.189500
     29 H5         -0.6040    0.0600    3.4350 ha        1 SBC      0.183500
     30 H13         7.7210   -0.6930    0.1500 ha        1 SBC      0.177000
     31 H14         7.2720   -2.3120   -1.7190 ha        1 SBC      0.181000
     32 H16         1.7650   -2.2460   -1.0500 h4        1 SBC      0.057800
     33 H17         5.0680   -3.6690   -3.0210 hn        1 SBC      0.360700
     34 H201        7.2540    2.2940    3.9910 hn        1 SBC      0.475800
     35 H202        5.8870    1.3830    4.3170 hn        1 SBC      0.475800
     36 H251       -2.1310    2.3400    1.1190 hn        1 SBC      0.463133
     37 H252       -3.4830    1.9680    1.9760 hn        1 SBC      0.463133
     38 H203        5.7760    2.7220    3.3290 hn        1 SBC      0.475800
     39 H253       -3.4950    1.8620    0.3350 hn        1 SBC      0.463133
@<TRIPOS>BOND
     1    1    2 ar  
     2    1    6 ar  
     3    1   26 1   
     4    2    3 ar  
     5    2   27 1   
     6    3    4 ar  
     7    3    7 1   
     8    4    5 ar  
     9    4   28 1   
    10    5    6 ar  
    11    5   29 1   
    12    6   22 1   
    13    7    8 1   
    14    7   11 1   
    15    8    9 ar  
    16    8   12 ar  
    17    9   10 1   
    18    9   13 ar  
    19   10   11 2   
    20   10   19 1   
    21   12   15 ar  
    22   12   16 1   
    23   13   14 ar  
    24   13   30 1   
    25   14   15 ar  
    26   14   31 1   
    27   15   17 1   
    28   16   18 2   
    29   16   32 1   
    30   17   18 1   
    31   17   33 1   
    32   19   20 1   
    33   19   21 2   
    34   20   34 1   
    35   20   35 1   
    36   20   38 1   
    37   22   23 2   
    38   22   24 2   
    39   22   25 1   
    40   25   36 1   
    41   25   37 1   
    42   25   39 1   
@<TRIPOS>SUBSTRUCTURE
     1 SBC         1 TEMP              0 ****  ****    0 ROOT
