@<TRIPOS>MOLECULE
SBF
   86    90     1     0     0
SMALL
bcc


@<TRIPOS>ATOM
      1 C1        -11.9190    1.2850    0.7770 c3        1 SBF     -0.070400
      2 C2        -12.1040   -0.2080    1.0220 c3        1 SBF     -0.061033
      3 C3        -12.5070   -0.8920   -0.2800 c3        1 SBF     -0.070400
      4 C4        -10.7950   -0.8040    1.5280 c3        1 SBF     -0.068400
      5 C5        -10.8280    1.4960   -0.2660 c3        1 SBF     -0.061033
      6 C6        -11.2290    0.8120   -1.5690 c3        1 SBF     -0.070400
      7 C7         -9.5160    0.8990    0.2340 c3        1 SBF     -0.068400
      8 C8        -11.4140   -0.6820   -1.3230 c3        1 SBF     -0.061033
      9 C9         -9.6850   -0.6020    0.4860 c3        1 SBF     -0.041000
     10 C10       -10.1080   -1.2840   -0.8190 c3        1 SBF     -0.068400
     11 C11         9.3550   -1.8120   -1.8120 ca        1 SBF     -0.188000
     12 C12         8.4890   -0.8740   -2.4080 ca        1 SBF     -0.080000
     13 C13         7.7690    0.0070   -1.6430 ca        1 SBF     -0.177000
     14 C14         9.5290   -1.8430   -0.4340 ca        1 SBF      0.143600
     15 C15         8.8120   -0.8910    0.3840 ca        1 SBF     -0.064000
     16 C16         7.8960    0.0090   -0.2260 ca        1 SBF      0.073000
     17 C17         7.1380    0.9080    0.5860 ca        1 SBF     -0.374500
     18 C18         7.3690    0.9360    1.9490 ca        1 SBF      0.006000
     19 C19         8.3220    0.0940    2.5530 ca        1 SBF     -0.179000
     20 C20         9.0220   -0.8090    1.7880 ca        1 SBF     -0.035000
     21 C22         9.7980   -3.8320    0.9120 c3        1 SBF      0.166100
     22 C23        11.5500   -3.1760   -0.6160 c3        1 SBF      0.166100
     23 N25        -6.3640    0.0050    0.3150 n         1 SBF     -0.575900
     24 C26        -5.1550    0.2110   -0.4300 c3        1 SBF      0.087000
     25 C27        -3.8780    0.1190    0.4080 c3        1 SBF     -0.102400
     26 C28        -2.6710    0.3990   -0.4600 c3        1 SBF     -0.077400
     27 C29        -1.3890    0.3010    0.3390 c3        1 SBF     -0.078400
     28 C30        -0.1810    0.5900   -0.5260 c3        1 SBF     -0.079400
     29 C31         1.1020    0.4800    0.2710 c3        1 SBF     -0.078400
     30 C32         2.3070    0.7830   -0.5940 c3        1 SBF     -0.095400
     31 C33         3.5870    0.6500    0.2330 c3        1 SBF      0.224800
     32 N34         4.7890    0.9250   -0.5000 n3        1 SBF     -0.919100
     33 S36         5.9440    1.9490   -0.0260 sy        1 SBF      1.513200
     34 O37         6.4370    2.6420   -1.1510 o         1 SBF     -0.657300
     35 O38        -7.0050   -1.8700   -0.8330 o         1 SBF     -0.614100
     36 C39        -8.4020   -1.2220    1.0280 c3        1 SBF     -0.143400
     37 H1        -12.8800    1.7330    0.4170 hc        1 SBF      0.041200
     38 H1A       -11.6360    1.7960    1.7320 hc        1 SBF      0.041200
     39 H2        -12.9050   -0.3660    1.7930 hc        1 SBF      0.049700
     40 H3        -12.6580   -1.9870   -0.1030 hc        1 SBF      0.041200
     41 H3A       -13.4730   -0.4640   -0.6500 hc        1 SBF      0.041200
     42 H4        -10.5030   -0.3120    2.4910 hc        1 SBF      0.045867
     43 H4A       -10.9280   -1.8990    1.7240 hc        1 SBF      0.045867
     44 H5        -10.6890    2.5950   -0.4470 hc        1 SBF      0.049700
     45 H6        -12.1830    1.2550   -1.9530 hc        1 SBF      0.041200
     46 H6A       -10.4360    0.9740   -2.3430 hc        1 SBF      0.041200
     47 H7         -8.7190    1.0670   -0.5350 hc        1 SBF      0.045867
     48 H7A        -9.2020    1.4080    1.1810 hc        1 SBF      0.045867
     49 H8        -11.7080   -1.1860   -2.2820 hc        1 SBF      0.049700
     50 H10       -10.2400   -2.3820   -0.6400 hc        1 SBF      0.045867
     51 H10A       -9.3000   -1.1590   -1.5860 hc        1 SBF      0.045867
     52 H11         9.8930   -2.5140   -2.4680 ha        1 SBF      0.138000
     53 H12         8.3980   -0.8610   -3.5060 ha        1 SBF      0.137000
     54 H13         7.1250    0.7520   -2.1380 ha        1 SBF      0.154000
     55 H18         6.8010    1.6390    2.5900 ha        1 SBF      0.164000
     56 H19         8.4960    0.1670    3.6360 ha        1 SBF      0.142000
     57 H20         9.7680   -1.4630    2.2690 ha        1 SBF      0.151000
     58 H22         9.4450   -4.6530    0.2300 h1        1 SBF      0.038700
     59 H22A       10.5470   -4.2610    1.6290 h1        1 SBF      0.038700
     60 H22B        8.9190   -3.4430    1.4880 h1        1 SBF      0.038700
     61 H23        11.9950   -2.2910   -1.1400 h1        1 SBF      0.038700
     62 H23A       12.3210   -3.6200    0.0690 h1        1 SBF      0.038700
     63 H23B       11.2710   -3.9500   -1.3830 h1        1 SBF      0.038700
     64 HN25       -6.5330    0.6040    1.0860 hn        1 SBF      0.306500
     65 H26        -5.1060   -0.5520   -1.2600 h1        1 SBF      0.060200
     66 H26A       -5.2000    1.2360   -0.9020 h1        1 SBF      0.060200
     67 H27        -3.9140    0.8560    1.2520 hc        1 SBF      0.044200
     68 H27A       -3.7890   -0.9040    0.8590 hc        1 SBF      0.044200
     69 H28        -2.6400   -0.3320   -1.3110 hc        1 SBF      0.043200
     70 H28A       -2.7560    1.4250   -0.9080 hc        1 SBF      0.043200
     71 H29        -1.4210    1.0270    1.1940 hc        1 SBF      0.041200
     72 H29A       -1.2990   -0.7270    0.7800 hc        1 SBF      0.041200
     73 H30        -0.1520   -0.1300   -1.3860 hc        1 SBF      0.042200
     74 H30A       -0.2670    1.6210   -0.9600 hc        1 SBF      0.042200
     75 H31         1.0690    1.1950    1.1360 hc        1 SBF      0.043200
     76 H31A        1.1920   -0.5530    0.6980 hc        1 SBF      0.043200
     77 H32         2.3360    0.0750   -1.4630 hc        1 SBF      0.048200
     78 H32A        2.2230    1.8210   -1.0100 hc        1 SBF      0.048200
     79 H33         3.5280    1.3610    1.1090 h1        1 SBF      0.052200
     80 H33A        3.6340   -0.4010    0.6460 h1        1 SBF      0.052200
     81 HN34        4.8610    0.4180   -1.3490 hn        1 SBF      0.445800
     82 H39        -8.1810   -0.7840    2.0370 hc        1 SBF      0.064700
     83 H39A       -8.5610   -2.3260    1.1610 hc        1 SBF      0.064700
     84 C24        -7.2130   -1.0620    0.0960 c         1 SBF      0.662100
     85 N21        10.4360   -2.7460    0.1970 nh        1 SBF     -0.644000
     86 O35         5.4780    2.7560    1.0400 o         1 SBF     -0.657300
@<TRIPOS>BOND
     1    1    2 1   
     2    1    5 1   
     3    1   37 1   
     4    1   38 1   
     5    2    3 1   
     6    2    4 1   
     7    2   39 1   
     8    3    8 1   
     9    3   40 1   
    10    3   41 1   
    11    4    9 1   
    12    4   42 1   
    13    4   43 1   
    14    5    6 1   
    15    5    7 1   
    16    5   44 1   
    17    6    8 1   
    18    6   45 1   
    19    6   46 1   
    20    7    9 1   
    21    7   47 1   
    22    7   48 1   
    23    8   10 1   
    24    8   49 1   
    25    9   10 1   
    26    9   36 1   
    27   10   50 1   
    28   10   51 1   
    29   11   12 ar  
    30   11   14 ar  
    31   11   52 1   
    32   12   13 ar  
    33   12   53 1   
    34   13   16 ar  
    35   13   54 1   
    36   14   15 ar  
    37   14   85 1   
    38   15   16 ar  
    39   15   20 ar  
    40   16   17 ar  
    41   17   18 ar  
    42   17   33 1   
    43   18   19 ar  
    44   18   55 1   
    45   19   20 ar  
    46   19   56 1   
    47   20   57 1   
    48   21   58 1   
    49   21   59 1   
    50   21   60 1   
    51   21   85 1   
    52   22   61 1   
    53   22   62 1   
    54   22   63 1   
    55   22   85 1   
    56   23   24 1   
    57   23   64 1   
    58   23   84 1   
    59   24   25 1   
    60   24   65 1   
    61   24   66 1   
    62   25   26 1   
    63   25   67 1   
    64   25   68 1   
    65   26   27 1   
    66   26   69 1   
    67   26   70 1   
    68   27   28 1   
    69   27   71 1   
    70   27   72 1   
    71   28   29 1   
    72   28   73 1   
    73   28   74 1   
    74   29   30 1   
    75   29   75 1   
    76   29   76 1   
    77   30   31 1   
    78   30   77 1   
    79   30   78 1   
    80   31   32 1   
    81   31   79 1   
    82   31   80 1   
    83   32   33 1   
    84   32   81 1   
    85   33   34 2   
    86   33   86 2   
    87   35   84 2   
    88   36   82 1   
    89   36   83 1   
    90   36   84 1   
@<TRIPOS>SUBSTRUCTURE
     1 SBF         1 TEMP              0 ****  ****    0 ROOT
