@<TRIPOS>MOLECULE
SBF
   88    85     1     0     0
SMALL
bcc


@<TRIPOS>ATOM
      1 C1        -11.4490  120.2660   10.2090 c2        1 SBF     -0.107000
      2 C2        -11.5570  119.2810   11.0990 c2        1 SBF     -0.142000
      3 C3        -12.6850  123.0610   14.8770 c1        1 SBF     -0.209000
      4 C4        -15.3790  123.3790    9.5170 c2        1 SBF     -0.145000
      5 C5        -12.1330  121.4510    5.9380 c2        1 SBF     -0.232000
      6 C6        -11.5070  120.4760    6.5850 c2        1 SBF     -0.232000
      7 C7        -13.7410  124.1290    7.8180 c3        1 SBF     -0.195000
      8 C8        -11.8590  122.2440   14.5870 c1        1 SBF     -0.190000
      9 C9        -14.1880  123.2470    8.9240 c2        1 SBF     -0.183000
     10 C10       -10.8700  121.2660   14.2650 c3        1 SBF     -0.121000
     11 C11        16.9320 -107.8010   -6.8160 ca        1 SBF     -0.176000
     12 C12        15.9230 -107.8440   -7.7680 ca        1 SBF     -0.078000
     13 C13        14.7620 -108.5860   -7.5540 ca        1 SBF     -0.209000
     14 C14        16.8010 -108.5080   -5.5920 ca        1 SBF      0.113000
     15 C15        15.6240 -109.2790   -5.3930 ca        1 SBF     -0.201000
     16 C16        14.6190 -109.3040   -6.3600 ca        1 SBF     -0.051000
     17 C17        13.3930 -110.0830   -6.1250 c2        1 SBF     -0.992000
     18 C18        13.1220 -111.1830   -6.8900 c2        1 SBF      0.234000
     19 C19        13.9660 -111.6920   -7.9120 c2        1 SBF     -0.543000
     20 C20        13.8250 -112.7580   -8.6910 c1        1 SBF      0.410000
     21 C22        19.9940 -108.7500   -5.5960 c3        1 SBF     -0.252000
     22 C23        19.0520 -107.8790   -4.7810 c3        1 SBF     -0.049000
     23 N25       -11.9810  123.7410   10.7120 n3        1 SBF     -0.189000
     24 C26       -10.9500  124.0840   11.6630 c3        1 SBF     -0.130000
     25 C27         9.8260 -102.2650  -10.7940 c3        1 SBF     -0.213000
     26 C28         9.7200 -102.4740   -9.3050 c3        1 SBF     -0.159000
     27 C29         9.9660 -103.9210   -8.9340 c3        1 SBF     -0.156000
     28 C30         9.8570 -104.1220   -7.4350 c3        1 SBF     -0.157000
     29 C31        10.0730 -105.5370   -7.0530 c2        1 SBF     -0.051000
     30 C32        10.7230 -105.9050   -5.9420 c2        1 SBF     -0.281000
     31 C33        10.8520 -107.3260   -5.5240 c3        1 SBF     -0.077000
     32 N34        12.2670 -107.7830   -5.4580 n4        1 SBF     -0.477000
     33 S36        12.4460 -109.5780   -4.9270 s6        1 SBF      2.818000
     34 O37        11.1570 -110.0810   -5.0060 o         1 SBF     -0.860500
     35 O38       -11.3120  121.5850   10.7150 os        1 SBF     -0.153000
     36 C39       -13.2640  122.1320    9.2740 c3        1 SBF     -0.152000
     37 H1        -12.8040  124.6740    8.0920 hc        1 SBF      0.096667
     38 H1A       -14.5240  124.8860    7.5620 hc        1 SBF      0.096667
     39 H2        -16.0880  124.1710    9.2320 ha        1 SBF      0.139000
     40 H3        -11.5410  118.2280   10.7740 ha        1 SBF      0.164000
     41 H3A       -13.4170  123.7750   15.1640 ha        1 SBF      0.232000
     42 H4        -11.6440  119.4530   12.1830 ha        1 SBF      0.164000
     43 H4A       -15.7300  122.7050   10.3120 ha        1 SBF      0.139000
     44 H5        -11.6340  122.3850    5.6420 ha        1 SBF      0.118500
     45 H6        -10.6130  121.3080   13.1740 hc        1 SBF      0.097000
     46 H6A       -13.1850  121.3770    5.6270 ha        1 SBF      0.118500
     47 H7        -11.3360  120.1960    9.1160 h4        1 SBF      0.181000
     48 H7A       -13.5310  123.5200    6.9000 hc        1 SBF      0.096667
     49 H8        -11.9960  119.5260    6.8420 ha        1 SBF      0.118500
     50 H10        -9.9350  121.4440   14.8590 hc        1 SBF      0.097000
     51 H10A      -11.2450  120.2370   14.5050 hc        1 SBF      0.097000
     52 H12        16.0460 -107.2880   -8.7120 ha        1 SBF      0.151000
     53 H13        13.9820 -108.6270   -8.3270 ha        1 SBF      0.134000
     54 H18        12.1740 -111.7380   -6.7070 ha        1 SBF      0.159000
     55 H19        14.9160 -111.1160   -8.0990 ha        1 SBF      0.244000
     56 H20        15.4960 -109.8580   -4.4630 ha        1 SBF      0.154000
     57 H22        19.6010 -108.9100   -6.6290 hc        1 SBF      0.089333
     58 H22A       20.1420 -109.7460   -5.1140 hc        1 SBF      0.089333
     59 H22B       17.6740 -109.1260   -3.8780 hn        1 SBF      0.216000
     60 H23        20.9860 -108.2420   -5.6680 hc        1 SBF      0.089333
     61 H23A       19.4990 -107.7150   -3.7570 h1        1 SBF      0.104500
     62 H23B       18.9620 -106.8680   -5.2730 h1        1 SBF      0.104500
     63 HN25      -12.6040  124.4690   10.4040 hn        1 SBF      0.289000
     64 H26       -11.2510  123.7270   12.6910 h1        1 SBF      0.136333
     65 H26A      -10.8220  125.1990   11.6700 h1        1 SBF      0.136333
     66 H27         9.6420 -101.1920  -11.0460 hc        1 SBF      0.079000
     67 H27A       -9.9810  123.5910   11.3770 h1        1 SBF      0.136333
     68 H28         8.7010 -102.1650   -8.9520 hc        1 SBF      0.085000
     69 H28A       10.8430 -102.5430  -11.1620 hc        1 SBF      0.079000
     70 H29         9.0740 -102.8880  -11.3350 hc        1 SBF      0.079000
     71 H29A       10.4650 -101.8200   -8.7780 hc        1 SBF      0.085000
     72 H30         8.8260 -103.8210   -7.0930 hc        1 SBF      0.110500
     73 H30A        9.2210 -104.5750   -9.4600 hc        1 SBF      0.082500
     74 H31        10.9860 -104.2300   -9.2830 hc        1 SBF      0.082500
     75 H31A       10.5850 -103.4480   -6.9090 hc        1 SBF      0.110500
     76 H32        11.1460 -105.1610   -5.2480 ha        1 SBF      0.149000
     77 H32A        9.6370 -106.2840   -7.7400 ha        1 SBF      0.132000
     78 H33        10.4060 -107.4590   -4.4920 hx        1 SBF      0.143500
     79 H33A       10.3030 -108.0160   -6.2320 hx        1 SBF      0.143500
     80 HN34       12.7650 -107.1860   -4.7940 hn        1 SBF      0.252500
     81 H39       -12.7570  121.7490    8.3320 hc        1 SBF      0.163500
     82 H39A      -13.8280  121.2670    9.7270 hc        1 SBF      0.163500
     83 C24       -12.1850  122.5140   10.2450 c2        1 SBF      0.279000
     84 N21        17.7260 -108.4010   -4.5630 nh        1 SBF     -0.290000
     85 O35        13.0440 -109.4210   -3.6910 o         1 SBF     -0.860500
     86 H252      -10.4430  120.5340    6.8580 ha        1 SBF      0.118500
     87 H342       12.7070 -107.6260   -6.3690 hn        1 SBF      0.252500
     88 H11        17.8410 -107.2140   -7.0240 ha        1 SBF      0.157000
@<TRIPOS>BOND
     1    1    2 1   
     2    1   35 1   
     3    1   47 1   
     4    2   40 1   
     5    2   42 1   
     6    3    8 1   
     7    3   41 1   
     8    4    9 1   
     9    4   39 1   
    10    4   43 1   
    11    5    6 1   
    12    5   44 1   
    13    5   46 1   
    14    6   49 1   
    15    6   86 1   
    16    7    9 1   
    17    7   37 1   
    18    7   38 1   
    19    7   48 1   
    20    8   10 1   
    21    9   36 1   
    22   10   45 1   
    23   10   50 1   
    24   10   51 1   
    25   11   12 1   
    26   11   14 1   
    27   11   88 1   
    28   12   13 1   
    29   12   52 1   
    30   13   16 1   
    31   13   53 1   
    32   14   15 1   
    33   14   84 1   
    34   15   16 1   
    35   15   56 1   
    36   16   17 1   
    37   17   18 1   
    38   17   33 1   
    39   18   19 1   
    40   18   54 1   
    41   19   20 1   
    42   19   55 1   
    43   21   22 1   
    44   21   57 1   
    45   21   58 1   
    46   21   60 1   
    47   22   61 1   
    48   22   62 1   
    49   22   84 1   
    50   23   24 1   
    51   23   63 1   
    52   23   83 1   
    53   24   64 1   
    54   24   65 1   
    55   24   67 1   
    56   25   26 1   
    57   25   66 1   
    58   25   69 1   
    59   25   70 1   
    60   26   27 1   
    61   26   68 1   
    62   26   71 1   
    63   27   28 1   
    64   27   73 1   
    65   27   74 1   
    66   28   29 1   
    67   28   72 1   
    68   28   75 1   
    69   29   30 1   
    70   29   77 1   
    71   30   31 1   
    72   30   76 1   
    73   31   32 1   
    74   31   78 1   
    75   31   79 1   
    76   32   33 1   
    77   32   80 1   
    78   32   87 1   
    79   33   34 1   
    80   33   85 1   
    81   35   83 1   
    82   36   81 1   
    83   36   82 1   
    84   36   83 1   
    85   59   84 1   
@<TRIPOS>SUBSTRUCTURE
     1 SBF         1 TEMP              0 ****  ****    0 ROOT
