@<TRIPOS>MOLECULE
SBF
   86    79     1     0     0
SMALL
bcc


@<TRIPOS>ATOM
      1 C1          0.0830    1.1510   -0.0250 c1        1 SBF      0.157000
      2 C2          0.5180    1.9150    0.9370 c2        1 SBF     -0.547000
      3 C3          3.7390    0.2390    1.5800 c3        1 SBF     -0.113000
      4 C4          0.7890   -1.2100   -2.4440 c1        1 SBF     -0.061000
      5 C5         -1.6300   -0.6900    4.5020 c1        1 SBF     -0.222500
      6 C6         -1.0620   -1.5610    3.9110 c1        1 SBF     -0.222500
      7 C7         -0.8150   -2.1170   -0.7330 c3        1 SBF     -0.229000
      8 C8          3.2540   -1.0910    1.3960 c1        1 SBF     -0.189000
      9 C9          0.4580   -2.2970   -1.5350 c3        1 SBF     -0.189000
     10 C10         2.8420   -2.2040    1.2380 c1        1 SBF     -0.219000
     11 C11         4.7620  -21.0390    2.4120 c2        1 SBF     -0.191000
     12 C12         3.3830  -20.6320    2.3900 c2        1 SBF     -0.056000
     13 C13         2.9280  -19.7070    1.5180 c2        1 SBF     -0.196000
     14 C14         5.6530  -20.5400    1.5100 c2        1 SBF     -0.011000
     15 C15         5.2230  -19.5450    0.4700 c3        1 SBF     -0.125000
     16 C16         3.8090  -19.0720    0.5580 c2        1 SBF      0.163000
     17 C17         3.4090  -18.0810   -0.2700 c2        1 SBF     -0.996000
     18 C18         3.0900  -16.0700   -5.4600 c1        1 SBF      0.370500
     19 C19         3.4940  -16.0810   -4.2400 c1        1 SBF     -0.753000
     20 C20         3.8420  -16.1130   -2.9990 c1        1 SBF      0.370500
     21 C22        10.0920  -22.3180    5.2850 c3        1 SBF     -0.266000
     22 C23         7.7100  -21.2580    2.4170 c2        1 SBF     -0.089000
     23 N25         0.6220   -6.0920   -1.8890 n         1 SBF     -0.254000
     24 C26         0.7400   -7.1970   -1.1820 c1        1 SBF     -0.086000
     25 C27         0.3990  -10.5780   -2.9500 c3        1 SBF     -0.211000
     26 C28         1.6550  -10.8930   -2.1810 c3        1 SBF     -0.164000
     27 C29         1.4350  -12.0330   -1.2080 c3        1 SBF     -0.156000
     28 C30         2.6990  -12.3380   -0.4300 c3        1 SBF     -0.131000
     29 C31         2.4950  -13.4640    0.5310 cx        1 SBF     -0.165000
     30 C32         3.6900  -14.1400    1.1480 cx        1 SBF     -0.231000
     31 C33         2.8680  -14.8790    0.1120 cx        1 SBF     -0.017000
     32 N34         2.0660  -15.9970    0.4370 n3        1 SBF     -0.854000
     33 S36         1.9500  -17.3260   -0.4840 s6        1 SBF      2.879000
     34 O37         0.8840  -18.1050    0.0240 o         1 SBF     -0.947000
     35 O38         1.1690   -4.6250   -0.1640 o         1 SBF     -0.278000
     36 C39         0.4720   -3.6350   -2.2630 c3        1 SBF     -0.172000
     37 H1         -1.7130   -2.2110   -1.3890 hc        1 SBF      0.087000
     38 H1A        -0.8260   -1.1030   -0.2590 hc        1 SBF      0.087000
     39 H2          0.4690   -0.2070   -2.1160 ha        1 SBF      0.067000
     40 H3          0.5580    1.5960    1.9920 ha        1 SBF      0.196500
     41 H3A         4.1580    0.3660    2.6110 hc        1 SBF      0.091667
     42 H4          0.8770    2.9460    0.7880 ha        1 SBF      0.196500
     43 H4A         4.5470    0.4700    0.8390 hc        1 SBF      0.091667
     44 H5          2.9070    0.9810    1.4400 hc        1 SBF      0.091667
     45 H6          0.0300   -4.1930    1.9770 ha        1 SBF      0.003250
     46 H6A         0.4590   -3.6690    1.9450 ha        1 SBF      0.003250
     47 H7         -2.1360    0.0780    5.0290 ha        1 SBF      0.221500
     48 H7A        -0.8740   -2.8920    0.0700 hc        1 SBF      0.087000
     49 H8         -0.5580   -2.3370    3.3880 ha        1 SBF      0.221500
     50 H10         2.4760   -3.1950    1.1040 ha        1 SBF      0.245000
     51 H10A        1.3420   -2.2830   -0.8030 hc        1 SBF      0.172000
     52 H11         5.0580  -21.7830    3.1680 ha        1 SBF      0.138000
     53 H12         2.7030  -21.1070    3.1170 ha        1 SBF      0.142000
     54 H13         1.8600  -19.4210    1.5010 ha        1 SBF      0.179000
     55 H18         4.1850  -17.6890   -0.9660 h4        1 SBF      0.184000
     56 H19         5.3720  -20.0090   -0.5490 hc        1 SBF      0.138000
     57 H20         5.9050  -18.6480    0.5150 hc        1 SBF      0.138000
     58 H22         9.7460  -21.8710    6.2420 hc        1 SBF      0.066250
     59 H22A       11.1230  -21.9660    5.0630 hc        1 SBF      0.066250
     60 H22B       10.0890  -23.4260    5.3700 hc        1 SBF      0.066250
     61 H23         7.4050  -21.2090    3.4810 h4        1 SBF      0.122500
     62 H23A        9.4100  -22.0070    4.4630 hc        1 SBF      0.066250
     63 H23B        8.7470  -21.5940    2.2270 h4        1 SBF      0.122500
     64 HN25        0.4040   -6.0710   -2.8700 hn        1 SBF      0.166000
     65 H26         3.0090   -7.8480   -0.7580 ha        1 SBF      0.003250
     66 H26A        3.1020   -7.9820   -1.4160 ha        1 SBF      0.003250
     67 H27         0.5820   -9.7400   -3.6660 hc        1 SBF      0.070667
     68 H27A        0.5820   -8.1340   -1.7680 ha        1 SBF      0.039000
     69 H28         1.9930   -9.9800   -1.6190 hc        1 SBF      0.081000
     70 H28A        0.0560  -11.4690   -3.5300 hc        1 SBF      0.070667
     71 H29        -0.4230  -10.2760   -2.2560 hc        1 SBF      0.070667
     72 H29A        2.4760  -11.1650   -2.8950 hc        1 SBF      0.081000
     73 H30         3.0150  -11.4260    0.1440 hc        1 SBF      0.084000
     74 H30A        1.1070  -12.9480   -1.7670 hc        1 SBF      0.085000
     75 H31         0.6110  -11.7640   -0.4960 hc        1 SBF      0.085000
     76 H31A        3.5300  -12.5840   -1.1450 hc        1 SBF      0.084000
     77 H32         3.6370  -14.4400    2.2090 hc        1 SBF      0.113000
     78 H32A        1.5980  -13.3250    1.1690 hc        1 SBF      0.122000
     79 H33         3.3220  -15.0020   -0.9050 h1        1 SBF      0.149000
     80 H33A        4.7030  -13.8060    0.8630 hc        1 SBF      0.113000
     81 HN34        1.5690  -15.9140    1.2930 hn        1 SBF      0.243000
     82 H39         1.2560   -3.6070   -3.0680 hc        1 SBF      0.123500
     83 H39A       -0.5230   -3.8020   -2.7530 hc        1 SBF      0.123500
     84 C24         0.7840   -4.7850   -1.3260 c2        1 SBF      0.303000
     85 N21         6.9970  -20.9580    1.3990 n2        1 SBF     -0.155000
     86 O35         1.8590  -16.9730   -1.8560 o         1 SBF     -0.947000
@<TRIPOS>BOND
     1    1    2 1   
     2    2   40 1   
     3    2   42 1   
     4    3    8 1   
     5    3   41 1   
     6    3   43 1   
     7    3   44 1   
     8    4    9 1   
     9    4   39 1   
    10    5    6 1   
    11    5   47 1   
    12    6   49 1   
    13    7    9 1   
    14    7   37 1   
    15    7   38 1   
    16    7   48 1   
    17    8   10 1   
    18    9   36 1   
    19    9   51 1   
    20   10   50 1   
    21   11   12 1   
    22   11   14 1   
    23   11   52 1   
    24   12   13 1   
    25   12   53 1   
    26   13   16 1   
    27   13   54 1   
    28   14   15 1   
    29   14   85 1   
    30   15   16 1   
    31   15   56 1   
    32   15   57 1   
    33   16   17 1   
    34   17   33 1   
    35   17   55 1   
    36   18   19 1   
    37   19   20 1   
    38   21   58 1   
    39   21   59 1   
    40   21   60 1   
    41   21   62 1   
    42   22   61 1   
    43   22   63 1   
    44   22   85 1   
    45   23   24 1   
    46   23   64 1   
    47   23   84 1   
    48   24   68 1   
    49   25   26 1   
    50   25   67 1   
    51   25   70 1   
    52   25   71 1   
    53   26   27 1   
    54   26   69 1   
    55   26   72 1   
    56   27   28 1   
    57   27   74 1   
    58   27   75 1   
    59   28   29 1   
    60   28   73 1   
    61   28   76 1   
    62   29   30 1   
    63   29   31 1   
    64   29   78 1   
    65   30   31 1   
    66   30   77 1   
    67   30   80 1   
    68   31   32 1   
    69   31   79 1   
    70   32   33 1   
    71   32   81 1   
    72   33   34 1   
    73   33   86 1   
    74   35   84 1   
    75   36   82 1   
    76   36   83 1   
    77   36   84 1   
    78   45   46 1   
    79   65   66 1   
@<TRIPOS>SUBSTRUCTURE
     1 SBF         1 TEMP              0 ****  ****    0 ROOT
