@<TRIPOS>MOLECULE
SBG
   19    18     1     0     0
SMALL
bcc


@<TRIPOS>ATOM
      1 N           0.7500    1.5190   -2.5340 n3        1 SBG     -0.900800
      2 CA          0.0870    0.5500   -1.7310 c3        1 SBG      0.020500
      3 CB          0.6610    0.5770   -0.3330 c3        1 SBG      0.163400
      4 OG         -0.1780   -0.1520    0.5330 os        1 SBG     -0.603200
      5 C          -1.3900    0.8670   -1.6750 c         1 SBG      0.913600
      6 O          -1.7730    2.0480   -1.4690 o         1 SBG     -0.864800
      7 O2          0.3750    0.5850    2.8830 o         1 SBG     -0.878500
      8 P1          0.3930   -0.5940    1.9390 p5        1 SBG      1.352600
      9 O1          1.8110   -1.0860    1.7750 o         1 SBG     -0.878500
     10 C1         -0.6360   -1.9270    2.6180 c3        1 SBG     -0.375300
     11 OXT        -2.2370   -0.0510   -1.8350 o         1 SBG     -0.864800
     12 HN1         0.4540    1.4530   -3.3990 hn        1 SBG      0.332800
     13 HN2         1.6530    1.3710   -2.5080 hn        1 SBG      0.332800
     14 HA          0.2150   -0.3380   -2.1190 h1        1 SBG      0.034700
     15 HBC1        1.5540    0.1740   -0.3390 h1        1 SBG      0.027200
     16 HBC2        0.7230    1.5040   -0.0230 h1        1 SBG      0.027200
     17 H1C1       -0.3060   -2.1740    3.5070 hc        1 SBG      0.054033
     18 H1C2       -0.5930   -2.7070    2.0250 hc        1 SBG      0.054033
     19 H1C3       -1.5640   -1.6200    2.6870 hc        1 SBG      0.054033
@<TRIPOS>BOND
     1    1    2 1   
     2    1   12 1   
     3    1   13 1   
     4    2    3 1   
     5    2    5 1   
     6    2   14 1   
     7    3    4 1   
     8    3   15 1   
     9    3   16 1   
    10    4    8 1   
    11    5    6 1   
    12    5   11 1   
    13    7    8 1   
    14    8    9 1   
    15    8   10 1   
    16   10   17 1   
    17   10   18 1   
    18   10   19 1   
@<TRIPOS>SUBSTRUCTURE
     1 SBG         1 TEMP              0 ****  ****    0 ROOT
