@<TRIPOS>MOLECULE
SBG
   19    18     1     0     0
SMALL
bcc


@<TRIPOS>ATOM
      1 N           1.5210    2.0060   -0.1560 n3        1 SBG     -0.900800
      2 CA          1.2220    0.7130    0.4370 c3        1 SBG      0.020500
      3 CB          0.2780   -0.1790   -0.4070 c3        1 SBG      0.163400
      4 OG         -0.8080    0.5510   -0.9010 os        1 SBG     -0.603200
      5 C           2.5140   -0.1090    0.7320 c         1 SBG      0.913600
      6 O           3.4220   -0.1550   -0.1510 o         1 SBG     -0.864800
      7 O2         -3.2560    0.9130   -1.2780 o         1 SBG     -0.878500
      8 P1         -2.3320    0.0340   -0.5150 p5        1 SBG      1.352600
      9 O1         -2.3720   -1.4420   -0.6840 o         1 SBG     -0.878500
     10 C1         -2.4390    0.4090    1.1370 c3        1 SBG     -0.375300
     11 OXT         2.6050   -0.6900    1.8510 o         1 SBG     -0.864800
     12 HN1         2.3230    1.9030   -0.7550 hn        1 SBG      0.332800
     13 HN2         0.7450    2.2820   -0.7320 hn        1 SBG      0.332800
     14 HA          0.7150    0.9250    1.4210 h1        1 SBG      0.034700
     15 HBC1        0.8600   -0.5810   -1.2850 h1        1 SBG      0.027200
     16 HBC2       -0.0840   -1.0410    0.2160 h1        1 SBG      0.027200
     17 H1C1       -1.4360    0.6090    1.5760 hc        1 SBG      0.054033
     18 H1C2       -3.0670    1.3120    1.2970 hc        1 SBG      0.054033
     19 H1C3       -2.8910   -0.4340    1.7020 hc        1 SBG      0.054033
@<TRIPOS>BOND
     1    1    2 1   
     2    1   12 1   
     3    1   13 1   
     4    2    3 1   
     5    2    5 1   
     6    2   14 1   
     7    3    4 1   
     8    3   15 1   
     9    3   16 1   
    10    4    8 1   
    11    5    6 1   
    12    5   11 1   
    13    7    8 1   
    14    8    9 1   
    15    8   10 1   
    16   10   17 1   
    17   10   18 1   
    18   10   19 1   
@<TRIPOS>SUBSTRUCTURE
     1 SBG         1 TEMP              0 ****  ****    0 ROOT
