@<TRIPOS>MOLECULE
SBH
   26    25     1     0     0
SMALL
bcc


@<TRIPOS>ATOM
      1 O1          0.6570   -3.6320   -3.1530 o         1 SBH     -0.958500
      2 O2          1.0570   -5.4750   -4.8810 o         1 SBH     -0.958500
      3 O3          0.6610   -3.0560   -5.5740 o         1 SBH     -0.958500
      4 P1          1.1590   -4.0210   -4.5310 p5        1 SBH      1.473900
      5 O4          2.8550   -3.6590   -4.3780 os        1 SBH     -0.826800
      6 O5          5.1040   -2.7980   -5.2950 o         1 SBH     -0.919500
      7 O6          5.0570   -4.2470   -3.2020 o         1 SBH     -0.919500
      8 P2          4.3610   -3.2820   -4.0990 p5        1 SBH      1.579800
      9 O7          4.2180   -1.8910   -3.1490 os        1 SBH     -0.601200
     10 C1          3.1180   -1.8050   -2.3110 c3        1 SBH      0.167400
     11 C2          2.6380   -0.3490   -2.2420 c3        1 SBH     -0.101400
     12 C3          1.1410   -0.1470   -2.4850 c3        1 SBH      0.155800
     13 C4          0.7760   -0.3870   -3.9480 c3        1 SBH     -0.105100
     14 C5          0.2520   -1.0500   -1.6410 c3        1 SBH      0.014000
     15 O8          0.8160    1.2400   -2.2380 oh        1 SBH     -0.652800
     16 BR1         0.3250   -0.7390    0.3060 br        1 SBH     -0.365400
     17 H11         2.2920   -2.4980   -2.6690 h1        1 SBH      0.047200
     18 H12         3.4180   -2.1000   -1.2600 h1        1 SBH      0.047200
     19 H21         3.1950    0.2480   -3.0100 hc        1 SBH      0.014700
     20 H22         2.8930    0.0820   -1.2370 hc        1 SBH      0.014700
     21 H41         0.8160   -1.4990   -4.1970 hc        1 SBH      0.069700
     22 H42        -0.2530   -0.0070   -4.1470 hc        1 SBH      0.069700
     23 H43         1.4950    0.1500   -4.6090 hc        1 SBH      0.069700
     24 H51         0.5110   -2.1410   -1.8380 h1        1 SBH      0.137200
     25 H52        -0.8180   -0.8680   -1.8800 h1        1 SBH      0.137200
     26 HO8         1.1290    1.4400   -1.3510 ho        1 SBH      0.368000
@<TRIPOS>BOND
     1    1    4 1   
     2    2    4 1   
     3    3    4 1   
     4    4    5 1   
     5    5    8 1   
     6    6    8 1   
     7    7    8 1   
     8    8    9 1   
     9    9   10 1   
    10   10   11 1   
    11   10   17 1   
    12   10   18 1   
    13   11   12 1   
    14   11   19 1   
    15   11   20 1   
    16   12   13 1   
    17   12   14 1   
    18   12   15 1   
    19   13   21 1   
    20   13   22 1   
    21   13   23 1   
    22   14   16 1   
    23   14   24 1   
    24   14   25 1   
    25   15   26 1   
@<TRIPOS>SUBSTRUCTURE
     1 SBH         1 TEMP              0 ****  ****    0 ROOT
