@<TRIPOS>MOLECULE
SBH
   26    25     1     0     0
SMALL
bcc


@<TRIPOS>ATOM
      1 O1         -0.9760   -0.5040   -5.7500 o         1 SBH     -0.958167
      2 O2          0.9100    0.9590   -6.3840 o         1 SBH     -0.958167
      3 O3         -1.1780    1.9510   -5.5180 o         1 SBH     -0.958167
      4 P1         -0.2310    0.7730   -5.4150 p5        1 SBH      1.458900
      5 O4          0.3450    0.6800   -3.9290 os        1 SBH     -0.804800
      6 O5         -0.9370   -1.2120   -2.8510 o         1 SBH     -0.932000
      7 O6         -1.7430    1.0850   -2.5600 o         1 SBH     -0.932000
      8 P2         -0.5200    0.2180   -2.6730 p5        1 SBH      1.582800
      9 O7          0.3560    0.3550   -1.3430 os        1 SBH     -0.575200
     10 C1         -0.2140   -0.0970   -0.0940 c3        1 SBH      0.236400
     11 C2          0.7910    0.1550    1.0530 c3        1 SBH     -0.127400
     12 C3          0.1940   -0.3520    2.3800 c3        1 SBH      0.181800
     13 C4          1.0270   -1.5070    2.9030 c3        1 SBH     -0.152100
     14 C5          0.1960    0.7730    3.3980 c3        1 SBH      0.060000
     15 O8         -1.1230   -0.7840    2.1640 oh        1 SBH     -0.676800
     16 BR1        -1.3050    1.9180    3.0860 br        1 SBH     -0.320400
     17 H11        -1.0440    0.3970    0.0850 h1        1 SBH     -0.013300
     18 H12        -0.4110   -1.0590   -0.1520 h1        1 SBH     -0.013300
     19 H21         1.6240   -0.3230    0.8660 hc        1 SBH      0.025200
     20 H22         0.9730    1.1150    1.1230 hc        1 SBH      0.025200
     21 H41         0.6440   -1.8300    3.7470 hc        1 SBH      0.083700
     22 H42         1.9460   -1.2040    3.0570 hc        1 SBH      0.083700
     23 H43         1.0280   -2.2360    2.2440 hc        1 SBH      0.083700
     24 H51         0.1370    0.3960    4.3010 h1        1 SBH      0.056200
     25 H52         1.0240    1.2890    3.3140 h1        1 SBH      0.056200
     26 HO8        -1.5110   -0.9550    2.9460 ho        1 SBH      0.488000
@<TRIPOS>BOND
     1    1    4 1   
     2    2    4 1   
     3    3    4 1   
     4    4    5 1   
     5    5    8 1   
     6    6    8 1   
     7    7    8 1   
     8    8    9 1   
     9    9   10 1   
    10   10   11 1   
    11   10   17 1   
    12   10   18 1   
    13   11   12 1   
    14   11   19 1   
    15   11   20 1   
    16   12   13 1   
    17   12   14 1   
    18   12   15 1   
    19   13   21 1   
    20   13   22 1   
    21   13   23 1   
    22   14   16 1   
    23   14   24 1   
    24   14   25 1   
    25   15   26 1   
@<TRIPOS>SUBSTRUCTURE
     1 SBH         1 TEMP              0 ****  ****    0 ROOT
