@<TRIPOS>MOLECULE
SBH
   26    25     1     0     0
SMALL
bcc


@<TRIPOS>ATOM
      1 O1          0.9120   -2.5300    2.5530 o         1 SBH     -0.958500
      2 O2          2.5020   -2.3260    0.5590 o         1 SBH     -0.958500
      3 O3          0.0150   -1.8160    0.3420 o         1 SBH     -0.958500
      4 P1          1.2340   -1.8760    1.2230 p5        1 SBH      1.473900
      5 O4          1.4880   -0.2280    1.7160 os        1 SBH     -0.825800
      6 O5          1.3470    2.3270    1.3770 o         1 SBH     -0.921500
      7 O6          2.8190    1.3710    3.2210 o         1 SBH     -0.921500
      8 P2          1.6350    1.2180    2.3290 p5        1 SBH      1.576800
      9 O7          0.3210    1.2470    3.3870 os        1 SBH     -0.598200
     10 C1          0.2260    0.1300    4.2070 c3        1 SBH      0.155400
     11 C2         -1.2010   -0.0100    4.7460 c3        1 SBH     -0.064400
     12 C3         -2.0680   -0.9890    3.9530 c3        1 SBH      0.159800
     13 C4         -2.0230   -0.6840    2.4570 c3        1 SBH     -0.145100
     14 C5         -1.6480   -2.4420    4.1310 c3        1 SBH      0.003000
     15 O8         -3.4130   -0.7840    4.4410 oh        1 SBH     -0.647800
     16 Br1        -1.9400   -3.2310    5.9120 br        1 SBH     -0.356400
     17 H11         0.9040    0.2700    5.1010 h1        1 SBH      0.049200
     18 H12         0.5500   -0.8000    3.6360 h1        1 SBH      0.049200
     19 H21        -1.1670   -0.3510    5.8130 hc        1 SBH      0.017200
     20 H22        -1.7010    0.9930    4.7210 hc        1 SBH      0.017200
     21 H41        -1.1100   -1.1550    1.9640 hc        1 SBH      0.072700
     22 H42        -2.9400   -1.0790    1.9580 hc        1 SBH      0.072700
     23 H43        -1.9550    0.4180    2.3000 hc        1 SBH      0.072700
     24 H51        -2.2440   -3.1030    3.4640 h1        1 SBH      0.135700
     25 H52        -0.5400   -2.5530    3.8800 h1        1 SBH      0.135700
     26 HO8        -3.9820   -1.3210    3.8800 ho        1 SBH      0.365000
@<TRIPOS>BOND
     1    1    4 1   
     2    2    4 1   
     3    3    4 1   
     4    4    5 1   
     5    5    8 1   
     6    6    8 1   
     7    7    8 1   
     8    8    9 1   
     9    9   10 1   
    10   10   11 1   
    11   10   17 1   
    12   10   18 1   
    13   11   12 1   
    14   11   19 1   
    15   11   20 1   
    16   12   13 1   
    17   12   14 1   
    18   12   15 1   
    19   13   21 1   
    20   13   22 1   
    21   13   23 1   
    22   14   16 1   
    23   14   24 1   
    24   14   25 1   
    25   15   26 1   
@<TRIPOS>SUBSTRUCTURE
     1 SBH         1 TEMP              0 ****  ****    0 ROOT
