@<TRIPOS>MOLECULE
SBH
   26    25     1     0     0
SMALL
bcc


@<TRIPOS>ATOM
      1 O1          1.0050   -2.4570    2.5680 o         1 SBH     -0.958500
      2 O2          2.5730   -2.1910    0.5640 o         1 SBH     -0.958500
      3 O3          0.0610   -1.8200    0.3530 o         1 SBH     -0.958500
      4 P1          1.2860   -1.8020    1.2290 p5        1 SBH      1.473900
      5 O4          1.4510   -0.1370    1.7000 os        1 SBH     -0.825800
      6 O5          1.1690    2.4020    1.3300 o         1 SBH     -0.921500
      7 O6          2.6990    1.5520    3.1790 o         1 SBH     -0.921500
      8 P2          1.5210    1.3230    2.2940 p5        1 SBH      1.576800
      9 O7          0.2120    1.2930    3.3590 os        1 SBH     -0.598200
     10 C1          0.1810    0.1830    4.1930 c3        1 SBH      0.155400
     11 C2         -1.2340   -0.0280    4.7400 c3        1 SBH     -0.064400
     12 C3         -2.0490   -1.0620    3.9630 c3        1 SBH      0.159800
     13 C4         -2.0270   -0.7740    2.4640 c3        1 SBH     -0.145100
     14 C5         -1.5500   -2.4880    4.1570 c3        1 SBH      0.003000
     15 O8         -3.4020   -0.9260    4.4540 oh        1 SBH     -0.647800
     16 BR1        -1.7910   -3.2690    5.9490 br        1 SBH     -0.356400
     17 H11         0.8540    0.3710    5.0820 h1        1 SBH      0.049200
     18 H12         0.5530   -0.7350    3.6320 h1        1 SBH      0.049200
     19 H21        -1.1770   -0.3530    5.8110 hc        1 SBH      0.017200
     20 H22        -1.7880    0.9450    4.7040 hc        1 SBH      0.017200
     21 H41        -1.0920   -1.2010    1.9720 hc        1 SBH      0.072700
     22 H42        -2.9230   -1.2250    1.9740 hc        1 SBH      0.072700
     23 H43        -2.0200    0.3270    2.2930 hc        1 SBH      0.072700
     24 H51        -2.1110   -3.1890    3.5010 h1        1 SBH      0.135700
     25 H52        -0.4390   -2.5420    3.9020 h1        1 SBH      0.135700
     26 HO8        -3.9420   -1.5000    3.9040 ho        1 SBH      0.365000
@<TRIPOS>BOND
     1    1    4 1   
     2    2    4 1   
     3    3    4 1   
     4    4    5 1   
     5    5    8 1   
     6    6    8 1   
     7    7    8 1   
     8    8    9 1   
     9    9   10 1   
    10   10   11 1   
    11   10   17 1   
    12   10   18 1   
    13   11   12 1   
    14   11   19 1   
    15   11   20 1   
    16   12   13 1   
    17   12   14 1   
    18   12   15 1   
    19   13   21 1   
    20   13   22 1   
    21   13   23 1   
    22   14   16 1   
    23   14   24 1   
    24   14   25 1   
    25   15   26 1   
@<TRIPOS>SUBSTRUCTURE
     1 SBH         1 TEMP              0 ****  ****    0 ROOT
