@<TRIPOS>MOLECULE
SBI
   26    28     1     0     0
SMALL
bcc


@<TRIPOS>ATOM
      1 C1         -0.0080   -0.1410   -0.0230 ca        1 SBI      0.096900
      2 F1         -0.6840   -0.2520   -1.1930 f         1 SBI     -0.135900
      3 C2          1.3990   -0.0450   -0.0350 ca        1 SBI     -0.119000
      4 C3          2.0860    0.0800    1.1610 ca        1 SBI     -0.130000
      5 C4          1.3760    0.1000    2.3780 ca        1 SBI      0.147100
      6 O1          2.1580    0.2020    3.5090 os        1 SBI     -0.316900
      7 C5          1.4480    0.5830    4.6930 c3        1 SBI      0.116400
      8 C6          0.1960   -0.2470    4.8830 c3        1 SBI     -0.098400
      9 C7         -0.7720   -0.0180    3.7100 c3        1 SBI      0.072700
     10 C9         -1.4960    1.3670    3.9020 c         1 SBI      0.698500
     11 O3         -0.9730    2.4700    4.0630 o         1 SBI     -0.569500
     12 N2         -2.8730    1.1140    3.8800 n         1 SBI     -0.610500
     13 C8         -3.1240   -0.2790    3.7420 c         1 SBI      0.778500
     14 O2         -4.2540   -0.7850    3.6670 o         1 SBI     -0.596500
     15 N1         -1.8880   -0.9910    3.7600 n         1 SBI     -0.509900
     16 C10        -0.0240   -0.0140    2.4020 ca        1 SBI     -0.163300
     17 C11        -0.7130   -0.1230    1.1890 ca        1 SBI     -0.131000
     18 H2          1.9370   -0.0630   -0.9940 ha        1 SBI      0.157000
     19 H3          3.1830    0.1650    1.1800 ha        1 SBI      0.162000
     20 H51         2.1910    0.3940    5.5120 h1        1 SBI      0.080700
     21 H52         1.2010    1.6780    4.6300 h1        1 SBI      0.080700
     22 H61         0.4680   -1.3340    4.9350 hc        1 SBI      0.078700
     23 H62        -0.2980    0.0350    5.8480 hc        1 SBI      0.078700
     24 HN2        -3.5880    1.7820    4.0170 hn        1 SBI      0.361500
     25 HN1        -1.8210   -1.7870    3.1680 hn        1 SBI      0.324500
     26 H11        -1.8120   -0.1850    1.1650 ha        1 SBI      0.150000
@<TRIPOS>BOND
     1    1    2 1   
     2    1    3 ar  
     3    1   17 ar  
     4    3    4 ar  
     5    3   18 1   
     6    4    5 ar  
     7    4   19 1   
     8    5    6 1   
     9    5   16 ar  
    10    6    7 1   
    11    7    8 1   
    12    7   20 1   
    13    7   21 1   
    14    8    9 1   
    15    8   22 1   
    16    8   23 1   
    17    9   10 1   
    18    9   15 1   
    19    9   16 1   
    20   10   11 2   
    21   10   12 1   
    22   12   13 1   
    23   12   24 1   
    24   13   14 2   
    25   13   15 1   
    26   15   25 1   
    27   16   17 ar  
    28   17   26 1   
@<TRIPOS>SUBSTRUCTURE
     1 SBI         1 TEMP              0 ****  ****    0 ROOT
