@<TRIPOS>MOLECULE
SBI
   26    28     1     0     0
SMALL
bcc


@<TRIPOS>ATOM
      1 C1         -0.0090   -0.1420   -0.0230 ca        1 SBI      0.096900
      2 F1         -0.6860   -0.2510   -1.1930 f         1 SBI     -0.135900
      3 C2          1.3980   -0.0480   -0.0350 ca        1 SBI     -0.119000
      4 C3          2.0860    0.0760    1.1600 ca        1 SBI     -0.130000
      5 C4          1.3760    0.0970    2.3770 ca        1 SBI      0.147100
      6 O1          2.1590    0.1980    3.5070 os        1 SBI     -0.316900
      7 C5          1.4490    0.5800    4.6920 c3        1 SBI      0.116400
      8 C6          0.1960   -0.2480    4.8830 c3        1 SBI     -0.098400
      9 C7         -0.7720   -0.0180    3.7100 c3        1 SBI      0.072700
     10 C9         -1.4940    1.3690    3.9020 c         1 SBI      0.698500
     11 O3         -0.9690    2.4710    4.0630 o         1 SBI     -0.569500
     12 N2         -2.8720    1.1180    3.8800 ns        1 SBI     -0.610500
     13 C8         -3.1250   -0.2750    3.7430 c         1 SBI      0.778500
     14 O2         -4.2550   -0.7790    3.6680 o         1 SBI     -0.596500
     15 N1         -1.8900   -0.9880    3.7610 ns        1 SBI     -0.509900
     16 C10        -0.0240   -0.0140    2.4020 ca        1 SBI     -0.163300
     17 C11        -0.7140   -0.1220    1.1890 ca        1 SBI     -0.131000
     18 H2          1.9350   -0.0670   -0.9950 ha        1 SBI      0.157000
     19 H3          3.1830    0.1590    1.1790 ha        1 SBI      0.162000
     20 H51         2.1920    0.3900    5.5110 h1        1 SBI      0.080700
     21 H52         1.2040    1.6750    4.6300 h1        1 SBI      0.080700
     22 H61        -0.2980    0.0350    5.8470 hc        1 SBI      0.078700
     23 H62         0.4660   -1.3350    4.9350 hc        1 SBI      0.078700
     24 HN2        -3.5850    1.7880    4.0180 hn        1 SBI      0.361500
     25 HN1        -1.8240   -1.7850    3.1680 hn        1 SBI      0.324500
     26 H11        -1.8130   -0.1820    1.1650 ha        1 SBI      0.150000
@<TRIPOS>BOND
     1    1    2 1   
     2    1    3 ar  
     3    1   17 ar  
     4    3    4 ar  
     5    3   18 1   
     6    4    5 ar  
     7    4   19 1   
     8    5    6 1   
     9    5   16 ar  
    10    6    7 1   
    11    7    8 1   
    12    7   20 1   
    13    7   21 1   
    14    8    9 1   
    15    8   22 1   
    16    8   23 1   
    17    9   10 1   
    18    9   15 1   
    19    9   16 1   
    20   10   11 2   
    21   10   12 1   
    22   12   13 1   
    23   12   24 1   
    24   13   14 2   
    25   13   15 1   
    26   15   25 1   
    27   16   17 ar  
    28   17   26 1   
@<TRIPOS>SUBSTRUCTURE
     1 SBI         1 TEMP              0 ****  ****    0 ROOT
