@<TRIPOS>MOLECULE
SBI
   26    28     1     0     0
SMALL
bcc


@<TRIPOS>ATOM
      1 C1         -0.0110   -0.1440   -0.0230 ca        1 SBI      0.096900
      2 F1         -0.6870   -0.2540   -1.1920 f         1 SBI     -0.135900
      3 C2          1.3970   -0.0510   -0.0360 ca        1 SBI     -0.119000
      4 C3          2.0850    0.0740    1.1590 ca        1 SBI     -0.130000
      5 C4          1.3760    0.0960    2.3770 ca        1 SBI      0.147100
      6 O1          2.1590    0.1980    3.5070 os        1 SBI     -0.316900
      7 C5          1.4500    0.5810    4.6910 c3        1 SBI      0.116400
      8 C6          0.1970   -0.2460    4.8830 c3        1 SBI     -0.098400
      9 C7         -0.7720   -0.0170    3.7100 c3        1 SBI      0.072700
     10 C9         -1.4930    1.3700    3.9020 c         1 SBI      0.698500
     11 O3         -0.9670    2.4720    4.0610 o         1 SBI     -0.569500
     12 N2         -2.8710    1.1200    3.8810 n         1 SBI     -0.610500
     13 C8         -3.1250   -0.2730    3.7440 c         1 SBI      0.778500
     14 O2         -4.2550   -0.7770    3.6710 o         1 SBI     -0.596500
     15 N1         -1.8900   -0.9870    3.7620 n         1 SBI     -0.509900
     16 C10        -0.0240   -0.0150    2.4020 ca        1 SBI     -0.163300
     17 C11        -0.7140   -0.1230    1.1890 ca        1 SBI     -0.131000
     18 H2          1.9340   -0.0710   -0.9960 ha        1 SBI      0.157000
     19 H3          3.1820    0.1560    1.1780 ha        1 SBI      0.162000
     20 H51         1.2060    1.6760    4.6280 h1        1 SBI      0.080700
     21 H52         2.1940    0.3900    5.5100 h1        1 SBI      0.080700
     22 H61         0.4660   -1.3340    4.9360 hc        1 SBI      0.078700
     23 H62        -0.2960    0.0370    5.8470 hc        1 SBI      0.078700
     24 HN2        -3.5840    1.7900    4.0180 hn        1 SBI      0.361500
     25 HN1        -1.8240   -1.7840    3.1700 hn        1 SBI      0.324500
     26 H11        -1.8130   -0.1830    1.1660 ha        1 SBI      0.150000
@<TRIPOS>BOND
     1    1    2 1   
     2    1    3 ar  
     3    1   17 ar  
     4    3    4 ar  
     5    3   18 1   
     6    4    5 ar  
     7    4   19 1   
     8    5    6 1   
     9    5   16 ar  
    10    6    7 1   
    11    7    8 1   
    12    7   20 1   
    13    7   21 1   
    14    8    9 1   
    15    8   22 1   
    16    8   23 1   
    17    9   10 1   
    18    9   15 1   
    19    9   16 1   
    20   10   11 2   
    21   10   12 1   
    22   12   13 1   
    23   12   24 1   
    24   13   14 2   
    25   13   15 1   
    26   15   25 1   
    27   16   17 ar  
    28   17   26 1   
@<TRIPOS>SUBSTRUCTURE
     1 SBI         1 TEMP              0 ****  ****    0 ROOT
