@<TRIPOS>MOLECULE
SBI
   26    25     1     0     0
SMALL
bcc


@<TRIPOS>ATOM
      1 C1          0.2080    0.2800   -2.9920 cg        1 SBI      0.021700
      2 F1         -0.4610    0.2800   -4.1520 f         1 SBI     -0.103000
      3 C2          1.6430    0.2800   -2.9920 c1        1 SBI     -0.063500
      4 C3          2.3500    0.2800   -1.7710 c1        1 SBI     -0.075500
      5 C4          1.6620    0.2800   -0.5740 ch        1 SBI      0.055700
      6 O1          2.3690    0.2800    0.7740 o         1 SBI     -0.362500
      7 C5          1.5960    0.2800    1.8760 c3        1 SBI      0.211100
      8 C6          0.3680   -0.4870    1.8160 c3        1 SBI     -0.128400
      9 C7         -0.4730   -0.2300    0.7540 c3        1 SBI      0.079600
     10 C9         -1.3530    0.8910    1.1270 c         1 SBI      0.696500
     11 O3         -1.0140    2.0490    1.2670 o         1 SBI     -0.566500
     12 N2         -2.6600    0.4000    1.2230 n         1 SBI     -0.610500
     13 C8         -2.6290   -0.9960    0.9230 c         1 SBI      0.788500
     14 O2         -3.5660   -1.7640    1.0040 o         1 SBI     -0.600500
     15 N1         -1.2810   -1.3480    0.5610 n         1 SBI     -0.531900
     16 C10         0.1890    0.2800   -0.5740 cf        1 SBI     -0.096900
     17 C11        -0.5000    0.2800   -1.7710 ce        1 SBI     -0.069700
     18 H2          2.1300    0.2850   -3.8370 ha        1 SBI      0.097500
     19 H3          3.3260    0.2800   -1.7730 ha        1 SBI      0.101500
     20 H51         2.1300   -0.0660    2.6160 h1        1 SBI      0.079700
     21 H52         1.3620    1.2060    2.0790 h1        1 SBI      0.079700
     22 H61        -0.1300   -0.3230    2.6390 hc        1 SBI      0.072200
     23 H62         0.6050   -1.4330    1.7890 hc        1 SBI      0.072200
     24 HN2        -3.4010    0.8850    1.4390 hn        1 SBI      0.361500
     25 HN1        -0.9930   -2.1800    0.3240 hn        1 SBI      0.331500
     26 H11        -1.4750    0.3090   -1.7730 ha        1 SBI      0.162000
@<TRIPOS>BOND
     1    1    3 3   
     2    1   17 1   
     3    3   18 1   
     4    4    5 3   
     5    4   19 1   
     6    5   16 1   
     7    6    7 1   
     8    7    8 1   
     9    7   20 1   
    10    7   21 1   
    11    8    9 1   
    12    8   22 1   
    13    8   23 1   
    14    9   10 1   
    15    9   15 1   
    16    9   16 1   
    17   10   11 2   
    18   10   12 1   
    19   12   13 1   
    20   12   24 1   
    21   13   14 2   
    22   13   15 1   
    23   15   25 1   
    24   16   17 2   
    25   17   26 1   
@<TRIPOS>SUBSTRUCTURE
     1 SBI         1 TEMP              0 ****  ****    0 ROOT
