@<TRIPOS>MOLECULE
SBI
   26    28     1     0     0
SMALL
bcc


@<TRIPOS>ATOM
      1 C1         -1.5200    0.0290    2.2920 ca        1 SBI      0.096900
      2 F1         -2.8200   -0.0480    2.6690 f         1 SBI     -0.135900
      3 C2         -0.5060    0.0250    3.2720 ca        1 SBI     -0.119000
      4 C3          0.8210    0.0920    2.8840 ca        1 SBI     -0.130000
      5 C4          1.1470    0.1730    1.5150 ca        1 SBI      0.147100
      6 O1          2.4950    0.2600    1.2400 os        1 SBI     -0.316900
      7 C5          2.8460   -0.0200   -0.1200 c3        1 SBI      0.116400
      8 C6          1.9690    0.7420   -1.0900 c3        1 SBI     -0.098400
      9 C7          0.5020    0.3090   -0.9280 c3        1 SBI      0.072700
     10 C9          0.2970   -1.0870   -1.6260 c         1 SBI      0.698500
     11 O3          0.9270   -2.1250   -1.4250 o         1 SBI     -0.569500
     12 N2         -0.7400   -0.9300   -2.5550 n         1 SBI     -0.610500
     13 C8         -1.1980    0.4160   -2.5710 c         1 SBI      0.778500
     14 O2         -2.1260    0.8330   -3.2800 o         1 SBI     -0.596500
     15 N1         -0.3920    1.2050   -1.6980 n         1 SBI     -0.509900
     16 C10         0.1450    0.1960    0.5310 ca        1 SBI     -0.163300
     17 C11        -1.1940    0.1110    0.9310 ca        1 SBI     -0.131000
     18 H2         -0.7790   -0.0380    4.3360 ha        1 SBI      0.157000
     19 H3          1.6330    0.0830    3.6270 ha        1 SBI      0.162000
     20 H51         3.9150    0.3160   -0.1860 h1        1 SBI      0.080700
     21 H52         2.7710   -1.1280   -0.2920 h1        1 SBI      0.080700
     22 H61         2.0560    1.8430   -0.8940 hc        1 SBI      0.078700
     23 H62         2.3120    0.5470   -2.1390 hc        1 SBI      0.078700
     24 HN2        -1.0710   -1.6230   -3.1770 hn        1 SBI      0.361500
     25 HN1        -0.8540    1.9260   -1.1920 hn        1 SBI      0.324500
     26 H11        -2.0070    0.0970    0.1890 ha        1 SBI      0.150000
@<TRIPOS>BOND
     1    1    2 1   
     2    1    3 ar  
     3    1   17 ar  
     4    3    4 ar  
     5    3   18 1   
     6    4    5 ar  
     7    4   19 1   
     8    5    6 1   
     9    5   16 ar  
    10    6    7 1   
    11    7    8 1   
    12    7   20 1   
    13    7   21 1   
    14    8    9 1   
    15    8   22 1   
    16    8   23 1   
    17    9   10 1   
    18    9   15 1   
    19    9   16 1   
    20   10   11 2   
    21   10   12 1   
    22   12   13 1   
    23   12   24 1   
    24   13   14 2   
    25   13   15 1   
    26   15   25 1   
    27   16   17 ar  
    28   17   26 1   
@<TRIPOS>SUBSTRUCTURE
     1 SBI         1 TEMP              0 ****  ****    0 ROOT
