@<TRIPOS>MOLECULE
SBN
   34    35     1     0     0
SMALL
bcc


@<TRIPOS>ATOM
      1 C1         -0.0140   -0.4510    0.0860 ca        1 SBN     -0.152000
      2 C2          1.3410   -0.0690   -0.0970 ca        1 SBN      0.178600
      3 C3          2.1530    0.1040    1.0580 ca        1 SBN      0.017000
      4 C4          1.6350   -0.1100    2.3460 ca        1 SBN     -0.264500
      5 C5          0.2990   -0.4890    2.4790 ca        1 SBN     -0.089000
      6 C6         -0.5170   -0.6570    1.3590 ca        1 SBN     -0.092000
      7 S           2.5270    0.1030    3.7890 sy        1 SBN      1.426600
      8 O1          1.6110    0.2090    4.8490 o         1 SBN     -0.648300
      9 O2          3.4440    1.1510    3.6350 o         1 SBN     -0.648300
     10 C7          3.3270   -1.3640    3.8820 ca        1 SBN     -0.373500
     11 C8          2.6700   -2.5040    4.3630 ca        1 SBN     -0.021000
     12 C9          3.3330   -3.7270    4.4760 ca        1 SBN     -0.095800
     13 C10         4.6810   -3.8090    4.1060 ca        1 SBN     -0.068000
     14 C11         5.3600   -2.6820    3.6340 ca        1 SBN     -0.095800
     15 C12         4.6760   -1.4680    3.5260 ca        1 SBN     -0.021000
     16 N2          4.6110    0.8290    0.7010 n1        1 SBN     -0.339800
     17 C13         3.5080    0.5030    0.8770 cg        1 SBN      0.215800
     18 N1          1.8630    0.0530   -1.3780 nv        1 SBN     -0.833200
     19 C14         2.6180   -4.9250    4.9720 c3        1 SBN     -0.055800
     20 C15         6.7930   -2.7640    3.2660 c3        1 SBN     -0.055800
     21 H1         -0.6670   -0.5890   -0.7900 ha        1 SBN      0.142000
     22 H5         -0.1250   -0.6410    3.4890 ha        1 SBN      0.166000
     23 H6         -1.5700   -0.9530    1.4910 ha        1 SBN      0.144000
     24 H8          1.6120   -2.4250    4.6700 ha        1 SBN      0.155000
     25 H10         5.2110   -4.7710    4.1920 ha        1 SBN      0.137000
     26 H12         5.2110   -0.5700    3.1650 ha        1 SBN      0.155000
     27 HN11        1.2010    0.2080   -2.1030 hn        1 SBN      0.412800
     28 HN12        2.7130    0.5600   -1.4690 hn        1 SBN      0.412800
     29 H141        3.3180   -5.6160    5.5050 hc        1 SBN      0.049033
     30 H142        2.1630   -5.4810    4.1140 hc        1 SBN      0.049033
     31 H143        1.8000   -4.6400    5.6780 hc        1 SBN      0.049033
     32 H151        7.0210   -2.0900    2.4040 hc        1 SBN      0.049033
     33 H152        7.4270   -2.4500    4.1330 hc        1 SBN      0.049033
     34 H153        7.0760   -3.8080    2.9840 hc        1 SBN      0.049033
@<TRIPOS>BOND
     1    1    2 ar  
     2    1    6 ar  
     3    1   21 1   
     4    2    3 ar  
     5    2   18 1   
     6    3    4 ar  
     7    3   17 1   
     8    4    5 ar  
     9    4    7 1   
    10    5    6 ar  
    11    5   22 1   
    12    6   23 1   
    13    7    8 2   
    14    7    9 2   
    15    7   10 1   
    16   10   11 ar  
    17   10   15 ar  
    18   11   12 ar  
    19   11   24 1   
    20   12   13 ar  
    21   12   19 1   
    22   13   14 ar  
    23   13   25 1   
    24   14   15 ar  
    25   14   20 1   
    26   15   26 1   
    27   16   17 3   
    28   18   27 1   
    29   18   28 1   
    30   19   29 1   
    31   19   30 1   
    32   19   31 1   
    33   20   32 1   
    34   20   33 1   
    35   20   34 1   
@<TRIPOS>SUBSTRUCTURE
     1 SBN         1 TEMP              0 ****  ****    0 ROOT
