@<TRIPOS>MOLECULE
SBN
   34    35     1     0     0
SMALL
bcc


@<TRIPOS>ATOM
      1 C1         -0.0110   -0.3930    0.1090 ca        1 SBN     -0.154000
      2 C2          1.3380    0.0180   -0.0610 ca        1 SBN      0.185600
      3 C3          2.1460    0.1710    1.1010 ca        1 SBN      0.013000
      4 C4          1.6190   -0.0560    2.3840 ca        1 SBN     -0.262500
      5 C5          0.2850   -0.4440    2.5040 ca        1 SBN     -0.091000
      6 C6         -0.5200   -0.6130    1.3760 ca        1 SBN     -0.090000
      7 S           2.4990    0.1480    3.8350 sy        1 SBN      1.426600
      8 O1          1.5760    0.2430    4.8900 o         1 SBN     -0.646800
      9 O2          3.4210    1.1930    3.6990 o         1 SBN     -0.646800
     10 C7          3.2970   -1.3230    3.9210 ca        1 SBN     -0.372500
     11 C8          2.6350   -2.4670    4.3820 ca        1 SBN     -0.022500
     12 C9          3.2980   -3.6900    4.4950 ca        1 SBN     -0.096800
     13 C10         4.6490   -3.7700    4.1380 ca        1 SBN     -0.069000
     14 C11         5.3330   -2.6380    3.6840 ca        1 SBN     -0.096800
     15 C12         4.6510   -1.4220    3.5820 ca        1 SBN     -0.022500
     16 N2          4.6100    0.8830    0.7670 n1        1 SBN     -0.340800
     17 C13         3.5030    0.5640    0.9330 cg        1 SBN      0.215800
     18 N1          1.8160    0.3290   -1.3240 nh        1 SBN     -0.840200
     19 C14         2.5860   -4.8860    5.0030 c3        1 SBN     -0.055300
     20 C15         6.7630   -2.7230    3.3040 c3        1 SBN     -0.055300
     21 H1         -0.6570   -0.5260   -0.7720 ha        1 SBN      0.141000
     22 H5         -0.1460   -0.6050    3.5090 ha        1 SBN      0.165000
     23 H6         -1.5710   -0.9210    1.4990 ha        1 SBN      0.143000
     24 H8          1.5730   -2.3910    4.6760 ha        1 SBN      0.155000
     25 H10         5.1780   -4.7320    4.2230 ha        1 SBN      0.137000
     26 H12         5.1910   -0.5200    3.2390 ha        1 SBN      0.155000
     27 HN11        2.8000    0.3940   -1.4380 hn        1 SBN      0.416800
     28 HN12        1.3170   -0.0530   -2.0920 hn        1 SBN      0.416800
     29 H141        2.6990   -4.9520    6.1150 hc        1 SBN      0.048533
     30 H142        3.0020   -5.8200    4.5530 hc        1 SBN      0.048533
     31 H143        1.4950   -4.8340    4.7660 hc        1 SBN      0.048533
     32 H151        7.3040   -1.7850    3.5840 hc        1 SBN      0.048533
     33 H152        6.8560   -2.8620    2.1970 hc        1 SBN      0.048533
     34 H153        7.2630   -3.5850    3.8090 hc        1 SBN      0.048533
@<TRIPOS>BOND
     1    1    2 ar  
     2    1    6 ar  
     3    1   21 1   
     4    2    3 ar  
     5    2   18 1   
     6    3    4 ar  
     7    3   17 1   
     8    4    5 ar  
     9    4    7 1   
    10    5    6 ar  
    11    5   22 1   
    12    6   23 1   
    13    7    8 2   
    14    7    9 2   
    15    7   10 1   
    16   10   11 ar  
    17   10   15 ar  
    18   11   12 ar  
    19   11   24 1   
    20   12   13 ar  
    21   12   19 1   
    22   13   14 ar  
    23   13   25 1   
    24   14   15 ar  
    25   14   20 1   
    26   15   26 1   
    27   16   17 3   
    28   18   27 1   
    29   18   28 1   
    30   19   29 1   
    31   19   30 1   
    32   19   31 1   
    33   20   32 1   
    34   20   33 1   
    35   20   34 1   
@<TRIPOS>SUBSTRUCTURE
     1 SBN         1 TEMP              0 ****  ****    0 ROOT
