@<TRIPOS>MOLECULE
SBN
   35    36     1     0     0
SMALL
bcc


@<TRIPOS>ATOM
      1 C1          0.0150   -0.3950    0.0520 ca        1 SBN     -0.064000
      2 C2          1.3290    0.0880   -0.0530 ca        1 SBN     -0.074400
      3 C3          2.1510    0.2140    1.0940 ca        1 SBN      0.140000
      4 C4          1.6440   -0.1310    2.3490 ca        1 SBN     -0.235500
      5 C5          0.3290   -0.6020    2.4400 ca        1 SBN      0.006000
      6 C6         -0.4750   -0.7410    1.3080 ca        1 SBN     -0.104000
      7 S           2.5320    0.0700    3.8620 sy        1 SBN      1.434600
      8 O1          1.5440    0.1920    4.8390 o         1 SBN     -0.626800
      9 O2          3.4240    1.1180    3.6460 o         1 SBN     -0.626800
     10 C7          3.2970   -1.3870    3.9460 ca        1 SBN     -0.427500
     11 C8          2.6450   -2.5100    4.4770 ca        1 SBN     -0.024500
     12 C9          3.3020   -3.7330    4.6150 ca        1 SBN     -0.084300
     13 C10         4.6410   -3.8360    4.2170 ca        1 SBN     -0.050000
     14 C11         5.3190   -2.7280    3.6960 ca        1 SBN     -0.084300
     15 C12         4.6420   -1.5140    3.5660 ca        1 SBN     -0.024500
     16 N2          4.5620    1.1040    0.7880 n1        1 SBN     -0.233800
     17 C13         3.4780    0.7030    0.9250 cg        1 SBN      0.145800
     18 N1          1.8590    0.4800   -1.3590 n4        1 SBN     -0.700000
     19 C14         2.6060   -4.9020    5.1990 c3        1 SBN     -0.064300
     20 C15         6.7460   -2.8410    3.3140 c3        1 SBN     -0.064300
     21 H1         -0.6340   -0.5000   -0.8340 ha        1 SBN      0.163000
     22 H5         -0.0880   -0.8500    3.4390 ha        1 SBN      0.198000
     23 H6         -1.5090   -1.1170    1.4060 ha        1 SBN      0.183000
     24 H8          1.5970   -2.4140    4.8160 ha        1 SBN      0.154000
     25 H10         5.1690   -4.7990    4.3240 ha        1 SBN      0.154000
     26 H12         5.1810   -0.6290    3.1800 ha        1 SBN      0.154000
     27 HN11        2.6130   -0.1630   -1.6330 hn        1 SBN      0.469133
     28 HN12        2.2400    1.4350   -1.3040 hn        1 SBN      0.469133
     29 H141        2.9220   -5.8480    4.6930 hc        1 SBN      0.058533
     30 H142        2.8570   -4.9880    6.2880 hc        1 SBN      0.058533
     31 H143        1.4970   -4.8030    5.1050 hc        1 SBN      0.058533
     32 H151        6.9490   -3.8240    2.8220 hc        1 SBN      0.058533
     33 H152        7.0450   -2.0240    2.6120 hc        1 SBN      0.058533
     34 H153        7.3900   -2.7670    4.2280 hc        1 SBN      0.058533
     35 H13         1.1160    0.4530   -2.0670 hn        1 SBN      0.469133
@<TRIPOS>BOND
     1    1    2 ar  
     2    1    6 ar  
     3    1   21 1   
     4    2    3 ar  
     5    2   18 1   
     6    3    4 ar  
     7    3   17 1   
     8    4    5 ar  
     9    4    7 1   
    10    5    6 ar  
    11    5   22 1   
    12    6   23 1   
    13    7    8 2   
    14    7    9 2   
    15    7   10 1   
    16   10   11 ar  
    17   10   15 ar  
    18   11   12 ar  
    19   11   24 1   
    20   12   13 ar  
    21   12   19 1   
    22   13   14 ar  
    23   13   25 1   
    24   14   15 ar  
    25   14   20 1   
    26   15   26 1   
    27   16   17 3   
    28   18   27 1   
    29   18   28 1   
    30   18   35 1   
    31   19   29 1   
    32   19   30 1   
    33   19   31 1   
    34   20   32 1   
    35   20   33 1   
    36   20   34 1   
@<TRIPOS>SUBSTRUCTURE
     1 SBN         1 TEMP              0 ****  ****    0 ROOT
