@<TRIPOS>MOLECULE
SBN
   34    35     1     0     0
SMALL
bcc


@<TRIPOS>ATOM
      1 C1         -0.1420   -1.6330   -3.4980 ca        1 SBN     -0.152000
      2 C2          0.9820   -0.8990   -3.0360 ca        1 SBN      0.178600
      3 C3          0.7860    0.0410   -1.9860 ca        1 SBN      0.017000
      4 C4         -0.4820    0.2290   -1.4100 ca        1 SBN     -0.264500
      5 C5         -1.5570   -0.5170   -1.8930 ca        1 SBN     -0.089000
      6 C6         -1.3870   -1.4390   -2.9270 ca        1 SBN     -0.092000
      7 S          -0.8160    1.3550   -0.1680 sy        1 SBN      1.426600
      8 O1         -2.2050    1.5640   -0.1400 o         1 SBN     -0.648300
      9 O2         -0.0060    2.4870   -0.3160 o         1 SBN     -0.648300
     10 C7         -0.3530    0.4770    1.1810 ca        1 SBN     -0.373500
     11 C8         -1.2050   -0.4900    1.7280 ca        1 SBN     -0.021000
     12 C9         -0.8480   -1.2050    2.8720 ca        1 SBN     -0.095800
     13 C10         0.3860   -0.9460    3.4810 ca        1 SBN     -0.068000
     14 C11         1.2490    0.0220    2.9580 ca        1 SBN     -0.095800
     15 C12         0.8700    0.7280    1.8130 ca        1 SBN     -0.021000
     16 N2          2.8420    1.3890   -1.1810 n1        1 SBN     -0.339800
     17 C13         1.9080    0.7900   -1.5320 cg        1 SBN      0.215800
     18 N1          2.2440   -1.1580   -3.5530 nh        1 SBN     -0.833200
     19 C14        -1.7690   -2.2120    3.4480 c3        1 SBN     -0.055800
     20 C15         2.5570    0.2930    3.5990 c3        1 SBN     -0.055800
     21 H1         -0.0200   -2.3640   -4.3130 ha        1 SBN      0.142000
     22 H5         -2.5630   -0.3630   -1.4610 ha        1 SBN      0.165000
     23 H6         -2.2530   -2.0130   -3.2930 ha        1 SBN      0.144000
     24 H8         -2.1830   -0.6780    1.2500 ha        1 SBN      0.155000
     25 H10         0.6770   -1.5080    4.3830 ha        1 SBN      0.137000
     26 H12         1.5410    1.5060    1.4040 ha        1 SBN      0.155000
     27 HN11        2.2660   -1.5860   -4.4500 hn        1 SBN      0.412800
     28 HN12        2.9420   -0.4660   -3.4010 hn        1 SBN      0.412800
     29 H141       -2.4280   -1.7310    4.2150 hc        1 SBN      0.048700
     30 H142       -2.4210   -2.6570    2.6570 hc        1 SBN      0.048700
     31 H143       -1.2000   -3.0370    3.9430 hc        1 SBN      0.048700
     32 H151        3.3630   -0.2860    3.0810 hc        1 SBN      0.048700
     33 H152        2.8120    1.3800    3.5370 hc        1 SBN      0.048700
     34 H153        2.5470   -0.0070    4.6760 hc        1 SBN      0.048700
@<TRIPOS>BOND
     1    1    2 ar  
     2    1    6 ar  
     3    1   21 1   
     4    2    3 ar  
     5    2   18 1   
     6    3    4 ar  
     7    3   17 1   
     8    4    5 ar  
     9    4    7 1   
    10    5    6 ar  
    11    5   22 1   
    12    6   23 1   
    13    7    8 2   
    14    7    9 2   
    15    7   10 1   
    16   10   11 ar  
    17   10   15 ar  
    18   11   12 ar  
    19   11   24 1   
    20   12   13 ar  
    21   12   19 1   
    22   13   14 ar  
    23   13   25 1   
    24   14   15 ar  
    25   14   20 1   
    26   15   26 1   
    27   16   17 3   
    28   18   27 1   
    29   18   28 1   
    30   19   29 1   
    31   19   30 1   
    32   19   31 1   
    33   20   32 1   
    34   20   33 1   
    35   20   34 1   
@<TRIPOS>SUBSTRUCTURE
     1 SBN         1 TEMP              0 ****  ****    0 ROOT
