@<TRIPOS>MOLECULE
SBR
   47    49     1     0     0
SMALL
bcc


@<TRIPOS>ATOM
      1 C01         1.5490    0.1240   -3.7640 c3        1 SBR      0.048300
      2 C02         0.8580    0.2980   -2.3970 c3        1 SBR     -0.116700
      3 C03         1.6990   -0.4680   -1.3610 c3        1 SBR      0.089000
      4 N04         1.1240   -0.5100   -0.0460 n         1 SBR     -0.561900
      5 C05         1.7700   -0.0060    1.0650 c         1 SBR      0.663700
      6 O06         2.9420    0.4150    1.0090 o         1 SBR     -0.593100
      7 C07         1.0150   -0.0370    2.3560 ca        1 SBR     -0.079600
      8 C08         1.6710   -0.4970    3.5020 ca        1 SBR     -0.122000
      9 C09         0.9970   -0.5180    4.7200 ca        1 SBR     -0.026000
     10 C10        -0.3270   -0.0740    4.8170 ca        1 SBR     -0.361500
     11 C11        -0.9690    0.3850    3.6620 ca        1 SBR     -0.026000
     12 C12        -0.3090    0.4050    2.4350 ca        1 SBR     -0.122000
     13 S13        -1.1500   -0.1220    6.3010 sy        1 SBR      1.525200
     14 O14        -2.5330   -0.1810    6.0310 o         1 SBR     -0.654800
     15 O15        -0.5840   -1.1500    7.0830 o         1 SBR     -0.654800
     16 NP6        -0.7980    1.2950    6.9550 n3        1 SBR     -1.026700
     17 N17         0.7730    0.5070   -4.9030 na        1 SBR     -0.079400
     18 C18         0.6790    1.8130   -5.4180 cc        1 SBR     -0.107100
     19 C19        -0.3270    1.8830   -6.3740 cd        1 SBR     -0.184200
     20 C20        -0.2430   -0.2610   -5.4950 ca        1 SBR     -0.045200
     21 C21        -0.6010   -1.6070   -5.3250 ca        1 SBR     -0.145000
     22 C22        -1.6390   -2.1050   -6.0990 ca        1 SBR     -0.114000
     23 C23        -2.3160   -1.2980   -7.0290 ca        1 SBR     -0.157000
     24 C24        -1.9740    0.0340   -7.2120 ca        1 SBR     -0.083000
     25 C25        -0.9390    0.5750   -6.4500 ca        1 SBR     -0.093800
     26 C26         0.7320    1.7590   -2.0350 c3        1 SBR     -0.095100
     27 HC11        2.4970    0.7360   -3.7660 h1        1 SBR      0.062200
     28 HC12        1.8250   -0.9630   -3.8930 h1        1 SBR      0.062200
     29 HC2        -0.1700   -0.1590   -2.4490 hc        1 SBR      0.063700
     30 HC31        1.8200   -1.5330   -1.7180 h1        1 SBR      0.064200
     31 HC32        2.7240    0.0000   -1.2980 h1        1 SBR      0.064200
     32 HN4         0.1700   -0.7740    0.0280 hn        1 SBR      0.314500
     33 HC8         2.7190   -0.8310    3.4330 ha        1 SBR      0.152000
     34 HC9         1.5060   -0.9050    5.6210 ha        1 SBR      0.158000
     35 H11        -2.0210    0.7170    3.7230 ha        1 SBR      0.158000
     36 H12        -0.8300    0.7810    1.5420 ha        1 SBR      0.152000
     37 HN61       -1.3490    2.1070    6.8320 hn        1 SBR      0.449800
     38 HN62       -0.0190    1.4490    7.5450 hn        1 SBR      0.449800
     39 H18         1.3660    2.5870   -5.0740 h4        1 SBR      0.165000
     40 H19        -0.6050    2.7500   -6.9650 ha        1 SBR      0.157000
     41 H21        -0.0740   -2.2460   -4.6040 ha        1 SBR      0.129000
     42 H22        -1.9400   -3.1570   -5.9840 ha        1 SBR      0.129000
     43 H23        -3.1320   -1.7380   -7.6220 ha        1 SBR      0.130000
     44 H24        -2.5040    0.6590   -7.9440 ha        1 SBR      0.134000
     45 H261        1.7390    2.2160   -1.8800 hc        1 SBR      0.042033
     46 H262        0.2080    2.3200   -2.8480 hc        1 SBR      0.042033
     47 H263        0.1420    1.8800   -1.0940 hc        1 SBR      0.042033
@<TRIPOS>BOND
     1    1    2 1   
     2    1   17 1   
     3    1   27 1   
     4    1   28 1   
     5    2    3 1   
     6    2   26 1   
     7    2   29 1   
     8    3    4 1   
     9    3   30 1   
    10    3   31 1   
    11    4    5 1   
    12    4   32 1   
    13    5    6 2   
    14    5    7 1   
    15    7    8 ar  
    16    7   12 ar  
    17    8    9 ar  
    18    8   33 1   
    19    9   10 ar  
    20    9   34 1   
    21   10   11 ar  
    22   10   13 1   
    23   11   12 ar  
    24   11   35 1   
    25   12   36 1   
    26   13   14 2   
    27   13   15 2   
    28   13   16 1   
    29   16   37 1   
    30   16   38 1   
    31   17   18 1   
    32   17   20 1   
    33   18   19 2   
    34   18   39 1   
    35   19   25 1   
    36   19   40 1   
    37   20   21 ar  
    38   20   25 ar  
    39   21   22 ar  
    40   21   41 1   
    41   22   23 ar  
    42   22   42 1   
    43   23   24 ar  
    44   23   43 1   
    45   24   25 ar  
    46   24   44 1   
    47   26   45 1   
    48   26   46 1   
    49   26   47 1   
@<TRIPOS>SUBSTRUCTURE
     1 SBR         1 TEMP              0 ****  ****    0 ROOT
