@<TRIPOS>MOLECULE
SBR
   49    51     1     0     0
SMALL
bcc


@<TRIPOS>ATOM
      1 C01         0.0220   -0.1300    0.1700 c3        1 SBR      0.062300
      2 C02         1.3280   -0.8820   -0.2180 c3        1 SBR     -0.137700
      3 C03         2.2020   -0.9410    1.0340 c3        1 SBR      0.112800
      4 N04         3.5230   -1.6110    0.7680 n4        1 SBR     -0.673800
      5 C05         4.3490   -1.7250    2.0200 c         1 SBR      0.540700
      6 O06         3.9230   -2.4590    2.8980 o         1 SBR     -0.357100
      7 C07         5.5970   -0.9280    2.0790 ca        1 SBR     -0.081600
      8 C08         5.8600   -0.2130    3.2550 ca        1 SBR     -0.097500
      9 C09         7.0480    0.5080    3.3710 ca        1 SBR      0.013000
     10 C10         7.9960    0.5200    2.3320 ca        1 SBR     -0.457500
     11 C11         7.7130   -0.2150    1.1650 ca        1 SBR      0.013000
     12 C12         6.5260   -0.9320    1.0320 ca        1 SBR     -0.097500
     13 S13         9.3320    1.4750    2.4210 sy        1 SBR      1.461200
     14 O14         9.9400    1.6500    1.2010 o         1 SBR     -0.532800
     15 O15         9.2350    2.4380    3.3960 o         1 SBR     -0.532800
     16 NP6        10.5210    0.2640    3.2390 n4        1 SBR     -0.801500
     17 N17        -0.7070    0.4110   -0.9240 na        1 SBR     -0.085400
     18 C18        -1.6220   -0.3370   -1.7110 cc        1 SBR     -0.134100
     19 C19        -1.8220    0.2790   -2.9320 cd        1 SBR     -0.133200
     20 C20        -0.2400    1.4790   -1.7260 ca        1 SBR     -0.062200
     21 C21         0.6760    2.4990   -1.4500 ca        1 SBR     -0.166000
     22 C22         0.8740    3.4730   -2.4230 ca        1 SBR     -0.102000
     23 C23         0.1840    3.4440   -3.6430 ca        1 SBR     -0.141000
     24 C24        -0.7340    2.4380   -3.9290 ca        1 SBR     -0.064000
     25 C25        -0.9530    1.4420   -2.9810 ca        1 SBR     -0.087800
     26 C26         1.0140   -2.2600   -0.7500 c3        1 SBR     -0.126100
     27 HC11       -0.6450   -0.8470    0.7290 h1        1 SBR      0.071200
     28 HC12        0.2960    0.7250    0.8550 h1        1 SBR      0.071200
     29 HC2         1.8550   -0.2810   -1.0150 hc        1 SBR      0.087700
     30 HC31        2.4170    0.1000    1.4090 hx        1 SBR      0.112700
     31 HC32        1.6830   -1.5310    1.8450 hx        1 SBR      0.112700
     32 HN4         4.0290   -1.0860    0.0460 hn        1 SBR      0.469300
     33 HC8         5.1370   -0.2210    4.0930 ha        1 SBR      0.186000
     34 HC9         7.2290    1.0960    4.2950 ha        1 SBR      0.196500
     35 H11         8.4350   -0.2100    0.3210 ha        1 SBR      0.196500
     36 H12         6.3530   -1.5100    0.1080 ha        1 SBR      0.186000
     37 HN61       11.3410    0.1090    2.6450 hn        1 SBR      0.472133
     38 HN62       10.8650    0.6450    4.1260 hn        1 SBR      0.472133
     39 H18        -2.1090   -1.2200   -1.2890 h4        1 SBR      0.173000
     40 H19        -2.5140   -0.0240   -3.7160 ha        1 SBR      0.178000
     41 H21         1.1980    2.5520   -0.4860 ha        1 SBR      0.111000
     42 H22         1.5810    4.2950   -2.2280 ha        1 SBR      0.136000
     43 H23         0.3650    4.2410   -4.3820 ha        1 SBR      0.150000
     44 H24        -1.2870    2.4310   -4.8810 ha        1 SBR      0.156000
     45 H261        0.1980   -2.1900   -1.5170 hc        1 SBR      0.062700
     46 H262        0.6600   -2.9390    0.0640 hc        1 SBR      0.062700
     47 H263        1.8990   -2.7200   -1.2520 hc        1 SBR      0.062700
     48 H042        3.3240   -2.5580    0.4050 hn        1 SBR      0.469300
     49 HP63       10.1170   -0.6480    3.4400 hn        1 SBR      0.472133
@<TRIPOS>BOND
     1    1    2 1   
     2    1   17 1   
     3    1   27 1   
     4    1   28 1   
     5    2    3 1   
     6    2   26 1   
     7    2   29 1   
     8    3    4 1   
     9    3   30 1   
    10    3   31 1   
    11    4    5 1   
    12    4   32 1   
    13    4   48 1   
    14    5    6 2   
    15    5    7 1   
    16    7    8 ar  
    17    7   12 ar  
    18    8    9 ar  
    19    8   33 1   
    20    9   10 ar  
    21    9   34 1   
    22   10   11 ar  
    23   10   13 1   
    24   11   12 ar  
    25   11   35 1   
    26   12   36 1   
    27   13   14 2   
    28   13   15 2   
    29   13   16 1   
    30   16   37 1   
    31   16   38 1   
    32   16   49 1   
    33   17   18 1   
    34   17   20 1   
    35   18   19 2   
    36   18   39 1   
    37   19   25 1   
    38   19   40 1   
    39   20   21 ar  
    40   20   25 ar  
    41   21   22 ar  
    42   21   41 1   
    43   22   23 ar  
    44   22   42 1   
    45   23   24 ar  
    46   23   43 1   
    47   24   25 ar  
    48   24   44 1   
    49   26   45 1   
    50   26   46 1   
    51   26   47 1   
@<TRIPOS>SUBSTRUCTURE
     1 SBR         1 TEMP              0 ****  ****    0 ROOT
