@<TRIPOS>MOLECULE
SBR
   47    41     1     0     0
SMALL
bcc


@<TRIPOS>ATOM
      1 C01        -2.2390   -1.4660   -0.8960 c3        1 SBR     -0.010000
      2 C02        -0.7130   -1.3930   -0.9100 c3        1 SBR     -0.153000
      3 C03        -0.1900   -1.4510    0.5100 c3        1 SBR     -0.030000
      4 N04         1.0780   -0.7500    0.5870 n         1 SBR     -0.370000
      5 C05         1.9790   -1.0070    1.6890 c2        1 SBR      0.335000
      6 O06         1.8750   -2.0350    2.3320 o         1 SBR     -0.351000
      7 C07         3.0010    0.0660    2.1150 c2        1 SBR     -0.062000
      8 C08         4.2860    0.0530    1.5820 c1        1 SBR     -0.108000
      9 C09         5.2100    1.0220    1.9680 c1        1 SBR     -0.027000
     10 C10         4.8470    2.0020    2.8870 c1        1 SBR     -0.804000
     11 C11         3.5640    2.0150    3.4180 c1        1 SBR     -0.028000
     12 C12         2.6390    1.0450    3.0310 c2        1 SBR     -0.133000
     13 S13         6.0370    3.2450    3.3900 s4        1 SBR      2.079800
     14 O14         7.3820    2.7500    3.2850 o         1 SBR     -0.541400
     15 O15         5.9480    3.5130    4.8020 o         1 SBR     -0.541400
     16 NP6         5.8350    4.6190    2.5080 n2        1 SBR     -0.954000
     17 N17        -2.7660   -0.6170   -1.9210 n3        1 SBR     -0.172000
     18 C18        -2.5410    0.6620   -2.3500 c1        1 SBR     -0.040000
     19 C19        -3.7250    1.1530   -2.8750 c1        1 SBR     -0.139500
     20 C20        -4.0970   -0.9290   -2.1770 c1        1 SBR     -0.040000
     21 C21        -4.8410   -2.1100   -1.9880 c1        1 SBR     -0.124750
     22 C22        -6.1700   -2.1680   -2.3970 c1        1 SBR     -0.124750
     23 C23        -6.7630   -1.0620   -2.9910 c1        1 SBR     -0.124750
     24 C24        -6.0300    0.1040   -3.1780 c1        1 SBR     -0.124750
     25 C25        -4.6840    0.1640   -2.7640 c1        1 SBR     -0.139500
     26 C26        -0.1620   -2.5520   -1.6970 c3        1 SBR     -0.217000
     27 HC11       -2.5220   -2.3900   -1.0600 h1        1 SBR      0.102000
     28 HC12       -2.5730   -1.1710   -0.0200 h1        1 SBR      0.102000
     29 HC2        -0.4330   -0.5570   -1.3250 hc        1 SBR      0.097000
     30 HC31       -0.8320   -1.0290    1.1100 h1        1 SBR      0.103500
     31 HC32       -0.0630   -2.3850    0.7720 h1        1 SBR      0.103500
     32 HN4         1.3080   -0.1470   -0.0600 hn        1 SBR      0.224000
     33 HC8         4.5420   -0.6370    0.9360 ha        1 SBR      0.164000
     34 HC9         6.1120    1.0130    1.5950 ha        1 SBR      0.159000
     35 H11         3.3080    2.7060    4.0650 ha        1 SBR      0.158000
     36 H12         1.7370    1.0530    3.4050 ha        1 SBR      0.146000
     37 HN61        5.4350    5.3540    2.8870 hn        1 SBR      0.244500
     38 HN62        6.1460    4.6610    1.6480 hn        1 SBR      0.244500
     39 H18        -1.6800    1.1240   -2.3480 DU        1 SBR      0.160000
     40 H19        -3.8600    2.0430   -3.2560 DU        1 SBR      0.160000
     41 H21        -4.4260   -2.8860   -1.5710 ha        1 SBR      0.131500
     42 H22        -6.6870   -2.9890   -2.2650 ha        1 SBR      0.131500
     43 H23        -7.6960   -1.1040   -3.2780 ha        1 SBR      0.131500
     44 H24        -6.4470    0.8800   -3.5950 ha        1 SBR      0.131500
     45 H261        0.7860   -2.3930   -1.8910 hc        1 SBR      0.084333
     46 H262       -0.6570   -2.6400   -2.5360 hc        1 SBR      0.084333
     47 H263       -0.2560   -3.3770   -1.1730 hc        1 SBR      0.084333
@<TRIPOS>BOND
     1    1    2 1   
     2    1   17 1   
     3    1   27 1   
     4    1   28 1   
     5    2    3 1   
     6    2   26 1   
     7    2   29 1   
     8    3    4 1   
     9    3   30 1   
    10    3   31 1   
    11    4    5 1   
    12    4   32 1   
    13    5    6 1   
    14    5    7 1   
    15    7    8 1   
    16    7   12 1   
    17    8   33 1   
    18    9   10 1   
    19    9   34 1   
    20   10   13 1   
    21   11   12 1   
    22   11   35 1   
    23   12   36 1   
    24   13   14 1   
    25   13   15 1   
    26   16   37 1   
    27   16   38 1   
    28   17   18 1   
    29   17   20 1   
    30   18   19 1   
    31   19   25 1   
    32   20   25 1   
    33   21   22 1   
    34   21   41 1   
    35   22   42 1   
    36   23   24 1   
    37   23   43 1   
    38   24   44 1   
    39   26   45 1   
    40   26   46 1   
    41   26   47 1   
@<TRIPOS>SUBSTRUCTURE
     1 SBR         1 TEMP              0 ****  ****    0 ROOT
