@<TRIPOS>MOLECULE
SBR
   49    51     1     0     0
SMALL
bcc


@<TRIPOS>ATOM
      1 C01         0.0270   -0.1540    0.1600 c3        1 SBR      0.062300
      2 C02         1.3400   -0.8910   -0.2360 c3        1 SBR     -0.137700
      3 C03         2.2120   -0.9590    1.0180 c3        1 SBR      0.112800
      4 N04         3.5390   -1.6150    0.7460 ny        1 SBR     -0.673800
      5 C05         4.3630   -1.7380    1.9980 c         1 SBR      0.540700
      6 O06         3.9410   -2.4860    2.8650 o         1 SBR     -0.357100
      7 C07         5.6050   -0.9320    2.0690 ca        1 SBR     -0.081600
      8 C08         5.8590   -0.2290    3.2540 ca        1 SBR     -0.097500
      9 C09         7.0420    0.5000    3.3800 ca        1 SBR      0.013000
     10 C10         7.9920    0.5300    2.3440 ca        1 SBR     -0.457500
     11 C11         7.7180   -0.1930    1.1680 ca        1 SBR      0.013000
     12 C12         6.5360   -0.9170    1.0240 ca        1 SBR     -0.097500
     13 S13         9.3200    1.4940    2.4470 sy        1 SBR      1.461200
     14 O14         9.9300    1.6880    1.2300 o         1 SBR     -0.532800
     15 O15         9.2140    2.4460    3.4330 o         1 SBR     -0.532800
     16 NP6        10.5170    0.2830    3.2550 nz        1 SBR     -0.801500
     17 N17        -0.7040    0.3940   -0.9290 na        1 SBR     -0.085400
     18 C18        -1.6130   -0.3510   -1.7260 cc        1 SBR     -0.134100
     19 C19        -1.8150    0.2780   -2.9410 cd        1 SBR     -0.133200
     20 C20        -0.2430    1.4740   -1.7190 ca        1 SBR     -0.062200
     21 C21         0.6660    2.4980   -1.4300 ca        1 SBR     -0.166000
     22 C22         0.8590    3.4840   -2.3920 ca        1 SBR     -0.102000
     23 C23         0.1710    3.4640   -3.6130 ca        1 SBR     -0.141000
     24 C24        -0.7400    2.4550   -3.9120 ca        1 SBR     -0.064000
     25 C25        -0.9540    1.4470   -2.9750 ca        1 SBR     -0.087800
     26 C26         1.0370   -2.2650   -0.7840 c3        1 SBR     -0.126100
     27 HC11       -0.6350   -0.8830    0.7080 h1        1 SBR      0.071200
     28 HC12        0.2940    0.6940    0.8550 h1        1 SBR      0.071200
     29 HC2         1.8630   -0.2780   -1.0240 hc        1 SBR      0.087700
     30 HC31        2.4180    0.0790    1.4050 hx        1 SBR      0.112700
     31 HC32        1.6960   -1.5630    1.8200 hx        1 SBR      0.112700
     32 HN4         4.0420   -1.0770    0.0320 hn        1 SBR      0.469300
     33 HC8         5.1350   -0.2520    4.0900 ha        1 SBR      0.186000
     34 HC9         7.2170    1.0790    4.3110 ha        1 SBR      0.196500
     35 H11         8.4410   -0.1720    0.3260 ha        1 SBR      0.196500
     36 H12         6.3690   -1.4860    0.0930 ha        1 SBR      0.186000
     37 HN61       11.3390    0.1420    2.6600 hn        1 SBR      0.472133
     38 HN62       10.8560    0.6570    4.1470 hn        1 SBR      0.472133
     39 H18        -2.0940   -1.2410   -1.3150 h4        1 SBR      0.173000
     40 H19        -2.5030   -0.0210   -3.7290 ha        1 SBR      0.178000
     41 H21         1.1860    2.5430   -0.4650 ha        1 SBR      0.111000
     42 H22         1.5600    4.3080   -2.1860 ha        1 SBR      0.136000
     43 H23         0.3470    4.2700   -4.3420 ha        1 SBR      0.150000
     44 H24        -1.2910    2.4550   -4.8640 ha        1 SBR      0.156000
     45 H261        0.2210   -2.1920   -1.5510 hc        1 SBR      0.062700
     46 H262        1.9260   -2.7130   -1.2900 hc        1 SBR      0.062700
     47 H263        0.6870   -2.9570    0.0210 hc        1 SBR      0.062700
     48 H042        3.3480   -2.5580    0.3700 hn        1 SBR      0.469300
     49 HP63       10.1190   -0.6340    3.4440 hn        1 SBR      0.472133
@<TRIPOS>BOND
     1    1    2 1   
     2    1   17 1   
     3    1   27 1   
     4    1   28 1   
     5    2    3 1   
     6    2   26 1   
     7    2   29 1   
     8    3    4 1   
     9    3   30 1   
    10    3   31 1   
    11    4    5 1   
    12    4   32 1   
    13    4   48 1   
    14    5    6 2   
    15    5    7 1   
    16    7    8 ar  
    17    7   12 ar  
    18    8    9 ar  
    19    8   33 1   
    20    9   10 ar  
    21    9   34 1   
    22   10   11 ar  
    23   10   13 1   
    24   11   12 ar  
    25   11   35 1   
    26   12   36 1   
    27   13   14 2   
    28   13   15 2   
    29   13   16 1   
    30   16   37 1   
    31   16   38 1   
    32   16   49 1   
    33   17   18 1   
    34   17   20 1   
    35   18   19 2   
    36   18   39 1   
    37   19   25 1   
    38   19   40 1   
    39   20   21 ar  
    40   20   25 ar  
    41   21   22 ar  
    42   21   41 1   
    43   22   23 ar  
    44   22   42 1   
    45   23   24 ar  
    46   23   43 1   
    47   24   25 ar  
    48   24   44 1   
    49   26   45 1   
    50   26   46 1   
    51   26   47 1   
@<TRIPOS>SUBSTRUCTURE
     1 SBR         1 TEMP              0 ****  ****    0 ROOT
