@<TRIPOS>MOLECULE
SBR
   49    51     1     0     0
SMALL
bcc


@<TRIPOS>ATOM
      1 C01         0.0240   -0.1320    0.1720 c3        1 SBR      0.062300
      2 C02         1.3290   -0.8820   -0.2230 c3        1 SBR     -0.137700
      3 C03         2.2050   -0.9490    1.0280 c3        1 SBR      0.112800
      4 N04         3.5260   -1.6180    0.7560 n4        1 SBR     -0.673800
      5 C05         4.3530   -1.7400    2.0060 c         1 SBR      0.540700
      6 O06         3.9300   -2.4820    2.8780 o         1 SBR     -0.357100
      7 C07         5.5990   -0.9390    2.0700 ca        1 SBR     -0.081600
      8 C08         5.8600   -0.2310    3.2500 ca        1 SBR     -0.097500
      9 C09         7.0460    0.4930    3.3700 ca        1 SBR      0.013000
     10 C10         7.9930    0.5140    2.3310 ca        1 SBR     -0.457500
     11 C11         7.7120   -0.2130    1.1590 ca        1 SBR      0.013000
     12 C12         6.5270   -0.9330    1.0220 ca        1 SBR     -0.097500
     13 S13         9.3260    1.4720    2.4250 sy        1 SBR      1.461200
     14 O14         9.9330    1.6580    1.2060 o         1 SBR     -0.532800
     15 O15         9.2270    2.4290    3.4070 o         1 SBR     -0.532800
     16 NP6        10.5200    0.2600    3.2350 n4        1 SBR     -0.801500
     17 N17        -0.7060    0.4160   -0.9170 na        1 SBR     -0.085400
     18 C18        -1.6250   -0.3270   -1.7070 cc        1 SBR     -0.134100
     19 C19        -1.8250    0.2950   -2.9240 cd        1 SBR     -0.133200
     20 C20        -0.2390    1.4870   -1.7160 ca        1 SBR     -0.062200
     21 C21         0.6790    2.5040   -1.4370 ca        1 SBR     -0.166000
     22 C22         0.8780    3.4820   -2.4060 ca        1 SBR     -0.102000
     23 C23         0.1850    3.4600   -3.6250 ca        1 SBR     -0.141000
     24 C24        -0.7360    2.4570   -3.9130 ca        1 SBR     -0.064000
     25 C25        -0.9550    1.4580   -2.9690 ca        1 SBR     -0.087800
     26 C26         1.0130   -2.2570   -0.7610 c3        1 SBR     -0.126100
     27 HC11        0.3000    0.7190    0.8610 h1        1 SBR      0.071200
     28 HC12       -0.6430   -0.8510    0.7280 h1        1 SBR      0.071200
     29 HC2         1.8550   -0.2780   -1.0170 hc        1 SBR      0.087700
     30 HC31        1.6870   -1.5440    1.8360 hx        1 SBR      0.112700
     31 HC32        2.4210    0.0890    1.4080 hx        1 SBR      0.112700
     32 HN4         3.3250   -2.5620    0.3870 hn        1 SBR      0.469800
     33 HC8         5.1380   -0.2480    4.0890 ha        1 SBR      0.186000
     34 HC9         7.2260    1.0750    4.2980 ha        1 SBR      0.196500
     35 H11         8.4330   -0.2000    0.3150 ha        1 SBR      0.196500
     36 H12         6.3550   -1.5050    0.0940 ha        1 SBR      0.186000
     37 HN61       10.8630    0.6360    4.1240 hn        1 SBR      0.472133
     38 HN62       10.1190   -0.6540    3.4290 hn        1 SBR      0.472133
     39 H18        -2.1110   -1.2100   -1.2880 h4        1 SBR      0.173000
     40 H19        -2.5190   -0.0020   -3.7080 ha        1 SBR      0.178000
     41 H21         1.2030    2.5520   -0.4740 ha        1 SBR      0.111000
     42 H22         1.5860    4.3020   -2.2080 ha        1 SBR      0.136000
     43 H23         0.3660    4.2600   -4.3600 ha        1 SBR      0.150000
     44 H24        -1.2900    2.4550   -4.8640 ha        1 SBR      0.156000
     45 H261        0.1950   -2.1820   -1.5260 hc        1 SBR      0.062700
     46 H262        0.6600   -2.9400    0.0500 hc        1 SBR      0.062700
     47 H263        1.8970   -2.7150   -1.2680 hc        1 SBR      0.062700
     48 H042        4.0300   -1.0890    0.0360 hn        1 SBR      0.469800
     49 HP63       11.3400    0.1120    2.6390 hn        1 SBR      0.472133
@<TRIPOS>BOND
     1    1    2 1   
     2    1   17 1   
     3    1   27 1   
     4    1   28 1   
     5    2    3 1   
     6    2   26 1   
     7    2   29 1   
     8    3    4 1   
     9    3   30 1   
    10    3   31 1   
    11    4    5 1   
    12    4   32 1   
    13    4   48 1   
    14    5    6 2   
    15    5    7 1   
    16    7    8 ar  
    17    7   12 ar  
    18    8    9 ar  
    19    8   33 1   
    20    9   10 ar  
    21    9   34 1   
    22   10   11 ar  
    23   10   13 1   
    24   11   12 ar  
    25   11   35 1   
    26   12   36 1   
    27   13   14 2   
    28   13   15 2   
    29   13   16 1   
    30   16   37 1   
    31   16   38 1   
    32   16   49 1   
    33   17   18 1   
    34   17   20 1   
    35   18   19 2   
    36   18   39 1   
    37   19   25 1   
    38   19   40 1   
    39   20   21 ar  
    40   20   25 ar  
    41   21   22 ar  
    42   21   41 1   
    43   22   23 ar  
    44   22   42 1   
    45   23   24 ar  
    46   23   43 1   
    47   24   25 ar  
    48   24   44 1   
    49   26   45 1   
    50   26   46 1   
    51   26   47 1   
@<TRIPOS>SUBSTRUCTURE
     1 SBR         1 TEMP              0 ****  ****    0 ROOT
