@<TRIPOS>MOLECULE
SBS
   49    51     1     0     0
SMALL
bcc


@<TRIPOS>ATOM
      1 C01         0.3070    0.4750    0.1090 c3        1 SBS      0.065300
      2 C02         1.6620   -0.0970   -0.4020 c3        1 SBS     -0.136700
      3 C03         2.4580   -0.5260    0.8310 c3        1 SBS      0.111800
      4 N04         3.8010   -1.0970    0.4640 n4        1 SBS     -0.672800
      5 C05         4.5370   -1.6130    1.6700 c         1 SBS      0.539700
      6 O06         4.0120   -2.5240    2.2910 o         1 SBS     -0.357100
      7 C07         5.8270   -0.9630    2.0020 ca        1 SBS     -0.081600
      8 C08         6.0640   -0.6320    3.3430 ca        1 SBS     -0.097000
      9 C09         7.2860   -0.0650    3.7050 ca        1 SBS      0.013000
     10 C10         8.2910    0.1670    2.7500 ca        1 SBS     -0.457500
     11 C11         8.0320   -0.1830    1.4110 ca        1 SBS      0.013000
     12 C12         6.8120   -0.7400    1.0340 ca        1 SBS     -0.097000
     13 S13         9.6770    0.9530    3.1600 sy        1 SBS      1.461200
     14 O14        10.3650    1.4200    2.0650 o         1 SBS     -0.532800
     15 O15         9.5840    1.6050    4.3660 o         1 SBS     -0.532800
     16 NP6        10.7390   -0.5270    3.6420 n4        1 SBS     -0.801500
     17 NP7        -0.7320    0.5300   -0.8570 na        1 SBS     -0.089400
     18 C18        -1.4070   -0.6210   -1.3440 cc        1 SBS     -0.145100
     19 C19        -2.0470   -0.3350   -2.5350 cd        1 SBS     -0.127200
     20 C20        -0.8790    1.5460   -1.8300 ca        1 SBS     -0.058200
     21 C21        -0.4130    2.8660   -1.8570 ca        1 SBS     -0.163000
     22 C22        -0.7980    3.6670   -2.9270 ca        1 SBS     -0.096000
     23 C23        -1.6270    3.1810   -3.9490 ca        1 SBS     -0.140000
     24 C24        -2.1020    1.8740   -3.9320 ca        1 SBS     -0.066000
     25 C25        -1.7320    1.0410   -2.8790 ca        1 SBS     -0.093800
     26 C26         2.4080    0.9300   -1.2180 c3        1 SBS     -0.129100
     27 HC11        0.4930    1.5180    0.4960 h1        1 SBS      0.069700
     28 HC12       -0.0500   -0.1740    0.9610 h1        1 SBS      0.069700
     29 HC2         1.4460   -1.0010   -1.0410 hc        1 SBS      0.090700
     30 HC31        2.6360    0.3590    1.5050 hx        1 SBS      0.113200
     31 HC32        1.8990   -1.3250    1.4020 hx        1 SBS      0.113200
     32 HN4         3.6450   -1.8760   -0.1940 hn        1 SBS      0.468800
     33 HC8         5.2950   -0.8220    4.1150 ha        1 SBS      0.186500
     34 HC9         7.4490    0.2210    4.7650 ha        1 SBS      0.196000
     35 H11         8.8010    0.0060    0.6330 ha        1 SBS      0.196000
     36 H12         6.6570   -1.0160   -0.0230 ha        1 SBS      0.186500
     37 HN61       10.2680   -1.4240    3.5570 hn        1 SBS      0.472133
     38 HN62       11.5810   -0.5690    3.0600 hn        1 SBS      0.472133
     39 H18        -1.4230   -1.5350   -0.7490 h4        1 SBS      0.164000
     40 H19        -2.6890   -0.9970   -3.1120 ha        1 SBS      0.175000
     41 H21         0.2150    3.2680   -1.0520 ha        1 SBS      0.123000
     42 H22        -0.4520    4.7120   -2.9690 ha        1 SBS      0.143000
     43 H23        -1.9130    3.8540   -4.7730 ha        1 SBS      0.151000
     44 H24        -2.7660    1.5040   -4.7270 ha        1 SBS      0.154000
     45 H261        2.8150    1.7450   -0.5710 hc        1 SBS      0.061367
     46 H262        3.2440    0.4680   -1.7970 hc        1 SBS      0.061367
     47 H263        1.7100    1.4030   -1.9600 hc        1 SBS      0.061367
     48 H042        4.3500   -0.3730   -0.0160 hn        1 SBS      0.468800
     49 HP63       11.0540   -0.4400    4.6140 hn        1 SBS      0.472133
@<TRIPOS>BOND
     1    1    2 1   
     2    1   17 1   
     3    1   27 1   
     4    1   28 1   
     5    2    3 1   
     6    2   26 1   
     7    2   29 1   
     8    3    4 1   
     9    3   30 1   
    10    3   31 1   
    11    4    5 1   
    12    4   32 1   
    13    4   48 1   
    14    5    6 2   
    15    5    7 1   
    16    7    8 ar  
    17    7   12 ar  
    18    8    9 ar  
    19    8   33 1   
    20    9   10 ar  
    21    9   34 1   
    22   10   11 ar  
    23   10   13 1   
    24   11   12 ar  
    25   11   35 1   
    26   12   36 1   
    27   13   14 2   
    28   13   15 2   
    29   13   16 1   
    30   16   37 1   
    31   16   38 1   
    32   16   49 1   
    33   17   18 1   
    34   17   20 1   
    35   18   19 2   
    36   18   39 1   
    37   19   25 1   
    38   19   40 1   
    39   20   21 ar  
    40   20   25 ar  
    41   21   22 ar  
    42   21   41 1   
    43   22   23 ar  
    44   22   42 1   
    45   23   24 ar  
    46   23   43 1   
    47   24   25 ar  
    48   24   44 1   
    49   26   45 1   
    50   26   46 1   
    51   26   47 1   
@<TRIPOS>SUBSTRUCTURE
     1 SBS         1 TEMP              0 ****  ****    0 ROOT
