@<TRIPOS>MOLECULE
SBS
   49    51     1     0     0
SMALL
bcc


@<TRIPOS>ATOM
      1 C01         0.3010    0.4730    0.1030 c3        1 SBS      0.065300
      2 C02         1.6600   -0.0950   -0.4040 c3        1 SBS     -0.136700
      3 C03         2.4530   -0.5250    0.8300 c3        1 SBS      0.111800
      4 N04         3.7990   -1.0920    0.4660 ny        1 SBS     -0.672800
      5 C05         4.5310   -1.6100    1.6730 c         1 SBS      0.539700
      6 O06         4.0040   -2.5210    2.2920 o         1 SBS     -0.357100
      7 C07         5.8210   -0.9610    2.0090 ca        1 SBS     -0.081600
      8 C08         6.0560   -0.6330    3.3500 ca        1 SBS     -0.097000
      9 C09         7.2780   -0.0680    3.7160 ca        1 SBS      0.013000
     10 C10         8.2850    0.1650    2.7620 ca        1 SBS     -0.457500
     11 C11         8.0280   -0.1820    1.4230 ca        1 SBS      0.013000
     12 C12         6.8080   -0.7380    1.0420 ca        1 SBS     -0.097000
     13 S13         9.6710    0.9490    3.1760 sy        1 SBS      1.461200
     14 O14        10.3610    1.4170    2.0830 o         1 SBS     -0.532800
     15 O15         9.5760    1.5990    4.3830 o         1 SBS     -0.532800
     16 NP6        10.7310   -0.5330    3.6570 nz        1 SBS     -0.801500
     17 NP7        -0.7350    0.5270   -0.8660 na        1 SBS     -0.088400
     18 C18        -1.4040   -0.6250   -1.3590 cc        1 SBS     -0.145100
     19 C19        -2.0410   -0.3380   -2.5510 cd        1 SBS     -0.127200
     20 C20        -0.8810    1.5450   -1.8380 ca        1 SBS     -0.058200
     21 C21        -0.4180    2.8660   -1.8600 ca        1 SBS     -0.163000
     22 C22        -0.8020    3.6690   -2.9290 ca        1 SBS     -0.096000
     23 C23        -1.6260    3.1830   -3.9560 ca        1 SBS     -0.140000
     24 C24        -2.0980    1.8740   -3.9430 ca        1 SBS     -0.066000
     25 C25        -1.7290    1.0400   -2.8910 ca        1 SBS     -0.093800
     26 C26         2.4060    0.9360   -1.2160 c3        1 SBS     -0.129100
     27 HC11       -0.0570   -0.1790    0.9520 h1        1 SBS      0.069700
     28 HC12        0.4840    1.5160    0.4920 h1        1 SBS      0.069700
     29 HC2         1.4480   -0.9970   -1.0460 hc        1 SBS      0.090700
     30 HC31        1.8930   -1.3260    1.3970 hx        1 SBS      0.113200
     31 HC32        2.6270    0.3590    1.5070 hx        1 SBS      0.113200
     32 HN4         4.3470   -0.3650   -0.0100 hn        1 SBS      0.468800
     33 HC8         5.2850   -0.8240    4.1200 ha        1 SBS      0.186500
     34 HC9         7.4400    0.2160    4.7760 ha        1 SBS      0.196000
     35 H11         8.7980    0.0080    0.6460 ha        1 SBS      0.196000
     36 H12         6.6540   -1.0120   -0.0160 ha        1 SBS      0.186500
     37 HN61       11.0440   -0.4480    4.6290 hn        1 SBS      0.472133
     38 HN62       10.2590   -1.4300    3.5700 hn        1 SBS      0.472133
     39 H18        -1.4200   -1.5400   -0.7650 h4        1 SBS      0.164000
     40 H19        -2.6800   -1.0000   -3.1310 ha        1 SBS      0.175000
     41 H21         0.2060    3.2680   -1.0520 ha        1 SBS      0.123000
     42 H22        -0.4580    4.7150   -2.9680 ha        1 SBS      0.143000
     43 H23        -1.9110    3.8560   -4.7790 ha        1 SBS      0.151000
     44 H24        -2.7580    1.5040   -4.7410 ha        1 SBS      0.154000
     45 H261        3.2450    0.4770   -1.7930 hc        1 SBS      0.061367
     46 H262        2.8090    1.7500   -0.5650 hc        1 SBS      0.061367
     47 H263        1.7090    1.4090   -1.9590 hc        1 SBS      0.061367
     48 H042        3.6460   -1.8690   -0.1950 hn        1 SBS      0.468800
     49 HP63       11.5730   -0.5750    3.0760 hn        1 SBS      0.472133
@<TRIPOS>BOND
     1    1    2 1   
     2    1   17 1   
     3    1   27 1   
     4    1   28 1   
     5    2    3 1   
     6    2   26 1   
     7    2   29 1   
     8    3    4 1   
     9    3   30 1   
    10    3   31 1   
    11    4    5 1   
    12    4   32 1   
    13    4   48 1   
    14    5    6 2   
    15    5    7 1   
    16    7    8 ar  
    17    7   12 ar  
    18    8    9 ar  
    19    8   33 1   
    20    9   10 ar  
    21    9   34 1   
    22   10   11 ar  
    23   10   13 1   
    24   11   12 ar  
    25   11   35 1   
    26   12   36 1   
    27   13   14 2   
    28   13   15 2   
    29   13   16 1   
    30   16   37 1   
    31   16   38 1   
    32   16   49 1   
    33   17   18 1   
    34   17   20 1   
    35   18   19 2   
    36   18   39 1   
    37   19   25 1   
    38   19   40 1   
    39   20   21 ar  
    40   20   25 ar  
    41   21   22 ar  
    42   21   41 1   
    43   22   23 ar  
    44   22   42 1   
    45   23   24 ar  
    46   23   43 1   
    47   24   25 ar  
    48   24   44 1   
    49   26   45 1   
    50   26   46 1   
    51   26   47 1   
@<TRIPOS>SUBSTRUCTURE
     1 SBS         1 TEMP              0 ****  ****    0 ROOT
