@<TRIPOS>MOLECULE
SBS
   49    51     1     0     0
SMALL
bcc


@<TRIPOS>ATOM
      1 C01         0.2990    0.4870    0.1160 c3        1 SBS      0.065300
      2 C02         1.6530   -0.0910   -0.3920 c3        1 SBS     -0.136700
      3 C03         2.4490   -0.5160    0.8420 c3        1 SBS      0.111800
      4 N04         3.7910   -1.0910    0.4770 n4        1 SBS     -0.672800
      5 C05         4.5250   -1.6040    1.6850 c         1 SBS      0.539700
      6 O06         3.9950   -2.5060    2.3150 o         1 SBS     -0.357100
      7 C07         5.8220   -0.9610    2.0090 ca        1 SBS     -0.081600
      8 C08         6.0660   -0.6240    3.3460 ca        1 SBS     -0.097000
      9 C09         7.2940   -0.0650    3.7010 ca        1 SBS      0.013000
     10 C10         8.2980    0.1540    2.7410 ca        1 SBS     -0.457500
     11 C11         8.0310   -0.2020    1.4050 ca        1 SBS      0.013000
     12 C12         6.8050   -0.7520    1.0360 ca        1 SBS     -0.097000
     13 S13         9.6910    0.9320    3.1410 sy        1 SBS      1.461200
     14 O14        10.3780    1.3860    2.0410 o         1 SBS     -0.532800
     15 O15         9.6070    1.5920    4.3430 o         1 SBS     -0.532800
     16 NP6        10.7430   -0.5530    3.6290 n4        1 SBS     -0.801500
     17 NP7        -0.7400    0.5380   -0.8500 na        1 SBS     -0.088400
     18 C18        -1.4160   -0.6130   -1.3320 cc        1 SBS     -0.145100
     19 C19        -2.0560   -0.3310   -2.5240 cd        1 SBS     -0.127200
     20 C20        -0.8850    1.5510   -1.8280 ca        1 SBS     -0.058200
     21 C21        -0.4160    2.8700   -1.8610 ca        1 SBS     -0.163000
     22 C22        -0.8000    3.6670   -2.9340 ca        1 SBS     -0.096000
     23 C23        -1.6300    3.1780   -3.9540 ca        1 SBS     -0.140000
     24 C24        -2.1080    1.8720   -3.9310 ca        1 SBS     -0.066000
     25 C25        -1.7390    1.0420   -2.8740 ca        1 SBS     -0.093800
     26 C26         2.4020    0.9320   -1.2140 c3        1 SBS     -0.129100
     27 HC11        0.4880    1.5310    0.4970 h1        1 SBS      0.070200
     28 HC12       -0.0580   -0.1580    0.9710 h1        1 SBS      0.070200
     29 HC2         1.4360   -0.9970   -1.0280 hc        1 SBS      0.090700
     30 HC31        1.8880   -1.3100    1.4170 hx        1 SBS      0.113200
     31 HC32        2.6290    0.3720    1.5120 hx        1 SBS      0.113200
     32 HN4         3.6330   -1.8720   -0.1780 hn        1 SBS      0.468800
     33 HC8         5.2980   -0.8030    4.1220 ha        1 SBS      0.186500
     34 HC9         7.4630    0.2270    4.7590 ha        1 SBS      0.196000
     35 H11         8.7980   -0.0240    0.6240 ha        1 SBS      0.196000
     36 H12         6.6440   -1.0340   -0.0190 ha        1 SBS      0.186500
     37 HN61       11.0620   -0.4630    4.5980 hn        1 SBS      0.472133
     38 HN62       11.5820   -0.6050    3.0440 hn        1 SBS      0.472133
     39 H18        -1.4340   -1.5250   -0.7330 h4        1 SBS      0.164000
     40 H19        -2.7000   -0.9950   -3.0980 ha        1 SBS      0.175000
     41 H21         0.2130    3.2740   -1.0580 ha        1 SBS      0.123000
     42 H22        -0.4520    4.7110   -2.9820 ha        1 SBS      0.143000
     43 H23        -1.9150    3.8470   -4.7820 ha        1 SBS      0.151000
     44 H24        -2.7720    1.4980   -4.7250 ha        1 SBS      0.154000
     45 H261        2.8100    1.7480   -0.5700 hc        1 SBS      0.061033
     46 H262        1.7040    1.4030   -1.9580 hc        1 SBS      0.061033
     47 H263        3.2360    0.4650   -1.7900 hc        1 SBS      0.061033
     48 H042        4.3410   -0.3700   -0.0060 hn        1 SBS      0.468800
     49 HP63       10.2650   -1.4480    3.5510 hn        1 SBS      0.472133
@<TRIPOS>BOND
     1    1    2 1   
     2    1   17 1   
     3    1   27 1   
     4    1   28 1   
     5    2    3 1   
     6    2   26 1   
     7    2   29 1   
     8    3    4 1   
     9    3   30 1   
    10    3   31 1   
    11    4    5 1   
    12    4   32 1   
    13    4   48 1   
    14    5    6 2   
    15    5    7 1   
    16    7    8 ar  
    17    7   12 ar  
    18    8    9 ar  
    19    8   33 1   
    20    9   10 ar  
    21    9   34 1   
    22   10   11 ar  
    23   10   13 1   
    24   11   12 ar  
    25   11   35 1   
    26   12   36 1   
    27   13   14 2   
    28   13   15 2   
    29   13   16 1   
    30   16   37 1   
    31   16   38 1   
    32   16   49 1   
    33   17   18 1   
    34   17   20 1   
    35   18   19 2   
    36   18   39 1   
    37   19   25 1   
    38   19   40 1   
    39   20   21 ar  
    40   20   25 ar  
    41   21   22 ar  
    42   21   41 1   
    43   22   23 ar  
    44   22   42 1   
    45   23   24 ar  
    46   23   43 1   
    47   24   25 ar  
    48   24   44 1   
    49   26   45 1   
    50   26   46 1   
    51   26   47 1   
@<TRIPOS>SUBSTRUCTURE
     1 SBS         1 TEMP              0 ****  ****    0 ROOT
