@<TRIPOS>MOLECULE
SBS
   47    49     1     0     0
SMALL
bcc


@<TRIPOS>ATOM
      1 C01        -1.4690    0.2090    3.6920 c3        1 SBS      0.049300
      2 C02        -0.7670    0.3180    2.3240 c3        1 SBS     -0.113700
      3 C03        -1.8570    0.2200    1.2420 c3        1 SBS      0.087000
      4 N04        -1.3730    0.3660   -0.1020 n         1 SBS     -0.560900
      5 C05        -1.5860   -0.5940   -1.0730 c         1 SBS      0.661700
      6 O06        -2.3410   -1.5670   -0.8760 o         1 SBS     -0.589100
      7 C07        -0.9230   -0.3810   -2.3960 ca        1 SBS     -0.079600
      8 C08        -1.6590   -0.6390   -3.5570 ca        1 SBS     -0.122000
      9 C09        -1.0640   -0.4600   -4.8040 ca        1 SBS     -0.026500
     10 C10         0.2610   -0.0280   -4.9130 ca        1 SBS     -0.360500
     11 C11         0.9920    0.2030   -3.7430 ca        1 SBS     -0.026500
     12 C12         0.4100    0.0310   -2.4890 ca        1 SBS     -0.122000
     13 S13         0.9860    0.1690   -6.4370 sy        1 SBS      1.524200
     14 O14         2.3810    0.0420   -6.2770 o         1 SBS     -0.653800
     15 O15         0.3400   -0.6930   -7.3460 o         1 SBS     -0.653800
     16 NP6         0.6340    1.6860   -6.8080 n3        1 SBS     -1.027700
     17 NP7        -0.7050    0.6600    4.8140 na        1 SBS     -0.080400
     18 C18        -0.5390    2.0060    5.1840 cc        1 SBS     -0.110100
     19 C19         0.3980    2.1150    6.2020 cd        1 SBS     -0.182200
     20 C20         0.1910   -0.1080    5.5740 ca        1 SBS     -0.042200
     21 C21         0.4430   -1.4890    5.5900 ca        1 SBS     -0.146000
     22 C22         1.3730   -1.9670    6.5010 ca        1 SBS     -0.113000
     23 C23         2.0490   -1.1080    7.3850 ca        1 SBS     -0.158000
     24 C24         1.8130    0.2590    7.3810 ca        1 SBS     -0.083000
     25 C25         0.8860    0.7820    6.4790 ca        1 SBS     -0.095800
     26 C26         0.2720   -0.7660    2.1650 c3        1 SBS     -0.099100
     27 HC11       -2.4180    0.8200    3.6620 h1        1 SBS      0.062700
     28 HC12       -1.7470   -0.8710    3.8660 h1        1 SBS      0.062700
     29 HC2        -0.2650    1.3220    2.2470 hc        1 SBS      0.057700
     30 HC31       -2.3850   -0.7730    1.3370 h1        1 SBS      0.063700
     31 HC32       -2.6140    1.0380    1.4250 h1        1 SBS      0.063700
     32 HN4        -0.6980    1.0740   -0.2680 hn        1 SBS      0.310500
     33 HC8        -2.6970   -0.9990   -3.4740 ha        1 SBS      0.153000
     34 HC9        -1.6390   -0.6850   -5.7210 ha        1 SBS      0.159000
     35 H11         2.0520    0.5060   -3.8180 ha        1 SBS      0.159000
     36 H12         1.0120    0.2000   -1.5830 ha        1 SBS      0.153000
     37 HN61        1.2180    2.4530   -6.5880 hn        1 SBS      0.449300
     38 HN62       -0.1740    1.9530   -7.3120 hn        1 SBS      0.449300
     39 H18        -1.1320    2.7840    4.6990 h4        1 SBS      0.162000
     40 H19         0.7100    3.0230    6.7090 ha        1 SBS      0.157000
     41 H21        -0.0790   -2.1670    4.9020 ha        1 SBS      0.133000
     42 H22         1.5900   -3.0450    6.5340 ha        1 SBS      0.130000
     43 H23         2.7770   -1.5340    8.0900 ha        1 SBS      0.130000
     44 H24         2.3410    0.9270    8.0760 ha        1 SBS      0.134000
     45 H261       -0.2130   -1.7710    2.0960 hc        1 SBS      0.045033
     46 H262        0.8750   -0.6020    1.2390 hc        1 SBS      0.045033
     47 H263        0.9680   -0.7710    3.0400 hc        1 SBS      0.045033
@<TRIPOS>BOND
     1    1    2 1   
     2    1   17 1   
     3    1   27 1   
     4    1   28 1   
     5    2    3 1   
     6    2   26 1   
     7    2   29 1   
     8    3    4 1   
     9    3   30 1   
    10    3   31 1   
    11    4    5 1   
    12    4   32 1   
    13    5    6 2   
    14    5    7 1   
    15    7    8 ar  
    16    7   12 ar  
    17    8    9 ar  
    18    8   33 1   
    19    9   10 ar  
    20    9   34 1   
    21   10   11 ar  
    22   10   13 1   
    23   11   12 ar  
    24   11   35 1   
    25   12   36 1   
    26   13   14 2   
    27   13   15 2   
    28   13   16 1   
    29   16   37 1   
    30   16   38 1   
    31   17   18 1   
    32   17   20 1   
    33   18   19 2   
    34   18   39 1   
    35   19   25 1   
    36   19   40 1   
    37   20   21 ar  
    38   20   25 ar  
    39   21   22 ar  
    40   21   41 1   
    41   22   23 ar  
    42   22   42 1   
    43   23   24 ar  
    44   23   43 1   
    45   24   25 ar  
    46   24   44 1   
    47   26   45 1   
    48   26   46 1   
    49   26   47 1   
@<TRIPOS>SUBSTRUCTURE
     1 SBS         1 TEMP              0 ****  ****    0 ROOT
