@<TRIPOS>MOLECULE
SBT
   15    14     1     0     0
SMALL
bcc


@<TRIPOS>ATOM
      1 C1         -1.7650   -0.0300   -0.5420 c3        1 SBT     -0.131100
      2 C2         -0.2650   -0.0840   -0.5680 c3        1 SBT      0.138100
      3 C3          0.2780   -0.1240    0.8650 c3        1 SBT     -0.074400
      4 C4          1.6400    0.5210    0.9000 c3        1 SBT     -0.092100
      5 OH          0.1450   -1.2300   -1.2550 oh        1 SBT     -0.600800
      6 H11        -2.0560    0.8400   -0.2000 hc        1 SBT      0.042033
      7 H12        -2.1160   -0.7580    0.0530 hc        1 SBT      0.042033
      8 H13        -2.1150   -0.1570   -1.4640 hc        1 SBT      0.042033
      9 H2          0.1020    0.7590   -1.0520 h1        1 SBT      0.030700
     10 H31        -0.3180    0.3520    1.4470 hc        1 SBT      0.048200
     11 H32         0.3470   -1.0310    1.1550 hc        1 SBT      0.048200
     12 H41         2.0070    0.4800    1.8280 hc        1 SBT      0.036700
     13 H42         2.2350    0.0500    0.2960 hc        1 SBT      0.036700
     14 H43         1.5650    1.4360    0.6260 hc        1 SBT      0.036700
     15 HO          0.3150   -1.0250   -2.0890 ho        1 SBT      0.397000
@<TRIPOS>BOND
     1    1    2 1   
     2    1    6 1   
     3    1    7 1   
     4    1    8 1   
     5    2    3 1   
     6    2    5 1   
     7    2    9 1   
     8    3    4 1   
     9    3   10 1   
    10    3   11 1   
    11    4   12 1   
    12    4   13 1   
    13    4   14 1   
    14    5   15 1   
@<TRIPOS>SUBSTRUCTURE
     1 SBT         1 TEMP              0 ****  ****    0 ROOT
