@<TRIPOS>MOLECULE
SBT
   15    14     1     0     0
SMALL
bcc


@<TRIPOS>ATOM
      1 C1          0.0530    0.0790   -0.0380 c3        1 SBT     -0.131100
      2 C2          1.5690    0.0170   -0.0040 c3        1 SBT      0.138100
      3 C3          2.0820   -0.1790    1.4190 c3        1 SBT     -0.074400
      4 C4          3.5680    0.0460    1.5100 c3        1 SBT     -0.092100
      5 OH          2.0490   -1.0870   -0.7670 oh        1 SBT     -0.600800
      6 H11        -0.3100    0.9410    0.5700 hc        1 SBT      0.042033
      7 H12        -0.3070    0.2050   -1.0880 hc        1 SBT      0.042033
      8 H13        -0.3820   -0.8630    0.3740 hc        1 SBT      0.042033
      9 H2          1.9960    0.9670   -0.4350 h1        1 SBT      0.030700
     10 H31         1.5410    0.5360    2.0920 hc        1 SBT      0.048200
     11 H32         1.8360   -1.2220    1.7520 hc        1 SBT      0.048200
     12 H41         3.8270    1.1010    1.2500 hc        1 SBT      0.036700
     13 H42         3.9290   -0.1600    2.5470 hc        1 SBT      0.036700
     14 H43         4.1040   -0.6330    0.8030 hc        1 SBT      0.036700
     15 HO          1.6740   -0.9980   -1.6500 ho        1 SBT      0.397000
@<TRIPOS>BOND
     1    1    2 1   
     2    1    6 1   
     3    1    7 1   
     4    1    8 1   
     5    2    3 1   
     6    2    5 1   
     7    2    9 1   
     8    3    4 1   
     9    3   10 1   
    10    3   11 1   
    11    4   12 1   
    12    4   13 1   
    13    4   14 1   
    14    5   15 1   
@<TRIPOS>SUBSTRUCTURE
     1 SBT         1 TEMP              0 ****  ****    0 ROOT
