@<TRIPOS>MOLECULE
SBT
   15    14     1     0     0
SMALL
bcc


@<TRIPOS>ATOM
      1 C1          0.0580    0.0780   -0.0540 c3        1 SBT     -0.131100
      2 C2          1.5730   -0.0020   -0.0090 c3        1 SBT      0.138100
      3 C3          2.0770   -0.1490    1.4240 c3        1 SBT     -0.074400
      4 C4          3.5650    0.0600    1.5140 c3        1 SBT     -0.092100
      5 OH          2.0430   -1.1390   -0.7260 oh        1 SBT     -0.600800
      6 H11        -0.2970    0.9670    0.5190 hc        1 SBT      0.042033
      7 H12        -0.2950    0.1690   -1.1090 hc        1 SBT      0.042033
      8 H13        -0.3910   -0.8420    0.3910 hc        1 SBT      0.042033
      9 H2          2.0140    0.9270   -0.4740 h1        1 SBT      0.030700
     10 H31         1.5420    0.5980    2.0660 hc        1 SBT      0.048200
     11 H32         1.8150   -1.1750    1.7950 hc        1 SBT      0.048200
     12 H41         3.8390    1.1000    1.2150 hc        1 SBT      0.036700
     13 H42         3.9170   -0.1110    2.5600 hc        1 SBT      0.036700
     14 H43         4.0950   -0.6530    0.8360 hc        1 SBT      0.036700
     15 HO          1.6740   -1.0790   -1.6150 ho        1 SBT      0.397000
@<TRIPOS>BOND
     1    1    2 1   
     2    1    6 1   
     3    1    7 1   
     4    1    8 1   
     5    2    3 1   
     6    2    5 1   
     7    2    9 1   
     8    3    4 1   
     9    3   10 1   
    10    3   11 1   
    11    4   12 1   
    12    4   13 1   
    13    4   14 1   
    14    5   15 1   
@<TRIPOS>SUBSTRUCTURE
     1 SBT         1 TEMP              0 ****  ****    0 ROOT
