@<TRIPOS>MOLECULE
SBT
   15    14     1     0     0
SMALL
bcc


@<TRIPOS>ATOM
      1 C1          0.7350   -0.0010   -1.7470 c3        1 SBT     -0.129100
      2 C2         -0.0100   -0.3150   -0.4630 c3        1 SBT      0.134100
      3 C3          0.7000    0.3020    0.7390 c3        1 SBT     -0.111400
      4 C4          0.0690   -0.1290    2.0370 c3        1 SBT     -0.092100
      5 OH         -1.3610    0.1170   -0.5450 oh        1 SBT     -0.596800
      6 H11         1.7460   -0.4710   -1.7280 hc        1 SBT      0.042033
      7 H12         0.1670   -0.3970   -2.6230 hc        1 SBT      0.042033
      8 H13         0.8550    1.1020   -1.8720 hc        1 SBT      0.042033
      9 H2         -0.0990   -1.4310   -0.3260 h1        1 SBT      0.075700
     10 H31         0.6650    1.4200    0.6530 hc        1 SBT      0.042200
     11 H32         1.7780   -0.0040    0.7160 hc        1 SBT      0.042200
     12 H41         0.5380    0.4080    2.8960 hc        1 SBT      0.038033
     13 H42        -1.0260    0.0960    2.0260 hc        1 SBT      0.038033
     14 H43         0.1980   -1.2270    2.1930 hc        1 SBT      0.038033
     15 HO         -1.3490    1.0760   -0.6420 ho        1 SBT      0.395000
@<TRIPOS>BOND
     1    1    2 1   
     2    1    6 1   
     3    1    7 1   
     4    1    8 1   
     5    2    3 1   
     6    2    5 1   
     7    2    9 1   
     8    3    4 1   
     9    3   10 1   
    10    3   11 1   
    11    4   12 1   
    12    4   13 1   
    13    4   14 1   
    14    5   15 1   
@<TRIPOS>SUBSTRUCTURE
     1 SBT         1 TEMP              0 ****  ****    0 ROOT
