@<TRIPOS>MOLECULE
SBU
   14    13     1     0     0
SMALL
bcc


@<TRIPOS>ATOM
      1 C1          1.9150   -0.1340   -0.0000 c3        1 SBU     -0.092100
      2 C2          0.5550    0.5150    0.0000 c3        1 SBU     -0.080400
      3 C3         -0.5550   -0.5150    0.0000 c3        1 SBU     -0.080400
      4 C4         -1.9150    0.1340   -0.0000 c3        1 SBU     -0.092100
      5 H11         2.0450   -0.7750    0.9050 hc        1 SBU      0.032367
      6 H12         2.0450   -0.7750   -0.9050 hc        1 SBU      0.032367
      7 H13         2.7160    0.6440   -0.0000 hc        1 SBU      0.032367
      8 H2          0.4510    1.1740   -0.9020 hc        1 SBU      0.038700
      9 H21         0.4510    1.1740    0.9020 hc        1 SBU      0.038700
     10 H31        -0.4510   -1.1740   -0.9020 hc        1 SBU      0.038700
     11 H32        -0.4510   -1.1740    0.9020 hc        1 SBU      0.038700
     12 H41        -2.0450    0.7750    0.9050 hc        1 SBU      0.032367
     13 H42        -2.0450    0.7750   -0.9050 hc        1 SBU      0.032367
     14 H43        -2.7160   -0.6440   -0.0000 hc        1 SBU      0.032367
@<TRIPOS>BOND
     1    1    2 1   
     2    1    5 1   
     3    1    6 1   
     4    1    7 1   
     5    2    3 1   
     6    2    8 1   
     7    2    9 1   
     8    3    4 1   
     9    3   10 1   
    10    3   11 1   
    11    4   12 1   
    12    4   13 1   
    13    4   14 1   
@<TRIPOS>SUBSTRUCTURE
     1 SBU         1 TEMP              0 ****  ****    0 ROOT
