@<TRIPOS>MOLECULE
SBW
   35    36     1     0     0
SMALL
bcc


@<TRIPOS>ATOM
      1 O04        -4.9120   -1.4050   -1.1120 o         1 SBW     -0.654800
      2 S01        -4.7950   -0.5900    0.0340 sy        1 SBW      1.525200
      3 O03        -5.6390    0.5340    0.1350 o         1 SBW     -0.654800
      4 N02        -4.9560   -1.4930    1.3440 n3        1 SBW     -1.026700
      5 C16        -3.1870   -0.0530    0.1330 ca        1 SBW     -0.361500
      6 C15        -2.1570   -0.7740   -0.4800 ca        1 SBW     -0.026000
      7 C14        -0.8380   -0.3290   -0.4230 ca        1 SBW     -0.122500
      8 C17        -2.8710    1.1320    0.8060 ca        1 SBW     -0.026000
      9 C18        -1.5560    1.5870    0.8750 ca        1 SBW     -0.122500
     10 C13        -0.5380    0.8550    0.2570 ca        1 SBW     -0.079600
     11 C12         0.8680    1.3550    0.3630 c         1 SBW      0.659700
     12 O02         1.3280    1.7630    1.4490 o         1 SBW     -0.598100
     13 N01         1.6050    1.4040   -0.8050 n         1 SBW     -0.549900
     14 C11         2.9990    1.7600   -0.8110 c3        1 SBW      0.129300
     15 C09         3.9450    0.6070   -0.6140 ca        1 SBW     -0.090300
     16 C08         4.7140    0.1260   -1.6750 ca        1 SBW     -0.156000
     17 C07         5.6080   -0.9270   -1.4700 ca        1 SBW     -0.101000
     18 C06         5.7420   -1.5110   -0.2150 ca        1 SBW     -0.150000
     19 C05         4.9630   -1.0220    0.8480 ca        1 SBW      0.123100
     20 O01         5.1330   -1.6370    2.0670 oh        1 SBW     -0.498100
     21 C10         4.0640    0.0340    0.6560 ca        1 SBW     -0.199000
     22 H1         -4.7770   -2.4650    1.3660 hn        1 SBW      0.449800
     23 H2         -5.2680   -1.1440    2.2150 hn        1 SBW      0.449800
     24 H3         -2.3980   -1.7000   -1.0320 ha        1 SBW      0.158000
     25 H4         -0.0430   -0.9190   -0.9030 ha        1 SBW      0.153000
     26 H5         -3.6800    1.7230    1.2720 ha        1 SBW      0.158000
     27 H6         -1.3090    2.5120    1.4200 ha        1 SBW      0.153000
     28 H7          1.2610    0.9140   -1.5990 hn        1 SBW      0.311500
     29 H8          3.2160    2.2570   -1.8010 h1        1 SBW      0.072700
     30 H9          3.1750    2.5130    0.0130 h1        1 SBW      0.072700
     31 H10         4.6220    0.5790   -2.6730 ha        1 SBW      0.132000
     32 H11         6.2140   -1.2990   -2.3100 ha        1 SBW      0.136000
     33 H12         6.4420   -2.3400   -0.0400 ha        1 SBW      0.152000
     34 H13         4.5620   -1.1900    2.7090 ho        1 SBW      0.423000
     35 H14         3.4550    0.4190    1.4900 ha        1 SBW      0.158000
@<TRIPOS>BOND
     1    1    2 2   
     2    2    3 2   
     3    2    4 1   
     4    2    5 1   
     5    4   22 1   
     6    4   23 1   
     7    5    6 ar  
     8    5    8 ar  
     9    6    7 ar  
    10    6   24 1   
    11    7   10 ar  
    12    7   25 1   
    13    8    9 ar  
    14    8   26 1   
    15    9   10 ar  
    16    9   27 1   
    17   10   11 1   
    18   11   12 2   
    19   11   13 1   
    20   13   14 1   
    21   13   28 1   
    22   14   15 1   
    23   14   29 1   
    24   14   30 1   
    25   15   16 ar  
    26   15   21 ar  
    27   16   17 ar  
    28   16   31 1   
    29   17   18 ar  
    30   17   32 1   
    31   18   19 ar  
    32   18   33 1   
    33   19   20 1   
    34   19   21 ar  
    35   20   34 1   
    36   21   35 1   
@<TRIPOS>SUBSTRUCTURE
     1 SBW         1 TEMP              0 ****  ****    0 ROOT
