@<TRIPOS>MOLECULE
SBW
   37    38     1     0     0
SMALL
bcc


@<TRIPOS>ATOM
      1 O04         0.4340   -0.9220   -1.7460 o         1 SBW     -0.533800
      2 S01         1.1880   -0.2800   -0.7920 sy        1 SBW      1.462200
      3 O03         0.9530   -0.3350    0.5610 o         1 SBW     -0.533800
      4 N02         2.8010   -1.2500   -0.9060 n4        1 SBW     -0.801500
      5 C16         1.7260    1.1900   -1.2910 ca        1 SBW     -0.459500
      6 C15         1.6020    1.5820   -2.6380 ca        1 SBW      0.011500
      7 C14         1.9380    2.8710   -3.0480 ca        1 SBW     -0.096000
      8 C17         2.2090    2.1320   -0.3650 ca        1 SBW      0.011500
      9 C18         2.5590    3.4210   -0.7650 ca        1 SBW     -0.096000
     10 C13         2.4150    3.7920   -2.1090 ca        1 SBW     -0.080600
     11 C12         2.8320    5.1630   -2.4880 c         1 SBW      0.537700
     12 O02         3.8180    5.7510   -2.0690 o         1 SBW     -0.364100
     13 N01         1.9540    5.9070   -3.4500 n4        1 SBW     -0.678800
     14 C11         2.6190    6.0780   -4.8010 c3        1 SBW      0.187100
     15 C09         1.6760    6.7170   -5.7560 ca        1 SBW     -0.167300
     16 C08         1.8640    8.0430   -6.1530 ca        1 SBW     -0.116000
     17 C07         0.9970    8.6130   -7.0910 ca        1 SBW     -0.070000
     18 C06        -0.0580    7.8790   -7.6190 ca        1 SBW     -0.149000
     19 C05        -0.2470    6.5450   -7.2070 ca        1 SBW      0.154100
     20 O01        -1.2640    5.7510   -7.6640 oh        1 SBW     -0.484100
     21 C10         0.6210    5.9560   -6.2770 ca        1 SBW     -0.170000
     22 H1          2.7010   -2.0390   -1.5520 hn        1 SBW      0.471467
     23 H2          3.0470   -1.6430    0.0080 hn        1 SBW      0.471467
     24 H3          1.2070    0.8650   -3.3860 ha        1 SBW      0.196000
     25 H4          1.8370    3.1350   -4.1150 ha        1 SBW      0.186500
     26 H5          2.2950    1.8630    0.7080 ha        1 SBW      0.196000
     27 H6          2.9510    4.1420   -0.0220 ha        1 SBW      0.186500
     28 H7          1.0580    5.4220   -3.5780 hn        1 SBW      0.471300
     29 H8          2.9180    5.0510   -5.1570 hx        1 SBW      0.113200
     30 H9          3.5460    6.7040   -4.6440 hx        1 SBW      0.113200
     31 H10         2.6990    8.6380   -5.7530 ha        1 SBW      0.154000
     32 H11         1.1560    9.6560   -7.4150 ha        1 SBW      0.175000
     33 H12        -0.7390    8.3310   -8.3590 ha        1 SBW      0.173000
     34 H13        -1.7660    6.2410   -8.3370 ho        1 SBW      0.452000
     35 H14         0.4750    4.9040   -6.0000 ha        1 SBW      0.136000
     36 H023        3.5970   -0.7010   -1.2210 hn        1 SBW      0.471467
     37 H012        1.7580    6.8460   -3.0710 hn        1 SBW      0.471300
@<TRIPOS>BOND
     1    1    2 2   
     2    2    3 2   
     3    2    4 1   
     4    2    5 1   
     5    4   22 1   
     6    4   23 1   
     7    4   36 1   
     8    5    6 ar  
     9    5    8 ar  
    10    6    7 ar  
    11    6   24 1   
    12    7   10 ar  
    13    7   25 1   
    14    8    9 ar  
    15    8   26 1   
    16    9   10 ar  
    17    9   27 1   
    18   10   11 1   
    19   11   12 2   
    20   11   13 1   
    21   13   14 1   
    22   13   28 1   
    23   13   37 1   
    24   14   15 1   
    25   14   29 1   
    26   14   30 1   
    27   15   16 ar  
    28   15   21 ar  
    29   16   17 ar  
    30   16   31 1   
    31   17   18 ar  
    32   17   32 1   
    33   18   19 ar  
    34   18   33 1   
    35   19   20 1   
    36   19   21 ar  
    37   20   34 1   
    38   21   35 1   
@<TRIPOS>SUBSTRUCTURE
     1 SBW         1 TEMP              0 ****  ****    0 ROOT
