@<TRIPOS>MOLECULE
SBW
   35    27     1     0     0
SMALL
bcc


@<TRIPOS>ATOM
      1 O04        -3.3380    4.6450    2.8010 o         1 SBW     -0.934000
      2 S01        -2.2220    4.1580    3.5630 ss        1 SBW      2.864000
      3 O03        -2.8650    3.7890    4.7940 o         1 SBW     -0.934000
      4 N02        -1.1050    5.3380    3.8050 n2        1 SBW     -0.953000
      5 C16        -1.4730    2.7540    2.7820 c1        1 SBW     -0.434000
      6 C15        -1.0920    1.6590    3.5420 c1        1 SBW     -0.068000
      7 C14        -0.5410    0.5460    2.9260 c1        1 SBW     -0.068000
      8 C17        -1.3030    2.7350    1.4060 c1        1 SBW     -0.079500
      9 C18        -0.7520    1.6220    0.7910 c1        1 SBW     -0.079500
     10 C13        -0.3710    0.5270    1.5510 c1        1 SBW     -0.434000
     11 C12         0.2680   -0.6710    0.8840 c1        1 SBW      0.330000
     12 O02         0.6310   -1.6170    1.5540 o         1 SBW     -0.352000
     13 N01         0.4420   -0.6900   -0.5240 n2        1 SBW     -0.357000
     14 C11         1.6480   -1.1950   -1.0850 c3        1 SBW      0.002000
     15 C09         1.3190   -2.2310   -2.1370 c2        1 SBW     -0.083000
     16 C08         0.9970   -3.5250   -1.7590 c2        1 SBW     -0.148000
     17 C07         0.7390   -4.4850   -2.7240 c1        1 SBW     -0.098000
     18 C06         0.8030   -4.1510   -4.0680 c1        1 SBW     -0.149000
     19 C05         1.1250   -2.8570   -4.4470 c1        1 SBW      0.076000
     20 O01         1.1630   -2.5120   -5.8100 oh        1 SBW     -0.251000
     21 C10         1.3830   -1.8970   -3.4810 c1        1 SBW     -0.204000
     22 H1         -1.1930    6.1430    3.3820 hn        1 SBW      0.245000
     23 H2         -0.4040    5.1940    4.3730 hn        1 SBW      0.245000
     24 H3         -1.2110    1.6720    4.5100 ha        1 SBW      0.159500
     25 H4         -0.2730   -0.2250    3.4620 ha        1 SBW      0.159500
     26 H5         -1.5710    3.5060    0.8710 ha        1 SBW      0.153000
     27 H6         -0.6330    1.6090   -0.1780 ha        1 SBW      0.153000
     28 H7         -0.2160   -0.3730   -1.0690 hn        1 SBW      0.222000
     29 H8          2.1500   -0.4610   -1.4950 h1        1 SBW      0.112000
     30 H9          2.1890   -1.6070   -0.3790 h1        1 SBW      0.112000
     31 H10         0.9520   -3.7590   -0.8130 ha        1 SBW      0.153000
     32 H11         0.5120   -5.3960   -2.4580 ha        1 SBW      0.138000
     33 H12         0.6220   -4.8280   -4.7480 ha        1 SBW      0.152000
     34 H13         2.0090   -2.4360   -6.0730 ho        1 SBW      0.217000
     35 H14         1.6100   -0.9860   -3.7470 ha        1 SBW      0.132000
@<TRIPOS>BOND
     1    1    2 1   
     2    2    3 1   
     3    4   22 1   
     4    4   23 1   
     5    5    8 1   
     6    6    7 1   
     7    6   24 1   
     8    7   25 1   
     9    8   26 1   
    10    9   10 1   
    11    9   27 1   
    12   11   12 1   
    13   13   14 1   
    14   13   28 1   
    15   14   15 1   
    16   14   29 1   
    17   14   30 1   
    18   15   16 1   
    19   15   21 1   
    20   16   17 1   
    21   16   31 1   
    22   17   32 1   
    23   18   19 1   
    24   18   33 1   
    25   19   20 1   
    26   20   34 1   
    27   21   35 1   
@<TRIPOS>SUBSTRUCTURE
     1 SBW         1 TEMP              0 ****  ****    0 ROOT
