@<TRIPOS>MOLECULE
SBW
   37    38     1     0     0
SMALL
bcc


@<TRIPOS>ATOM
      1 O04         0.4100   -0.8860   -1.6640 o         1 SBW     -0.533800
      2 S01         1.1930   -0.2430   -0.7350 sy        1 SBW      1.462200
      3 O03         0.9880   -0.2800    0.6240 o         1 SBW     -0.533800
      4 N02         2.7910   -1.2370   -0.8730 nz        1 SBW     -0.801500
      5 C16         1.7400    1.2140   -1.2620 ca        1 SBW     -0.459500
      6 C15         1.5920    1.5930   -2.6100 ca        1 SBW      0.011500
      7 C14         1.9360    2.8710   -3.0420 ca        1 SBW     -0.096000
      8 C17         2.2560    2.1590   -0.3580 ca        1 SBW      0.011500
      9 C18         2.6150    3.4390   -0.7800 ca        1 SBW     -0.096000
     10 C13         2.4460    3.7960   -2.1240 ca        1 SBW     -0.080600
     11 C12         2.8740    5.1580   -2.5280 c         1 SBW      0.537700
     12 O02         3.8780    5.7360   -2.1390 o         1 SBW     -0.364100
     13 N01         1.9840    5.9030   -3.4770 ny        1 SBW     -0.678800
     14 C11         2.6190    6.0510   -4.8450 c3        1 SBW      0.187100
     15 C09         1.6630    6.6950   -5.7840 ca        1 SBW     -0.167300
     16 C08         1.8610    8.0140   -6.1990 ca        1 SBW     -0.116000
     17 C07         0.9810    8.5880   -7.1220 ca        1 SBW     -0.070000
     18 C06        -0.0960    7.8640   -7.6190 ca        1 SBW     -0.149000
     19 C05        -0.2940    6.5370   -7.1890 ca        1 SBW      0.154100
     20 O01        -1.3330    5.7540   -7.6150 oh        1 SBW     -0.484100
     21 C10         0.5870    5.9450   -6.2730 ca        1 SBW     -0.170000
     22 H1          2.6650   -2.0310   -1.5070 hn        1 SBW      0.471467
     23 H2          3.0510   -1.6240    0.0400 hn        1 SBW      0.471467
     24 H3          1.1710    0.8720   -3.3410 ha        1 SBW      0.196000
     25 H4          1.8150    3.1260   -4.1100 ha        1 SBW      0.187000
     26 H5          2.3630    1.9000    0.7160 ha        1 SBW      0.196000
     27 H6          3.0340    4.1620   -0.0540 ha        1 SBW      0.187000
     28 H7          1.0780    5.4290   -3.5800 hn        1 SBW      0.471300
     29 H8          2.8960    5.0170   -5.1970 hx        1 SBW      0.113200
     30 H9          3.5580    6.6650   -4.7150 hx        1 SBW      0.113200
     31 H10         2.7140    8.6010   -5.8230 ha        1 SBW      0.154000
     32 H11         1.1470    9.6260   -7.4600 ha        1 SBW      0.175000
     33 H12        -0.7880    8.3190   -8.3470 ha        1 SBW      0.173000
     34 H13        -1.8430    6.2440   -8.2800 ho        1 SBW      0.452000
     35 H14         0.4310    4.8970   -5.9820 ha        1 SBW      0.136000
     36 H023        3.5860   -0.7020   -1.2120 hn        1 SBW      0.471467
     37 H012        1.8090    6.8490   -3.1040 hn        1 SBW      0.471300
@<TRIPOS>BOND
     1    1    2 2   
     2    2    3 2   
     3    2    4 1   
     4    2    5 1   
     5    4   22 1   
     6    4   23 1   
     7    4   36 1   
     8    5    6 ar  
     9    5    8 ar  
    10    6    7 ar  
    11    6   24 1   
    12    7   10 ar  
    13    7   25 1   
    14    8    9 ar  
    15    8   26 1   
    16    9   10 ar  
    17    9   27 1   
    18   10   11 1   
    19   11   12 2   
    20   11   13 1   
    21   13   14 1   
    22   13   28 1   
    23   13   37 1   
    24   14   15 1   
    25   14   29 1   
    26   14   30 1   
    27   15   16 ar  
    28   15   21 ar  
    29   16   17 ar  
    30   16   31 1   
    31   17   18 ar  
    32   17   32 1   
    33   18   19 ar  
    34   18   33 1   
    35   19   20 1   
    36   19   21 ar  
    37   20   34 1   
    38   21   35 1   
@<TRIPOS>SUBSTRUCTURE
     1 SBW         1 TEMP              0 ****  ****    0 ROOT
