@<TRIPOS>MOLECULE
SBW
   37    38     1     0     0
SMALL
bcc


@<TRIPOS>ATOM
      1 O04         0.4920   -0.9430   -1.7480 o         1 SBW     -0.533800
      2 S01         1.2290   -0.2880   -0.7910 sy        1 SBW      1.462200
      3 O03         0.9860   -0.3430    0.5610 o         1 SBW     -0.533800
      4 N02         2.8570   -1.2360   -0.8900 n4        1 SBW     -0.801500
      5 C16         1.7510    1.1880   -1.2890 ca        1 SBW     -0.459500
      6 C15         1.6310    1.5760   -2.6370 ca        1 SBW      0.011500
      7 C14         1.9530    2.8680   -3.0480 ca        1 SBW     -0.096000
      8 C17         2.2140    2.1390   -0.3610 ca        1 SBW      0.011500
      9 C18         2.5500    3.4320   -0.7620 ca        1 SBW     -0.096000
     10 C13         2.4110    3.7980   -2.1070 ca        1 SBW     -0.080600
     11 C12         2.8120    5.1740   -2.4870 c         1 SBW      0.537700
     12 O02         3.7890    5.7740   -2.0650 o         1 SBW     -0.364100
     13 N01         1.9280    5.9050   -3.4530 n4        1 SBW     -0.678800
     14 C11         2.5970    6.0860   -4.8000 c3        1 SBW      0.187100
     15 C09         1.6530    6.7180   -5.7590 ca        1 SBW     -0.167300
     16 C08         1.8290    8.0470   -6.1500 ca        1 SBW     -0.116000
     17 C07         0.9610    8.6110   -7.0910 ca        1 SBW     -0.070000
     18 C06        -0.0840    7.8670   -7.6270 ca        1 SBW     -0.149000
     19 C05        -0.2600    6.5300   -7.2210 ca        1 SBW      0.154100
     20 O01        -1.2660    5.7270   -7.6860 oh        1 SBW     -0.484100
     21 C10         0.6100    5.9480   -6.2870 ca        1 SBW     -0.169000
     22 H1          2.7720   -2.0270   -1.5350 hn        1 SBW      0.471467
     23 H2          3.1010   -1.6240    0.0260 hn        1 SBW      0.471467
     24 H3          1.2520    0.8520   -3.3870 ha        1 SBW      0.196000
     25 H4          1.8560    3.1290   -4.1160 ha        1 SBW      0.187000
     26 H5          2.2960    1.8730    0.7130 ha        1 SBW      0.196000
     27 H6          2.9270    4.1600   -0.0180 ha        1 SBW      0.187000
     28 H7          1.7170    6.8410   -3.0750 hn        1 SBW      0.470800
     29 H8          3.5170    6.7210   -4.6380 hx        1 SBW      0.113200
     30 H9          2.9090    5.0630   -5.1580 hx        1 SBW      0.113200
     31 H10         2.6550    8.6500   -5.7430 ha        1 SBW      0.153000
     32 H11         1.1100    9.6570   -7.4110 ha        1 SBW      0.175000
     33 H12        -0.7660    8.3140   -8.3700 ha        1 SBW      0.173000
     34 H13        -1.7700    6.2130   -8.3600 ho        1 SBW      0.452000
     35 H14         0.4730    4.8920   -6.0150 ha        1 SBW      0.136000
     36 H023        3.6470   -0.6760   -1.2010 hn        1 SBW      0.471467
     37 H012        1.0400    5.4070   -3.5860 hn        1 SBW      0.470800
@<TRIPOS>BOND
     1    1    2 2   
     2    2    3 2   
     3    2    4 1   
     4    2    5 1   
     5    4   22 1   
     6    4   23 1   
     7    4   36 1   
     8    5    6 ar  
     9    5    8 ar  
    10    6    7 ar  
    11    6   24 1   
    12    7   10 ar  
    13    7   25 1   
    14    8    9 ar  
    15    8   26 1   
    16    9   10 ar  
    17    9   27 1   
    18   10   11 1   
    19   11   12 2   
    20   11   13 1   
    21   13   14 1   
    22   13   28 1   
    23   13   37 1   
    24   14   15 1   
    25   14   29 1   
    26   14   30 1   
    27   15   16 ar  
    28   15   21 ar  
    29   16   17 ar  
    30   16   31 1   
    31   17   18 ar  
    32   17   32 1   
    33   18   19 ar  
    34   18   33 1   
    35   19   20 1   
    36   19   21 ar  
    37   20   34 1   
    38   21   35 1   
@<TRIPOS>SUBSTRUCTURE
     1 SBW         1 TEMP              0 ****  ****    0 ROOT
