@<TRIPOS>MOLECULE
SBX
   74    76     1     0     0
SMALL
bcc


@<TRIPOS>ATOM
      1 C1         -0.3130    0.1780    0.0560 c         1 SBX      0.615100
      2 C2          1.2050    0.1660   -0.1680 c3        1 SBX      0.069700
      3 C3          1.8640   -0.5250    1.0410 c3        1 SBX     -0.079400
      4 C4          2.2970    0.4160    2.1470 c3        1 SBX     -0.079400
      5 C5          1.6780    1.7890    2.0110 c3        1 SBX     -0.094400
      6 C6          1.9860    2.3900    0.6430 c3        1 SBX      0.093000
      7 N7          1.7270    1.4800   -0.4550 n         1 SBX     -0.453800
      8 O1         -1.0400    1.0920    0.4460 o         1 SBX     -0.545000
      9 O2         -0.8540   -1.0400   -0.2340 os        1 SBX     -0.436900
     10 C8          1.9230    1.8850   -1.7640 c         1 SBX      0.581100
     11 O3          1.7300    1.1180   -2.7270 o         1 SBX     -0.589100
     12 C9          2.4150    3.3120   -2.0010 c         1 SBX      0.523100
     13 O4          3.5560    3.6340   -1.6740 o         1 SBX     -0.496100
     14 C10         1.4350    4.2320   -2.7110 c3        1 SBX     -0.128000
     15 C11         1.8240    5.6800   -2.4060 c3        1 SBX     -0.074400
     16 C12         1.0610    6.7030   -3.2050 c3        1 SBX     -0.091100
     17 C13         0.0210    3.9450   -2.2280 c3        1 SBX     -0.096100
     18 C14         1.5400    3.9390   -4.2040 c3        1 SBX     -0.096100
     19 C15        -2.2770   -1.2270   -0.0700 c3        1 SBX      0.145100
     20 C16        -2.4480   -2.5840    0.6070 c3        1 SBX     -0.083400
     21 C17        -2.0670   -2.5210    2.0730 c3        1 SBX     -0.037100
     22 C18        -2.1710   -3.8530    2.7290 ca        1 SBX     -0.079300
     23 C19        -1.2530   -4.8640    2.4200 ca        1 SBX     -0.127500
     24 C20        -1.3410   -6.1080    3.0390 ca        1 SBX     -0.128000
     25 C21        -2.3470   -6.3550    3.9740 ca        1 SBX     -0.132000
     26 C22        -3.2640   -5.3520    4.2870 ca        1 SBX     -0.128000
     27 C23        -3.1780   -4.1060    3.6680 ca        1 SBX     -0.127500
     28 C24        -2.9640   -1.1810   -1.4400 c3        1 SBX     -0.074700
     29 C25        -3.0110    0.2500   -1.9580 c3        1 SBX     -0.074400
     30 C26        -3.6810    0.3250   -3.3130 c3        1 SBX     -0.073900
     31 C27        -3.0080   -0.5910   -4.3140 c3        1 SBX     -0.078400
     32 C28        -2.9620   -2.0160   -3.8030 c3        1 SBX     -0.073900
     33 C29        -2.2870   -2.0950   -2.4490 c3        1 SBX     -0.074400
     34 H2          1.3790   -0.4860   -1.0830 h1        1 SBX      0.117700
     35 H31         2.7600   -1.0880    0.6660 hc        1 SBX      0.060700
     36 H32         1.1380   -1.2840    1.4370 hc        1 SBX      0.060700
     37 H41         2.0190   -0.0210    3.1420 hc        1 SBX      0.049200
     38 H42         3.4150    0.5170    2.1330 hc        1 SBX      0.049200
     39 H51         2.0860    2.4770    2.7950 hc        1 SBX      0.064200
     40 H52         0.5660    1.7240    2.1520 hc        1 SBX      0.064200
     41 H61         1.3610    3.3200    0.5020 h1        1 SBX      0.052200
     42 H62         3.0740    2.6900    0.6020 h1        1 SBX      0.052200
     43 H111        2.9240    5.8020   -2.6050 hc        1 SBX      0.052200
     44 H112        1.6630    5.8650   -1.3110 hc        1 SBX      0.052200
     45 H121        1.3730    7.7300   -2.8950 hc        1 SBX      0.036700
     46 H122        1.2660    6.5900   -4.2980 hc        1 SBX      0.036700
     47 H123       -0.0400    6.6080   -3.0410 hc        1 SBX      0.036700
     48 H131       -0.7020    4.6170   -2.7500 hc        1 SBX      0.051700
     49 H132       -0.2630    2.8870   -2.4520 hc        1 SBX      0.051700
     50 H133       -0.0630    4.1170   -1.1280 hc        1 SBX      0.051700
     51 H141        2.5260    4.2840   -4.5970 hc        1 SBX      0.051700
     52 H142        0.7270    4.4730   -4.7500 hc        1 SBX      0.051700
     53 H143        1.4360    2.8410   -4.3890 hc        1 SBX      0.051700
     54 H15        -2.6950   -0.4100    0.5840 h1        1 SBX      0.077700
     55 H161       -1.8090   -3.3450    0.0860 hc        1 SBX      0.060200
     56 H162       -3.5170   -2.9020    0.5030 hc        1 SBX      0.060200
     57 H171       -1.0090   -2.1460    2.1570 hc        1 SBX      0.050200
     58 H172       -2.7240   -1.7780    2.6000 hc        1 SBX      0.050200
     59 H19        -0.4590   -4.6700    1.6830 ha        1 SBX      0.131500
     60 H20        -0.6170   -6.8970    2.7910 ha        1 SBX      0.131000
     61 H21        -2.4160   -7.3380    4.4630 ha        1 SBX      0.131000
     62 H22        -4.0580   -5.5430    5.0240 ha        1 SBX      0.131000
     63 H23        -3.9030   -3.3180    3.9200 ha        1 SBX      0.131500
     64 H24        -4.0230   -1.5360   -1.2870 hc        1 SBX      0.053700
     65 H251       -1.9630    0.6490   -2.0250 hc        1 SBX      0.047450
     66 H252       -3.5640    0.8950   -1.2260 hc        1 SBX      0.047450
     67 H261       -4.7610    0.0400   -3.2130 hc        1 SBX      0.038200
     68 H262       -3.6450    1.3820   -3.6870 hc        1 SBX      0.038200
     69 H271       -3.5620   -0.5580   -5.2870 hc        1 SBX      0.041700
     70 H272       -1.9630   -0.2300   -4.5070 hc        1 SBX      0.041700
     71 H281       -2.4050   -2.6590   -4.5330 hc        1 SBX      0.038200
     72 H282       -4.0060   -2.4190   -3.7250 hc        1 SBX      0.038200
     73 H291       -1.2080   -1.8030   -2.5440 hc        1 SBX      0.047450
     74 H292       -2.3200   -3.1520   -2.0750 hc        1 SBX      0.047450
@<TRIPOS>BOND
     1    1    2 1   
     2    1    8 2   
     3    1    9 1   
     4    2    3 1   
     5    2    7 1   
     6    2   34 1   
     7    3    4 1   
     8    3   35 1   
     9    3   36 1   
    10    4    5 1   
    11    4   37 1   
    12    4   38 1   
    13    5    6 1   
    14    5   39 1   
    15    5   40 1   
    16    6    7 1   
    17    6   41 1   
    18    6   42 1   
    19    7   10 1   
    20    9   19 1   
    21   10   11 2   
    22   10   12 1   
    23   12   13 2   
    24   12   14 1   
    25   14   15 1   
    26   14   17 1   
    27   14   18 1   
    28   15   16 1   
    29   15   43 1   
    30   15   44 1   
    31   16   45 1   
    32   16   46 1   
    33   16   47 1   
    34   17   48 1   
    35   17   49 1   
    36   17   50 1   
    37   18   51 1   
    38   18   52 1   
    39   18   53 1   
    40   19   20 1   
    41   19   28 1   
    42   19   54 1   
    43   20   21 1   
    44   20   55 1   
    45   20   56 1   
    46   21   22 1   
    47   21   57 1   
    48   21   58 1   
    49   22   23 ar  
    50   22   27 ar  
    51   23   24 ar  
    52   23   59 1   
    53   24   25 ar  
    54   24   60 1   
    55   25   26 ar  
    56   25   61 1   
    57   26   27 ar  
    58   26   62 1   
    59   27   63 1   
    60   28   29 1   
    61   28   33 1   
    62   28   64 1   
    63   29   30 1   
    64   29   65 1   
    65   29   66 1   
    66   30   31 1   
    67   30   67 1   
    68   30   68 1   
    69   31   32 1   
    70   31   69 1   
    71   31   70 1   
    72   32   33 1   
    73   32   71 1   
    74   32   72 1   
    75   33   73 1   
    76   33   74 1   
@<TRIPOS>SUBSTRUCTURE
     1 SBX         1 TEMP              0 ****  ****    0 ROOT
