@<TRIPOS>MOLECULE
SBX
   74    76     1     0     0
SMALL
bcc


@<TRIPOS>ATOM
      1 C1          0.4430   -0.2040   -0.0050 c         1 SBX      0.615100
      2 C2          1.3620    0.8140    0.6820 c3        1 SBX      0.069700
      3 C3          2.6710    0.9040   -0.1240 c3        1 SBX     -0.079400
      4 C4          3.7720   -0.0210    0.3550 c3        1 SBX     -0.079400
      5 C5          3.2580   -1.0950    1.2860 c3        1 SBX     -0.094400
      6 C6          2.5200   -0.4780    2.4710 c3        1 SBX      0.093000
      7 N7          1.5500    0.5250    2.0840 n         1 SBX     -0.453800
      8 O1          0.2180   -1.3790    0.2890 o         1 SBX     -0.545000
      9 O2         -0.1650    0.3500   -1.0930 os        1 SBX     -0.436900
     10 C8          0.7730    1.1560    3.0400 c         1 SBX      0.581100
     11 O3         -0.0540    2.0380    2.7390 o         1 SBX     -0.589100
     12 C9          0.9760    0.7560    4.5000 c         1 SBX      0.523100
     13 O4          2.0210    1.0460    5.0800 o         1 SBX     -0.496100
     14 C10        -0.2060    0.0620    5.1580 c3        1 SBX     -0.128000
     15 C11         0.3070   -0.7220    6.3690 c3        1 SBX     -0.074400
     16 C12        -0.7820   -1.2970    7.2340 c3        1 SBX     -0.091100
     17 C13        -0.8730   -0.8720    4.1600 c3        1 SBX     -0.096100
     18 C14        -1.1870    1.1480    5.5850 c3        1 SBX     -0.096100
     19 C15        -1.0610   -0.4640   -1.8800 c3        1 SBX      0.145100
     20 C16        -0.7280   -0.1660   -3.3390 c3        1 SBX     -0.083400
     21 C17         0.5780   -0.8200   -3.7510 c3        1 SBX     -0.037100
     22 C18         0.9430   -0.4850   -5.1540 ca        1 SBX     -0.079300
     23 C19         1.3600    0.8110   -5.4830 ca        1 SBX     -0.127500
     24 C20         1.7130    1.1250   -6.7940 ca        1 SBX     -0.128000
     25 C21         1.6550    0.1470   -7.7880 ca        1 SBX     -0.132000
     26 C22         1.2420   -1.1450   -7.4660 ca        1 SBX     -0.128000
     27 C23         0.8880   -1.4610   -6.1550 ca        1 SBX     -0.127500
     28 C24        -2.5130   -0.1080   -1.5410 c3        1 SBX     -0.074700
     29 C25        -2.8880   -0.6660   -0.1750 c3        1 SBX     -0.074400
     30 C26        -4.3170   -0.3260    0.1880 c3        1 SBX     -0.073900
     31 C27        -4.5610    1.1680    0.1280 c3        1 SBX     -0.078400
     32 C28        -4.1920    1.7260   -1.2310 c3        1 SBX     -0.073900
     33 C29        -2.7610    1.3910   -1.5950 c3        1 SBX     -0.074400
     34 H2          0.8300    1.8170    0.6020 h1        1 SBX      0.117700
     35 H31         3.0330    1.9650   -0.0720 hc        1 SBX      0.060700
     36 H32         2.4240    0.6920   -1.1980 hc        1 SBX      0.060700
     37 H41         4.5560    0.5800    0.8880 hc        1 SBX      0.049200
     38 H42         4.2700   -0.5000   -0.5280 hc        1 SBX      0.049200
     39 H51         4.1110   -1.7030    1.6830 hc        1 SBX      0.064200
     40 H52         2.5680   -1.7860    0.7320 hc        1 SBX      0.064200
     41 H61         3.2680    0.0050    3.1670 h1        1 SBX      0.052200
     42 H62         1.9920   -1.2980    3.0410 h1        1 SBX      0.052200
     43 H111        0.9490   -0.0380    6.9890 hc        1 SBX      0.052200
     44 H112        0.9670   -1.5510    5.9980 hc        1 SBX      0.052200
     45 H121       -0.3270   -1.8850    8.0680 hc        1 SBX      0.036700
     46 H122       -1.4080   -0.4860    7.6800 hc        1 SBX      0.036700
     47 H123       -1.4490   -1.9770    6.6510 hc        1 SBX      0.036700
     48 H131       -0.1550   -1.6510    3.8070 hc        1 SBX      0.051700
     49 H132       -1.7430   -1.3810    4.6390 hc        1 SBX      0.051700
     50 H133       -1.2480   -0.2990    3.2760 hc        1 SBX      0.051700
     51 H141       -0.7590    1.7490    6.4230 hc        1 SBX      0.051700
     52 H142       -1.4080    1.8270    4.7240 hc        1 SBX      0.051700
     53 H143       -2.1420    0.6800    5.9260 hc        1 SBX      0.051700
     54 H15        -0.8830   -1.5540   -1.6540 h1        1 SBX      0.077700
     55 H161       -1.5640   -0.5460   -3.9800 hc        1 SBX      0.060200
     56 H162       -0.6550    0.9430   -3.4870 hc        1 SBX      0.060200
     57 H171        1.3930   -0.4680   -3.0590 hc        1 SBX      0.050200
     58 H172        0.4950   -1.9330   -3.6280 hc        1 SBX      0.050200
     59 H19         1.4060    1.5820   -4.7000 ha        1 SBX      0.131500
     60 H20         2.0390    2.1450   -7.0440 ha        1 SBX      0.131000
     61 H21         1.9340    0.3960   -8.8220 ha        1 SBX      0.131000
     62 H22         1.1960   -1.9180   -8.2470 ha        1 SBX      0.131000
     63 H23         0.5640   -2.4830   -5.9070 ha        1 SBX      0.131500
     64 H24        -3.1620   -0.6070   -2.3160 hc        1 SBX      0.053700
     65 H251       -2.7520   -1.7800   -0.1760 hc        1 SBX      0.047450
     66 H252       -2.1860   -0.2480    0.5960 hc        1 SBX      0.047450
     67 H261       -5.0170   -0.8470   -0.5170 hc        1 SBX      0.038200
     68 H262       -4.5380   -0.7020    1.2210 hc        1 SBX      0.038200
     69 H271       -5.6410    1.3820    0.3430 hc        1 SBX      0.041700
     70 H272       -3.9510    1.6790    0.9190 hc        1 SBX      0.041700
     71 H281       -4.8850    1.3070   -2.0070 hc        1 SBX      0.038200
     72 H282       -4.3240    2.8400   -1.2280 hc        1 SBX      0.038200
     73 H291       -2.0580    1.9050   -0.8870 hc        1 SBX      0.047450
     74 H292       -2.5380    1.7690   -2.6260 hc        1 SBX      0.047450
@<TRIPOS>BOND
     1    1    2 1   
     2    1    8 2   
     3    1    9 1   
     4    2    3 1   
     5    2    7 1   
     6    2   34 1   
     7    3    4 1   
     8    3   35 1   
     9    3   36 1   
    10    4    5 1   
    11    4   37 1   
    12    4   38 1   
    13    5    6 1   
    14    5   39 1   
    15    5   40 1   
    16    6    7 1   
    17    6   41 1   
    18    6   42 1   
    19    7   10 1   
    20    9   19 1   
    21   10   11 2   
    22   10   12 1   
    23   12   13 2   
    24   12   14 1   
    25   14   15 1   
    26   14   17 1   
    27   14   18 1   
    28   15   16 1   
    29   15   43 1   
    30   15   44 1   
    31   16   45 1   
    32   16   46 1   
    33   16   47 1   
    34   17   48 1   
    35   17   49 1   
    36   17   50 1   
    37   18   51 1   
    38   18   52 1   
    39   18   53 1   
    40   19   20 1   
    41   19   28 1   
    42   19   54 1   
    43   20   21 1   
    44   20   55 1   
    45   20   56 1   
    46   21   22 1   
    47   21   57 1   
    48   21   58 1   
    49   22   23 ar  
    50   22   27 ar  
    51   23   24 ar  
    52   23   59 1   
    53   24   25 ar  
    54   24   60 1   
    55   25   26 ar  
    56   25   61 1   
    57   26   27 ar  
    58   26   62 1   
    59   27   63 1   
    60   28   29 1   
    61   28   33 1   
    62   28   64 1   
    63   29   30 1   
    64   29   65 1   
    65   29   66 1   
    66   30   31 1   
    67   30   67 1   
    68   30   68 1   
    69   31   32 1   
    70   31   69 1   
    71   31   70 1   
    72   32   33 1   
    73   32   71 1   
    74   32   72 1   
    75   33   73 1   
    76   33   74 1   
@<TRIPOS>SUBSTRUCTURE
     1 SBX         1 TEMP              0 ****  ****    0 ROOT
