@<TRIPOS>MOLECULE
SBX
   74    76     1     0     0
SMALL
bcc


@<TRIPOS>ATOM
      1 C1         -0.3170    0.1770    0.0570 c         1 SBX      0.615100
      2 C2          1.2020    0.1740   -0.1590 c3        1 SBX      0.069700
      3 C3          1.8590   -0.5160    1.0510 c3        1 SBX     -0.079400
      4 C4          2.2800    0.4250    2.1620 c3        1 SBX     -0.079400
      5 C5          1.6550    1.7940    2.0260 c3        1 SBX     -0.094400
      6 C6          1.9660    2.4010    0.6620 c3        1 SBX      0.093000
      7 N7          1.7190    1.4930   -0.4390 n         1 SBX     -0.453800
      8 O1         -1.0500    1.0870    0.4460 o         1 SBX     -0.545000
      9 O2         -0.8500   -1.0430   -0.2390 os        1 SBX     -0.436900
     10 C8          1.9200    1.9030   -1.7460 c         1 SBX      0.581100
     11 O3          1.7360    1.1370   -2.7120 o         1 SBX     -0.589100
     12 C9          2.4050    3.3320   -1.9770 c         1 SBX      0.523100
     13 O4          3.5420    3.6600   -1.6420 o         1 SBX     -0.496100
     14 C10         1.4240    4.2490   -2.6900 c3        1 SBX     -0.128000
     15 C11         1.8040    5.6990   -2.3780 c3        1 SBX     -0.074400
     16 C12         1.0390    6.7190   -3.1790 c3        1 SBX     -0.091100
     17 C13         0.0090    3.9540   -2.2160 c3        1 SBX     -0.096100
     18 C14         1.5390    3.9620   -4.1830 c3        1 SBX     -0.096100
     19 C15        -2.2720   -1.2380   -0.0830 c3        1 SBX      0.145100
     20 C16        -2.4380   -2.5980    0.5900 c3        1 SBX     -0.083400
     21 C17        -2.0640   -2.5360    2.0580 c3        1 SBX     -0.037100
     22 C18        -2.1650   -3.8700    2.7100 ca        1 SBX     -0.079300
     23 C19        -1.2390   -4.8750    2.4030 ca        1 SBX     -0.127500
     24 C20        -1.3230   -6.1220    3.0190 ca        1 SBX     -0.128000
     25 C21        -2.3320   -6.3770    3.9480 ca        1 SBX     -0.132000
     26 C22        -3.2560   -5.3800    4.2590 ca        1 SBX     -0.128000
     27 C23        -3.1740   -4.1320    3.6430 ca        1 SBX     -0.127500
     28 C24        -2.9530   -1.1920   -1.4550 c3        1 SBX     -0.074700
     29 C25        -3.0050    0.2400   -1.9700 c3        1 SBX     -0.074400
     30 C26        -3.6690    0.3150   -3.3290 c3        1 SBX     -0.073900
     31 C27        -2.9860   -0.5950   -4.3280 c3        1 SBX     -0.078400
     32 C28        -2.9340   -2.0210   -3.8210 c3        1 SBX     -0.073900
     33 C29        -2.2660   -2.1000   -2.4640 c3        1 SBX     -0.074400
     34 H2          1.3850   -0.4740   -1.0750 h1        1 SBX      0.117700
     35 H31         1.1360   -1.2800    1.4410 hc        1 SBX      0.060700
     36 H32         2.7600   -1.0730    0.6790 hc        1 SBX      0.060700
     37 H41         3.3980    0.5310    2.1550 hc        1 SBX      0.049200
     38 H42         1.9990   -0.0170    3.1540 hc        1 SBX      0.049200
     39 H51         0.5420    1.7230    2.1620 hc        1 SBX      0.064200
     40 H52         2.0550    2.4820    2.8150 hc        1 SBX      0.064200
     41 H61         1.3380    3.3280    0.5210 h1        1 SBX      0.052200
     42 H62         3.0530    2.7070    0.6280 h1        1 SBX      0.052200
     43 H111        1.6350    5.8800   -1.2840 hc        1 SBX      0.052200
     44 H112        2.9030    5.8270   -2.5720 hc        1 SBX      0.052200
     45 H121       -0.0620    6.6190   -3.0210 hc        1 SBX      0.036700
     46 H122        1.2500    6.6110   -4.2710 hc        1 SBX      0.036700
     47 H123        1.3440    7.7480   -2.8650 hc        1 SBX      0.036700
     48 H131       -0.2680    2.8950   -2.4440 hc        1 SBX      0.051700
     49 H132       -0.0820    4.1220   -1.1160 hc        1 SBX      0.051700
     50 H133       -0.7150    4.6230   -2.7390 hc        1 SBX      0.051700
     51 H141        1.4420    2.8630   -4.3720 hc        1 SBX      0.051700
     52 H142        0.7260    4.4930   -4.7330 hc        1 SBX      0.051700
     53 H143        2.5260    4.3120   -4.5690 hc        1 SBX      0.051700
     54 H15        -2.6980   -0.4260    0.5710 h1        1 SBX      0.077700
     55 H161       -3.5050   -2.9220    0.4800 hc        1 SBX      0.060200
     56 H162       -1.7920   -3.3530    0.0700 hc        1 SBX      0.060200
     57 H171       -1.0100   -2.1560    2.1480 hc        1 SBX      0.050200
     58 H172       -2.7290   -1.7990    2.5830 hc        1 SBX      0.050200
     59 H19        -0.4430   -4.6750    1.6700 ha        1 SBX      0.131500
     60 H20        -0.5920   -6.9060    2.7720 ha        1 SBX      0.131000
     61 H21        -2.3980   -7.3610    4.4340 ha        1 SBX      0.131000
     62 H22        -4.0530   -5.5780    4.9910 ha        1 SBX      0.131000
     63 H23        -3.9060   -3.3490    3.8930 ha        1 SBX      0.131500
     64 H24        -4.0100   -1.5540   -1.3090 hc        1 SBX      0.053700
     65 H251       -1.9600    0.6440   -2.0320 hc        1 SBX      0.047450
     66 H252       -3.5650    0.8800   -1.2390 hc        1 SBX      0.047450
     67 H261       -4.7480    0.0230   -3.2340 hc        1 SBX      0.038200
     68 H262       -3.6380    1.3720   -3.7000 hc        1 SBX      0.038200
     69 H271       -1.9430   -0.2280   -4.5160 hc        1 SBX      0.041700
     70 H272       -3.5360   -0.5630   -5.3040 hc        1 SBX      0.041700
     71 H281       -3.9770   -2.4300   -3.7490 hc        1 SBX      0.038200
     72 H282       -2.3710   -2.6600   -4.5500 hc        1 SBX      0.038200
     73 H291       -1.1880   -1.8020   -2.5530 hc        1 SBX      0.047450
     74 H292       -2.2950   -3.1580   -2.0930 hc        1 SBX      0.047450
@<TRIPOS>BOND
     1    1    2 1   
     2    1    8 2   
     3    1    9 1   
     4    2    3 1   
     5    2    7 1   
     6    2   34 1   
     7    3    4 1   
     8    3   35 1   
     9    3   36 1   
    10    4    5 1   
    11    4   37 1   
    12    4   38 1   
    13    5    6 1   
    14    5   39 1   
    15    5   40 1   
    16    6    7 1   
    17    6   41 1   
    18    6   42 1   
    19    7   10 1   
    20    9   19 1   
    21   10   11 2   
    22   10   12 1   
    23   12   13 2   
    24   12   14 1   
    25   14   15 1   
    26   14   17 1   
    27   14   18 1   
    28   15   16 1   
    29   15   43 1   
    30   15   44 1   
    31   16   45 1   
    32   16   46 1   
    33   16   47 1   
    34   17   48 1   
    35   17   49 1   
    36   17   50 1   
    37   18   51 1   
    38   18   52 1   
    39   18   53 1   
    40   19   20 1   
    41   19   28 1   
    42   19   54 1   
    43   20   21 1   
    44   20   55 1   
    45   20   56 1   
    46   21   22 1   
    47   21   57 1   
    48   21   58 1   
    49   22   23 ar  
    50   22   27 ar  
    51   23   24 ar  
    52   23   59 1   
    53   24   25 ar  
    54   24   60 1   
    55   25   26 ar  
    56   25   61 1   
    57   26   27 ar  
    58   26   62 1   
    59   27   63 1   
    60   28   29 1   
    61   28   33 1   
    62   28   64 1   
    63   29   30 1   
    64   29   65 1   
    65   29   66 1   
    66   30   31 1   
    67   30   67 1   
    68   30   68 1   
    69   31   32 1   
    70   31   69 1   
    71   31   70 1   
    72   32   33 1   
    73   32   71 1   
    74   32   72 1   
    75   33   73 1   
    76   33   74 1   
@<TRIPOS>SUBSTRUCTURE
     1 SBX         1 TEMP              0 ****  ****    0 ROOT
