@<TRIPOS>MOLECULE
SBX
   74    76     1     0     0
SMALL
bcc


@<TRIPOS>ATOM
      1 C1         -0.4600    0.1680    1.1840 c         1 SBX      0.651100
      2 C2          1.0430    0.4040    1.0980 c3        1 SBX      0.051700
      3 C3          1.5750    0.6680    2.5180 c3        1 SBX     -0.101400
      4 C4          3.0790    0.8390    2.4970 c3        1 SBX     -0.080400
      5 C5          3.5070    1.8840    1.4890 c3        1 SBX     -0.108400
      6 C6          2.8960    1.6030    0.1150 c3        1 SBX      0.079000
      7 N7          1.4550    1.4230    0.1380 n         1 SBX     -0.431800
      8 O1         -1.1890    0.3730    2.1540 o         1 SBX     -0.529000
      9 O2         -0.9490   -0.4460    0.0690 os        1 SBX     -0.430900
     10 C8          0.6010    2.4680   -0.2010 c         1 SBX      0.564100
     11 O3         -0.5990    2.4740    0.1300 o         1 SBX     -0.568100
     12 C9          1.1350    3.5920   -1.0870 c         1 SBX      0.523100
     13 O4          1.8000    4.5010   -0.5930 o         1 SBX     -0.498100
     14 C10         0.7220    3.5280   -2.5490 c3        1 SBX     -0.129000
     15 C11         1.7010    4.3740   -3.3660 c3        1 SBX     -0.074400
     16 C12         1.2960    4.5680   -4.8030 c3        1 SBX     -0.091100
     17 C13        -0.6950    4.0820   -2.6490 c3        1 SBX     -0.097600
     18 C14         0.7420    2.0810   -3.0190 c3        1 SBX     -0.097600
     19 C15        -2.3350   -0.8560    0.0630 c3        1 SBX      0.146100
     20 C16        -2.3830   -2.3590    0.3290 c3        1 SBX     -0.095400
     21 C17        -2.3760   -2.6590    1.8160 c3        1 SBX     -0.042100
     22 C18        -2.2580   -4.1170    2.0860 ca        1 SBX     -0.075300
     23 C19        -1.0620   -4.7920    1.8100 ca        1 SBX     -0.128500
     24 C20        -0.9450   -6.1550    2.0730 ca        1 SBX     -0.128500
     25 C21        -2.0210   -6.8580    2.6160 ca        1 SBX     -0.134000
     26 C22        -3.2140   -6.1920    2.8950 ca        1 SBX     -0.128500
     27 C23        -3.3330   -4.8280    2.6320 ca        1 SBX     -0.128500
     28 C24        -2.9190   -0.5060   -1.3110 c3        1 SBX     -0.060700
     29 C25        -3.1280    0.9960   -1.4320 c3        1 SBX     -0.077900
     30 C26        -3.7020    1.3660   -2.7830 c3        1 SBX     -0.075900
     31 C27        -2.8430    0.8420   -3.9140 c3        1 SBX     -0.078400
     32 C28        -2.6360   -0.6540   -3.7950 c3        1 SBX     -0.075900
     33 C29        -2.0510   -1.0230   -2.4480 c3        1 SBX     -0.077900
     34 H2          1.4930   -0.5680    0.7210 h1        1 SBX      0.082700
     35 H31         1.2910   -0.1980    3.1690 hc        1 SBX      0.071200
     36 H32         1.0800    1.5810    2.9410 hc        1 SBX      0.071200
     37 H41         3.4330    1.1350    3.5190 hc        1 SBX      0.047200
     38 H42         3.5630   -0.1420    2.2460 hc        1 SBX      0.047200
     39 H51         3.1970    2.9030    1.8390 hc        1 SBX      0.059700
     40 H52         4.6230    1.8840    1.3860 hc        1 SBX      0.059700
     41 H61         3.3390    0.6490   -0.2950 h1        1 SBX      0.059700
     42 H62         3.1660    2.4380   -0.5900 h1        1 SBX      0.059700
     43 H111        1.7990    5.3790   -2.8720 hc        1 SBX      0.052200
     44 H112        2.7100    3.8840   -3.3250 hc        1 SBX      0.052200
     45 H121        0.3300    5.1250   -4.8740 hc        1 SBX      0.037367
     46 H122        2.0790    5.1590   -5.3370 hc        1 SBX      0.037367
     47 H123        1.1780    3.5890   -5.3280 hc        1 SBX      0.037367
     48 H131       -1.1010    3.8930   -3.6720 hc        1 SBX      0.052033
     49 H132       -1.3610    3.5760   -1.9040 hc        1 SBX      0.052033
     50 H133       -0.6970    5.1800   -2.4540 hc        1 SBX      0.052033
     51 H141        0.4600    2.0270   -4.0980 hc        1 SBX      0.052033
     52 H142        1.7600    1.6420   -2.8920 hc        1 SBX      0.052033
     53 H143        0.0070    1.4700   -2.4350 hc        1 SBX      0.052033
     54 H15        -2.9000   -0.2950    0.8600 h1        1 SBX      0.084700
     55 H161       -3.3100   -2.7840   -0.1350 hc        1 SBX      0.056700
     56 H162       -1.5020   -2.8500   -0.1630 hc        1 SBX      0.056700
     57 H171       -1.5150   -2.1160    2.2950 hc        1 SBX      0.056200
     58 H172       -3.3140   -2.2530    2.2810 hc        1 SBX      0.056200
     59 H19        -0.2130   -4.2390    1.3830 ha        1 SBX      0.130500
     60 H20        -0.0030   -6.6780    1.8530 ha        1 SBX      0.129500
     61 H21        -1.9280   -7.9340    2.8240 ha        1 SBX      0.130000
     62 H22        -4.0630   -6.7430    3.3250 ha        1 SBX      0.129500
     63 H23        -4.2760   -4.3080    2.8570 ha        1 SBX      0.130500
     64 H24        -3.9260   -1.0090   -1.3730 hc        1 SBX      0.051700
     65 H251       -3.8210    1.3440   -0.6220 hc        1 SBX      0.051200
     66 H252       -2.1440    1.5160   -1.2760 hc        1 SBX      0.051200
     67 H261       -4.7390    0.9490   -2.8780 hc        1 SBX      0.037450
     68 H262       -3.7790    2.4830   -2.8580 hc        1 SBX      0.037450
     69 H271       -1.8460    1.3600   -3.8930 hc        1 SBX      0.037200
     70 H272       -3.3270    1.0780   -4.8970 hc        1 SBX      0.037200
     71 H281       -1.9490   -1.0060   -4.6090 hc        1 SBX      0.037450
     72 H282       -3.6180   -1.1790   -3.9340 hc        1 SBX      0.037450
     73 H291       -1.9580   -2.1370   -2.3670 hc        1 SBX      0.051200
     74 H292       -1.0200   -0.5890   -2.3500 hc        1 SBX      0.051200
@<TRIPOS>BOND
     1    1    2 1   
     2    1    8 2   
     3    1    9 1   
     4    2    3 1   
     5    2    7 1   
     6    2   34 1   
     7    3    4 1   
     8    3   35 1   
     9    3   36 1   
    10    4    5 1   
    11    4   37 1   
    12    4   38 1   
    13    5    6 1   
    14    5   39 1   
    15    5   40 1   
    16    6    7 1   
    17    6   41 1   
    18    6   42 1   
    19    7   10 1   
    20    9   19 1   
    21   10   11 2   
    22   10   12 1   
    23   12   13 2   
    24   12   14 1   
    25   14   15 1   
    26   14   17 1   
    27   14   18 1   
    28   15   16 1   
    29   15   43 1   
    30   15   44 1   
    31   16   45 1   
    32   16   46 1   
    33   16   47 1   
    34   17   48 1   
    35   17   49 1   
    36   17   50 1   
    37   18   51 1   
    38   18   52 1   
    39   18   53 1   
    40   19   20 1   
    41   19   28 1   
    42   19   54 1   
    43   20   21 1   
    44   20   55 1   
    45   20   56 1   
    46   21   22 1   
    47   21   57 1   
    48   21   58 1   
    49   22   23 ar  
    50   22   27 ar  
    51   23   24 ar  
    52   23   59 1   
    53   24   25 ar  
    54   24   60 1   
    55   25   26 ar  
    56   25   61 1   
    57   26   27 ar  
    58   26   62 1   
    59   27   63 1   
    60   28   29 1   
    61   28   33 1   
    62   28   64 1   
    63   29   30 1   
    64   29   65 1   
    65   29   66 1   
    66   30   31 1   
    67   30   67 1   
    68   30   68 1   
    69   31   32 1   
    70   31   69 1   
    71   31   70 1   
    72   32   33 1   
    73   32   71 1   
    74   32   72 1   
    75   33   73 1   
    76   33   74 1   
@<TRIPOS>SUBSTRUCTURE
     1 SBX         1 TEMP              0 ****  ****    0 ROOT
