@<TRIPOS>MOLECULE
SBY
   59    56     1     0     0
SMALL
bcc


@<TRIPOS>ATOM
      1 O22        -2.4850   -5.1010    8.1960 o         1 SBY     -1.059500
      2 S19        -0.9730   -5.1010    8.1960 ss        1 SBY      2.864000
      3 O20        -0.6790   -5.1010    9.6810 o         1 SBY     -1.059500
      4 O21        -0.4250   -6.3410    7.5290 os        1 SBY     -1.083000
      5 C18        -0.3230   -3.6310    7.4040 c2        1 SBY     -0.846000
      6 H181       -0.7120   -2.8380    7.8200 ha        1 SBY      0.125500
      7 H182        0.6470   -3.6090    7.5050 ha        1 SBY      0.125500
      8 C17        -0.6840   -3.6530    5.9030 c3        1 SBY     -0.118000
      9 H171       -1.6530   -3.6970    5.8020 hc        1 SBY      0.092500
     10 H172       -0.2760   -4.4340    5.4820 hc        1 SBY      0.092500
     11 C16        -0.1510   -2.3630    5.2260 c3        1 SBY     -0.137000
     12 H161       -0.5540   -1.5830    5.6510 hx        1 SBY      0.147000
     13 H162        0.8190   -2.3220    5.3230 hx        1 SBY      0.147000
     14 N13        -0.5000   -2.3790    3.7950 n4        1 SBY      0.045000
     15 C15        -0.0530   -3.6250    3.2020 c3        1 SBY     -0.205000
     16 H153        0.8530   -3.8230    3.5060 hx        1 SBY      0.143167
     17 H152       -0.0590   -3.5420    2.2290 hx        1 SBY      0.143167
     18 H151       -0.6520   -4.3470    3.4710 hx        1 SBY      0.143167
     19 C14        -1.9380   -2.2620    3.6470 c3        1 SBY     -0.205000
     20 H143       -2.2050   -1.3320    3.7770 hx        1 SBY      0.143167
     21 H142       -2.3800   -2.8230    4.3130 hx        1 SBY      0.143167
     22 H141       -2.1980   -2.5540    2.7520 hx        1 SBY      0.143167
     23 C12         0.1580   -1.2460    3.1150 c3        1 SBY     -0.126000
     24 H121        1.1240   -1.3820    3.1180 hx        1 SBY      0.136500
     25 H122       -0.0560   -0.4170    3.5840 hx        1 SBY      0.136500
     26 C11        -0.3480   -1.1560    1.6470 c3        1 SBY     -0.178000
     27 H111       -1.3150   -1.0190    1.6430 hc        1 SBY      0.097500
     28 H112       -0.1350   -1.9840    1.1770 hc        1 SBY      0.097500
     29 C10         0.3460    0.0380    0.9320 c3        1 SBY     -0.159000
     30 H101        1.3140   -0.0890    0.9530 hc        1 SBY      0.091000
     31 H102        0.1170    0.8690    1.3900 hc        1 SBY      0.091000
     32 C9         -0.1350    0.1110   -0.5400 c3        1 SBY     -0.157000
     33 H91         0.1070   -0.7150   -1.0030 hc        1 SBY      0.083000
     34 H92        -1.1040    0.2220   -0.5610 hc        1 SBY      0.083000
     35 C8          0.5390    1.3150   -1.2460 c3        1 SBY     -0.158000
     36 H81         1.5100    1.2160   -1.2030 hc        1 SBY      0.083000
     37 H82         0.2770    2.1420   -0.8000 hc        1 SBY      0.083000
     38 C7          0.0910    1.3630   -2.7280 c3        1 SBY     -0.157000
     39 H71        -0.8810    1.4450   -2.7710 hc        1 SBY      0.080500
     40 H72         0.3680    0.5430   -3.1790 hc        1 SBY      0.080500
     41 C6          0.7430    2.5820   -3.4260 c3        1 SBY     -0.158000
     42 H61         1.7150    2.5060   -3.3710 hc        1 SBY      0.080000
     43 H62         0.4550    3.4030   -2.9840 hc        1 SBY      0.080000
     44 C5          0.3120    2.6170   -4.9120 c3        1 SBY     -0.157000
     45 H51         0.6060    1.7990   -5.3550 hc        1 SBY      0.079500
     46 H52        -0.6600    2.6860   -4.9670 hc        1 SBY      0.079500
     47 C4          0.9550    3.8390   -5.6070 c3        1 SBY     -0.158000
     48 H41         1.9270    3.7740   -5.5450 hc        1 SBY      0.079500
     49 H42         0.6550    4.6580   -5.1680 hc        1 SBY      0.079500
     50 C3          0.5350    3.8680   -7.0930 c3        1 SBY     -0.158000
     51 H31        -0.4380    3.9250   -7.1550 hc        1 SBY      0.079000
     52 H32         0.8420    3.0530   -7.5340 hc        1 SBY      0.079000
     53 C2          1.1660    5.0930   -7.7810 c3        1 SBY     -0.159000
     54 H21         2.1380    5.0430   -7.7080 hc        1 SBY      0.078000
     55 H22         0.8490    5.9090   -7.3480 hc        1 SBY      0.078000
     56 C1          0.7640    5.1110   -9.2610 c3        1 SBY     -0.211000
     57 H13         1.0770    4.2930   -9.6930 hc        1 SBY      0.072333
     58 H12         1.1670    5.8850   -9.6980 hc        1 SBY      0.072333
     59 H11        -0.2080    5.1650   -9.3330 hc        1 SBY      0.072333
@<TRIPOS>BOND
     1    1    2 1   
     2    2    3 1   
     3    5    6 1   
     4    5    7 1   
     5    5    8 1   
     6    8    9 1   
     7    8   10 1   
     8    8   11 1   
     9   11   12 1   
    10   11   13 1   
    11   11   14 1   
    12   14   15 1   
    13   14   19 1   
    14   14   23 1   
    15   15   16 1   
    16   15   17 1   
    17   15   18 1   
    18   19   20 1   
    19   19   21 1   
    20   19   22 1   
    21   23   24 1   
    22   23   25 1   
    23   23   26 1   
    24   26   27 1   
    25   26   28 1   
    26   26   29 1   
    27   29   30 1   
    28   29   31 1   
    29   29   32 1   
    30   32   33 1   
    31   32   34 1   
    32   32   35 1   
    33   35   36 1   
    34   35   37 1   
    35   35   38 1   
    36   38   39 1   
    37   38   40 1   
    38   38   41 1   
    39   41   42 1   
    40   41   43 1   
    41   41   44 1   
    42   44   45 1   
    43   44   46 1   
    44   44   47 1   
    45   47   48 1   
    46   47   49 1   
    47   47   50 1   
    48   50   51 1   
    49   50   52 1   
    50   50   53 1   
    51   53   54 1   
    52   53   55 1   
    53   53   56 1   
    54   56   57 1   
    55   56   58 1   
    56   56   59 1   
@<TRIPOS>SUBSTRUCTURE
     1 SBY         1 TEMP              0 ****  ****    0 ROOT
