@<TRIPOS>MOLECULE
SBY
   59    58     1     0     0
SMALL
bcc


@<TRIPOS>ATOM
      1 O22         5.5900   -0.8240   -1.8680 o         1 SBY     -0.744533
      2 S19         5.6980    0.5870   -1.9650 s6        1 SBY      1.434800
      3 O20         6.7380    1.0940   -2.7450 o         1 SBY     -0.744533
      4 O21         4.4070    1.1610   -2.1790 o         1 SBY     -0.744533
      5 C18         6.0710    1.0900   -0.2860 c3        1 SBY     -0.306600
      6 H181        7.1440    0.8510   -0.0800 h1        1 SBY      0.086200
      7 H182        5.9700    2.1980   -0.2070 h1        1 SBY      0.086200
      8 C17         5.2170    0.4060    0.7450 c3        1 SBY     -0.039400
      9 H171        5.3180   -0.7050    0.6010 hc        1 SBY      0.053200
     10 H172        5.5880    0.6370    1.7780 hc        1 SBY      0.053200
     11 C16         3.7660    0.8790    0.6490 c3        1 SBY      0.099800
     12 H161        3.5020    1.4550    1.5800 hx        1 SBY      0.107700
     13 H162        3.6490    1.5570   -0.2560 hx        1 SBY      0.107700
     14 N13         2.7140   -0.2010    0.5040 n4        1 SBY     -0.587800
     15 C15         2.9530   -1.0210   -0.7210 c3        1 SBY      0.071100
     16 H153        3.9490   -1.5460   -0.6560 hx        1 SBY      0.103867
     17 H152        2.1310   -1.7720   -0.8280 hx        1 SBY      0.103867
     18 H151        2.9980   -0.3390   -1.6230 hx        1 SBY      0.103867
     19 C14         2.7260   -1.0760    1.7040 c3        1 SBY      0.071100
     20 H143        2.4050   -0.4870    2.6020 hx        1 SBY      0.103867
     21 H142        2.0280   -1.9410    1.5490 hx        1 SBY      0.103867
     22 H141        3.7660   -1.4680    1.8650 hx        1 SBY      0.103867
     23 C12         1.3870    0.5040    0.3790 c3        1 SBY      0.110800
     24 H121        1.3190    1.2520    1.2200 hx        1 SBY      0.097200
     25 H122        1.4110    1.0660   -0.6010 hx        1 SBY      0.097200
     26 C11         0.1580   -0.3930    0.4220 c3        1 SBY     -0.099400
     27 H111        0.2070   -1.1780   -0.3770 hc        1 SBY      0.058200
     28 H112        0.0870   -0.9160    1.4120 hc        1 SBY      0.058200
     29 C10        -1.0820    0.4550    0.2130 c3        1 SBY     -0.080400
     30 H101       -1.1360    1.2510    1.0020 hc        1 SBY      0.051700
     31 H102       -1.0230    0.9730   -0.7810 hc        1 SBY      0.051700
     32 C9         -2.3320   -0.3980    0.2670 c3        1 SBY     -0.078400
     33 H91        -2.2790   -1.1940   -0.5220 hc        1 SBY      0.043700
     34 H92        -2.3920   -0.9180    1.2590 hc        1 SBY      0.043700
     35 C8         -3.5730    0.4430    0.0580 c3        1 SBY     -0.079400
     36 H81        -3.6260    1.2400    0.8450 hc        1 SBY      0.043700
     37 H82        -3.5140    0.9610   -0.9360 hc        1 SBY      0.043700
     38 C7         -4.8250   -0.4080    0.1120 c3        1 SBY     -0.078400
     39 H71        -4.7730   -1.2050   -0.6760 hc        1 SBY      0.041200
     40 H72        -4.8840   -0.9270    1.1050 hc        1 SBY      0.041200
     41 C6         -6.0670    0.4320   -0.0970 c3        1 SBY     -0.079400
     42 H61        -6.1190    1.2300    0.6900 hc        1 SBY      0.040700
     43 H62        -6.0070    0.9510   -1.0900 hc        1 SBY      0.040700
     44 C5         -7.3180   -0.4170   -0.0430 c3        1 SBY     -0.078400
     45 H51        -7.2660   -1.2150   -0.8300 hc        1 SBY      0.040200
     46 H52        -7.3780   -0.9370    0.9500 hc        1 SBY      0.040200
     47 C4         -8.5610    0.4220   -0.2510 c3        1 SBY     -0.079400
     48 H41        -8.6130    1.2200    0.5360 hc        1 SBY      0.040200
     49 H42        -8.5010    0.9410   -1.2440 hc        1 SBY      0.040200
     50 C3         -9.8120   -0.4270   -0.1970 c3        1 SBY     -0.079400
     51 H31        -9.7610   -1.2240   -0.9850 hc        1 SBY      0.039700
     52 H32        -9.8720   -0.9460    0.7960 hc        1 SBY      0.039700
     53 C2        -11.0560    0.4110   -0.4060 c3        1 SBY     -0.080400
     54 H21       -11.1050    1.2090    0.3820 hc        1 SBY      0.038700
     55 H22       -10.9930    0.9310   -1.3980 hc        1 SBY      0.038700
     56 C1        -12.3050   -0.4300   -0.3520 c3        1 SBY     -0.093100
     57 H13       -13.2090    0.2070   -0.5090 hc        1 SBY      0.033033
     58 H12       -12.2860   -1.2150   -1.1460 hc        1 SBY      0.033033
     59 H11       -12.3980   -0.9360    0.6380 hc        1 SBY      0.033033
@<TRIPOS>BOND
     1    1    2 1   
     2    2    3 1   
     3    2    4 1   
     4    2    5 1   
     5    5    6 1   
     6    5    7 1   
     7    5    8 1   
     8    8    9 1   
     9    8   10 1   
    10    8   11 1   
    11   11   12 1   
    12   11   13 1   
    13   11   14 1   
    14   14   15 1   
    15   14   19 1   
    16   14   23 1   
    17   15   16 1   
    18   15   17 1   
    19   15   18 1   
    20   19   20 1   
    21   19   21 1   
    22   19   22 1   
    23   23   24 1   
    24   23   25 1   
    25   23   26 1   
    26   26   27 1   
    27   26   28 1   
    28   26   29 1   
    29   29   30 1   
    30   29   31 1   
    31   29   32 1   
    32   32   33 1   
    33   32   34 1   
    34   32   35 1   
    35   35   36 1   
    36   35   37 1   
    37   35   38 1   
    38   38   39 1   
    39   38   40 1   
    40   38   41 1   
    41   41   42 1   
    42   41   43 1   
    43   41   44 1   
    44   44   45 1   
    45   44   46 1   
    46   44   47 1   
    47   47   48 1   
    48   47   49 1   
    49   47   50 1   
    50   50   51 1   
    51   50   52 1   
    52   50   53 1   
    53   53   54 1   
    54   53   55 1   
    55   53   56 1   
    56   56   57 1   
    57   56   58 1   
    58   56   59 1   
@<TRIPOS>SUBSTRUCTURE
     1 SBY         1 TEMP              0 ****  ****    0 ROOT
