@<TRIPOS>MOLECULE
SBY
   59    58     1     0     0
SMALL
bcc


@<TRIPOS>ATOM
      1 O22         2.5770   -0.3200   -2.6730 o         1 SBY     -0.744533
      2 S19         3.4450    0.5570   -1.9740 s6        1 SBY      1.434800
      3 O20         4.3640   -0.0210   -1.0980 o         1 SBY     -0.744533
      4 O21         3.9570    1.5490   -2.8650 o         1 SBY     -0.744533
      5 C18         2.3290    1.5060   -0.9400 c3        1 SBY     -0.306600
      6 H181        2.8840    2.3690   -0.5020 h1        1 SBY      0.086200
      7 H182        2.0140    0.8610   -0.0840 h1        1 SBY      0.086200
      8 C17         1.1020    1.9800   -1.6670 c3        1 SBY     -0.039400
      9 H171        0.3700    2.4330   -0.9470 hc        1 SBY      0.053200
     10 H172        0.6000    1.0850   -2.1250 hc        1 SBY      0.053200
     11 C16         1.4620    3.0450   -2.7040 c3        1 SBY      0.099800
     12 H161        2.5920    3.1480   -2.7620 hx        1 SBY      0.107700
     13 H162        1.0150    4.0300   -2.3940 hx        1 SBY      0.107700
     14 N13         0.9910    2.7900   -4.1210 n4        1 SBY     -0.587800
     15 C15         1.5450    1.5080   -4.6480 c3        1 SBY      0.071100
     16 H153        1.2240    1.3770   -5.7110 hx        1 SBY      0.103867
     17 H152        2.6740    1.5300   -4.5670 hx        1 SBY      0.103867
     18 H151        1.1870    0.6370   -4.0270 hx        1 SBY      0.103867
     19 C14        -0.4940    2.7460   -4.1540 c3        1 SBY      0.071100
     20 H143       -0.8580    1.9900   -3.4080 hx        1 SBY      0.103867
     21 H142       -0.8410    2.4460   -5.1780 hx        1 SBY      0.103867
     22 H141       -0.9050    3.7560   -3.8960 hx        1 SBY      0.103867
     23 C12         1.5020    3.9360   -4.9570 c3        1 SBY      0.110800
     24 H121        2.6290    3.8480   -4.9700 hx        1 SBY      0.097200
     25 H122        1.2240    4.8920   -4.4310 hx        1 SBY      0.097200
     26 C11         0.9800    3.9930   -6.3860 c3        1 SBY     -0.099400
     27 H111       -0.1320    4.1360   -6.3930 hc        1 SBY      0.058200
     28 H112        1.2060    3.0400   -6.9340 hc        1 SBY      0.058200
     29 C10         1.6410    5.1510   -7.1090 c3        1 SBY     -0.080400
     30 H101        1.4290    6.1090   -6.5640 hc        1 SBY      0.051700
     31 H102        2.7540    5.0090   -7.1150 hc        1 SBY      0.051700
     32 C9          1.1350    5.2540   -8.5330 c3        1 SBY     -0.078400
     33 H91         0.0220    5.3950   -8.5290 hc        1 SBY      0.043700
     34 H92         1.3470    4.2970   -9.0780 hc        1 SBY      0.043700
     35 C8          1.7910    6.4090   -9.2600 c3        1 SBY     -0.079400
     36 H81         2.9040    6.2680   -9.2640 hc        1 SBY      0.043700
     37 H82         1.5800    7.3660   -8.7150 hc        1 SBY      0.043700
     38 C7          1.2870    6.5140  -10.6840 c3        1 SBY     -0.078400
     39 H71         1.4990    5.5560  -11.2300 hc        1 SBY      0.041200
     40 H72         0.1740    6.6540  -10.6810 hc        1 SBY      0.041200
     41 C6          1.9420    7.6680  -11.4120 c3        1 SBY     -0.079400
     42 H61         1.7300    8.6260  -10.8670 hc        1 SBY      0.040700
     43 H62         3.0550    7.5280  -11.4150 hc        1 SBY      0.040700
     44 C5          1.4400    7.7740  -12.8360 c3        1 SBY     -0.078400
     45 H51         1.6520    6.8160  -13.3820 hc        1 SBY      0.040200
     46 H52         0.3260    7.9120  -12.8330 hc        1 SBY      0.040200
     47 C4          2.0930    8.9280  -13.5650 c3        1 SBY     -0.079400
     48 H41         1.8810    9.8860  -13.0190 hc        1 SBY      0.040200
     49 H42         3.2060    8.7890  -13.5670 hc        1 SBY      0.040200
     50 C3          1.5910    9.0340  -14.9890 c3        1 SBY     -0.079400
     51 H31         0.4780    9.1720  -14.9860 hc        1 SBY      0.039700
     52 H32         1.8040    8.0770  -15.5350 hc        1 SBY      0.039700
     53 C2          2.2440   10.1890  -15.7180 c3        1 SBY     -0.080400
     54 H21         3.3570   10.0490  -15.7180 hc        1 SBY      0.038700
     55 H22         2.0310   11.1450  -15.1700 hc        1 SBY      0.038700
     56 C1          1.7480   10.2980  -17.1370 c3        1 SBY     -0.093100
     57 H13         0.6430   10.4620  -17.1570 hc        1 SBY      0.033033
     58 H12         1.9730    9.3640  -17.7060 hc        1 SBY      0.033033
     59 H11         2.2410   11.1550  -17.6560 hc        1 SBY      0.033033
@<TRIPOS>BOND
     1    1    2 1   
     2    2    3 1   
     3    2    4 1   
     4    2    5 1   
     5    5    6 1   
     6    5    7 1   
     7    5    8 1   
     8    8    9 1   
     9    8   10 1   
    10    8   11 1   
    11   11   12 1   
    12   11   13 1   
    13   11   14 1   
    14   14   15 1   
    15   14   19 1   
    16   14   23 1   
    17   15   16 1   
    18   15   17 1   
    19   15   18 1   
    20   19   20 1   
    21   19   21 1   
    22   19   22 1   
    23   23   24 1   
    24   23   25 1   
    25   23   26 1   
    26   26   27 1   
    27   26   28 1   
    28   26   29 1   
    29   29   30 1   
    30   29   31 1   
    31   29   32 1   
    32   32   33 1   
    33   32   34 1   
    34   32   35 1   
    35   35   36 1   
    36   35   37 1   
    37   35   38 1   
    38   38   39 1   
    39   38   40 1   
    40   38   41 1   
    41   41   42 1   
    42   41   43 1   
    43   41   44 1   
    44   44   45 1   
    45   44   46 1   
    46   44   47 1   
    47   47   48 1   
    48   47   49 1   
    49   47   50 1   
    50   50   51 1   
    51   50   52 1   
    52   50   53 1   
    53   53   54 1   
    54   53   55 1   
    55   53   56 1   
    56   56   57 1   
    57   56   58 1   
    58   56   59 1   
@<TRIPOS>SUBSTRUCTURE
     1 SBY         1 TEMP              0 ****  ****    0 ROOT
