@<TRIPOS>MOLECULE
SC
   34    35     1     0     0
SMALL
bcc


@<TRIPOS>ATOM
      1 N1         -0.6170   -0.5290    2.5010 n         1 SC      -0.396000
      2 C2          0.1100    0.7220    2.5220 c         1 SC       0.841900
      3 N3          1.2160    0.8910    3.3620 nc        1 SC      -0.728100
      4 C4          1.6210   -0.1420    4.1250 cd        1 SC       0.761500
      5 C5          0.9540   -1.4430    4.0750 cd        1 SC      -0.424600
      6 C6         -0.1280   -1.5770    3.2470 cc        1 SC       0.072600
      7 O2         -0.2860    1.6440    1.7760 o         1 SC      -0.644500
      8 N4          2.6750    0.0220    4.9920 nh        1 SC      -0.923800
      9 C1'        -1.7460   -0.7760    1.6060 c3        1 SC       0.306500
     10 C2'        -2.7530    0.3810    1.4660 c3        1 SC      -0.132400
     11 C3'        -2.5690    0.9120    0.0400 c3        1 SC       0.124100
     12 C4'        -1.6400   -0.1010   -0.6630 c3        1 SC       0.124100
     13 O4'        -1.2850   -1.1110    0.2860 os        1 SC      -0.413600
     14 O3'        -3.7930    0.9160   -0.6720 oh        1 SC      -0.592800
     15 C5'        -0.3840    0.6000   -1.1830 c3        1 SC       0.134400
     16 O5'         0.3940   -0.2950   -1.9540 os        1 SC      -0.580200
     17 P           0.6220   -0.0530   -3.5150 p5        1 SC       1.265200
     18 OP1         2.0930   -0.6660   -3.5120 oh        1 SC      -0.734900
     19 S2P         0.2560    1.6260   -4.2210 s         1 SC      -0.540000
     20 OP3        -0.1100   -1.3220   -4.1240 oh        1 SC      -0.734900
     21 H5          1.3100   -2.2840    4.6790 ha        1 SC       0.156000
     22 H6         -0.6590   -2.5450    3.1600 h4        1 SC       0.158000
     23 HN41        3.1910    0.8680    5.0030 hn        1 SC       0.443300
     24 HN42        3.0450   -0.7750    5.4430 hn        1 SC       0.443300
     25 H1'        -2.2650   -1.7150    1.9710 h2        1 SC       0.076700
     26 H2'        -3.7890   -0.0220    1.5990 hc        1 SC       0.081700
     27 H2''       -2.5840    1.1910    2.2160 hc        1 SC       0.081700
     28 H3'        -2.1100    1.9380    0.0580 h1        1 SC       0.083700
     29 H4'        -2.1810   -0.6420   -1.4870 h1        1 SC       0.093700
     30 HO3'       -4.2700    1.7120   -0.4070 ho        1 SC       0.412000
     31 H5'        -0.6660    1.4880   -1.8220 h1        1 SC       0.096700
     32 H5''        0.2530    0.9250   -0.3110 h1        1 SC       0.096700
     33 HOP1        2.5320   -0.7810   -2.6680 ho        1 SC       0.495500
     34 HOP3        0.2990   -2.1750   -3.9740 ho        1 SC       0.495500
@<TRIPOS>BOND
     1    1    2 1   
     2    1    6 1   
     3    1    9 1   
     4    2    3 1   
     5    2    7 2   
     6    3    4 2   
     7    4    5 1   
     8    4    8 1   
     9    5    6 2   
    10    5   21 1   
    11    6   22 1   
    12    8   23 1   
    13    8   24 1   
    14    9   10 1   
    15    9   13 1   
    16    9   25 1   
    17   10   11 1   
    18   10   26 1   
    19   10   27 1   
    20   11   12 1   
    21   11   14 1   
    22   11   28 1   
    23   12   13 1   
    24   12   15 1   
    25   12   29 1   
    26   14   30 1   
    27   15   16 1   
    28   15   31 1   
    29   15   32 1   
    30   16   17 1   
    31   17   18 1   
    32   17   19 2   
    33   17   20 1   
    34   18   33 1   
    35   20   34 1   
@<TRIPOS>SUBSTRUCTURE
     1 SC          1 TEMP              0 ****  ****    0 ROOT
