@<TRIPOS>MOLECULE
SC0
   55    55     1     0     0
SMALL
bcc


@<TRIPOS>ATOM
      1 CAA         0.2840   -1.1290    3.1670 c3        1 SC0     -0.198000
      2 CAM         1.1760    0.0510    2.8720 c3        1 SC0     -0.169000
      3 CAS         2.4460   -0.3480    2.1420 c3        1 SC0     -0.138000
      4 CAU         3.3460    0.8270    1.8430 c3        1 SC0     -0.241000
      5 CAO         4.6540    0.4210    1.0680 c3        1 SC0      0.105000
      6 CAI         5.4840    1.5180    0.7230 c2        1 SC0     -0.734000
      7 CAK         6.7840    1.7680    1.3650 c3        1 SC0      0.204000
      8 CAQ         7.3390    3.1960    1.1410 c3        1 SC0     -0.172000
      9 CAW         8.7950    3.2180    1.5430 c3        1 SC0     -1.299000
     10 PAX         9.3160    1.6860    1.0810 p5        1 SC0      2.052000
     11 OAE        10.0120    0.9410    2.1940 o         1 SC0     -0.936000
     12 OAF         7.8370    0.8980    0.9740 os        1 SC0     -0.777000
     13 OAC         9.9850    1.4730   -0.2400 o         1 SC0     -0.936000
     14 PAY         9.0390    5.1530    0.7850 p5        1 SC0      1.650500
     15 OAG         8.0120    5.9580    1.5440 o         1 SC0     -0.937500
     16 OAH        10.4360    5.5750    1.2050 o         1 SC0     -0.937500
     17 OAD         8.8210    5.1540   -0.6980 o         1 SC0     -0.937500
     18 CAR         8.9880    3.6290    2.9690 c3        1 SC0     -0.033000
     19 CAL         9.9450    2.9390    3.8880 c2        1 SC0     -0.014000
     20 CAJ        11.0760    3.4460    4.4050 c2        1 SC0     -0.312000
     21 CAP        11.7310    4.6980    3.9700 c3        1 SC0     -0.135000
     22 CAV        11.2010    5.9390    4.6680 c3        1 SC0     -0.121000
     23 CAT        11.4090    7.1560    3.7930 c3        1 SC0     -0.205000
     24 CAN        10.7200    8.3810    4.3510 c3        1 SC0     -0.142000
     25 CAB        10.8700    9.5630    3.4280 c3        1 SC0     -0.200000
     26 HAA1       -0.6430   -0.8120    3.7050 hc        1 SC0      0.040000
     27 HAA2        0.8200   -1.8740    3.8040 hc        1 SC0      0.040000
     28 HAA3       -0.0190   -1.6370    2.2200 hc        1 SC0      0.040000
     29 HAM1        1.4510    0.5610    3.8320 hc        1 SC0      0.062500
     30 HAM2        0.6140    0.7970    2.2520 hc        1 SC0      0.062500
     31 HAS1        3.0050   -1.0950    2.7640 hc        1 SC0      0.045500
     32 HAS2        2.1670   -0.8600    1.1830 hc        1 SC0      0.045500
     33 HAU1        3.6580    1.3190    2.7950 hc        1 SC0      0.047000
     34 HAU2        2.7920    1.5770    1.2270 hc        1 SC0      0.047000
     35 HAO1        4.2260   -0.1550    0.1770 hc        1 SC0     -0.044000
     36 HAO2        5.1720   -0.3300    1.7240 hc        1 SC0     -0.044000
     37 HAI         5.1950    2.1640   -0.1040 ha        1 SC0      0.058000
     38 HAK         6.6640    1.6180    2.4910 h1        1 SC0     -0.038000
     39 HAQ1        7.2760    3.4390    0.0460 hc        1 SC0      0.082500
     40 HAQ2        6.7350    3.9580    1.6920 hc        1 SC0      0.082500
     41 HAR1        9.2460    4.7310    3.0260 hc        1 SC0      0.047000
     42 HAR2        7.9980    3.5400    3.5300 hc        1 SC0      0.047000
     43 HAL         9.6340    1.9250    4.2060 ha        1 SC0      0.120000
     44 HAJ        11.6410    2.8610    5.1500 ha        1 SC0      0.033000
     45 HAP1       11.5590    4.8180    2.8490 hc        1 SC0      0.103000
     46 HAP2       12.8400    4.6320    4.1470 hc        1 SC0      0.103000
     47 HAV1       10.1030    5.8070    4.8550 hc        1 SC0      0.036000
     48 HAV2       11.6980    6.0840    5.6670 hc        1 SC0      0.036000
     49 HAT1       12.5050    7.3650    3.6780 hc        1 SC0      0.128500
     50 HAT2       10.9880    6.8950    2.7590 hc        1 SC0      0.128500
     51 HAN1       11.1320    8.6400    5.3640 hc        1 SC0      0.049500
     52 HAN2        9.6290    8.1490    4.4800 hc        1 SC0      0.049500
     53 HAB1       10.4510    9.3040    2.4240 hc        1 SC0      0.051667
     54 HAB2       11.9460    9.8380    3.3040 hc        1 SC0      0.051667
     55 HAB3       10.3290   10.4560    3.8280 hc        1 SC0      0.051667
@<TRIPOS>BOND
     1    1    2 1   
     2    1   26 1   
     3    1   27 1   
     4    1   28 1   
     5    2    3 1   
     6    2   29 1   
     7    2   30 1   
     8    3    4 1   
     9    3   31 1   
    10    3   32 1   
    11    4    5 1   
    12    4   33 1   
    13    4   34 1   
    14    5    6 1   
    15    5   35 1   
    16    5   36 1   
    17    6    7 1   
    18    6   37 1   
    19    7    8 1   
    20    7   12 1   
    21    7   38 1   
    22    8    9 1   
    23    8   39 1   
    24    8   40 1   
    25    9   10 1   
    26    9   14 1   
    27    9   18 1   
    28   10   11 1   
    29   10   12 1   
    30   10   13 1   
    31   14   15 1   
    32   14   16 1   
    33   14   17 1   
    34   18   19 1   
    35   18   41 1   
    36   18   42 1   
    37   19   20 1   
    38   19   43 1   
    39   20   21 1   
    40   20   44 1   
    41   21   22 1   
    42   21   45 1   
    43   21   46 1   
    44   22   23 1   
    45   22   47 1   
    46   22   48 1   
    47   23   24 1   
    48   23   49 1   
    49   23   50 1   
    50   24   25 1   
    51   24   51 1   
    52   24   52 1   
    53   25   53 1   
    54   25   54 1   
    55   25   55 1   
@<TRIPOS>SUBSTRUCTURE
     1 SC0         1 TEMP              0 ****  ****    0 ROOT
