@<TRIPOS>MOLECULE
SC0
   55    52     1     0     0
SMALL
bcc


@<TRIPOS>ATOM
      1 CAA        -6.8780   -0.0520   -4.0840 c3        1 SC0     -0.169000
      2 CAM        -6.3060   -1.2730   -3.3980 c3        1 SC0     -0.255000
      3 CAS        -4.9970   -0.9110   -2.7330 c3        1 SC0     -0.096000
      4 CAU        -4.4780   -2.1030   -1.9590 c3        1 SC0     -0.238000
      5 CAO        -3.2390   -1.7030   -1.1880 c3        1 SC0     -0.058000
      6 CAI        -2.9890   -2.7040   -0.0820 c2        1 SC0     -0.351000
      7 CAK        -1.8680   -2.6200    0.6620 c1        1 SC0     -0.018000
      8 CAQ        -0.8610   -1.5240    0.3920 c2        1 SC0     -0.115000
      9 CAW         0.2870   -1.6410    1.3700 c3        1 SC0     -1.179000
     10 PAX         1.1050   -3.2470    1.1520 p5        1 SC0      1.661000
     11 OAE         0.1840   -4.1850    0.4090 o         1 SC0     -0.960333
     12 OAF         2.3780   -3.0600    0.3600 o         1 SC0     -0.960333
     13 OAC         1.4360   -3.8320    2.5040 o         1 SC0     -0.960333
     14 PAY        -0.3470   -1.5110    3.0660 p5        1 SC0      1.661000
     15 OAG        -1.3070   -0.3490    3.1570 o         1 SC0     -0.960333
     16 OAH         0.8040   -1.2880    4.0180 o         1 SC0     -0.960333
     17 OAD        -1.0650   -2.7870    3.4350 o         1 SC0     -0.960333
     18 CAR         1.2810   -0.5300    1.1160 c3        1 SC0     -0.126000
     19 CAL         2.4980   -0.7320    1.9930 c2        1 SC0     -0.015000
     20 CAJ         3.4920    0.1780    1.9850 c1        1 SC0     -0.355000
     21 CAP         3.3920    1.4010    1.1000 c2        1 SC0     -0.057000
     22 CAV         4.7160    2.1320    1.0980 c3        1 SC0     -0.217000
     23 CAT         4.5050    3.5580    0.6400 c3        1 SC0     -0.107000
     24 CAN         5.8240    4.2980    0.6700 c3        1 SC0     -0.216000
     25 CAB         5.5920    5.7550    0.3350 c3        1 SC0     -0.183000
     26 HAA1       -6.2390    0.2780   -4.7500 hc        1 SC0      0.021000
     27 HAA2       -7.7190   -0.2900   -4.5280 hc        1 SC0      0.021000
     28 HAA3       -7.0470    0.6480   -3.4190 hc        1 SC0      0.021000
     29 HAM1       -6.9380   -1.5930   -2.7230 hc        1 SC0      0.165000
     30 HAM2       -6.1520   -1.9760   -4.0600 hc        1 SC0      0.165000
     31 HAS1       -5.1380   -0.1610   -2.1210 hc        1 SC0      0.002000
     32 HAS2       -4.3440   -0.6560   -3.4150 hc        1 SC0      0.002000
     33 HAU1       -5.1650   -2.4110   -1.3350 hc        1 SC0      0.144500
     34 HAU2       -4.2560   -2.8240   -2.5820 hc        1 SC0      0.144500
     35 HAO1       -2.4700   -1.6850   -1.7920 hc        1 SC0      0.007500
     36 HAO2       -3.3700   -0.8140   -0.8000 hc        1 SC0      0.007500
     37 HAI        -3.6380   -3.4120    0.0930 ha        1 SC0      0.043000
     38 HAK        -1.7070   -3.2660    1.3760 ha        1 SC0      0.203000
     39 HAQ1       -1.2920   -0.6520    0.4980 ha        1 SC0      0.068000
     40 HAQ2       -0.5220   -1.6110   -0.5210 ha        1 SC0      0.068000
     41 HAR1        0.8680    0.3320    1.3250 hc        1 SC0      0.072500
     42 HAR2        1.5510   -0.5420    0.1760 hc        1 SC0      0.072500
     43 HAL         2.5620   -1.5210    2.5640 ha        1 SC0      0.209000
     44 HAJ         4.2770    0.0470    2.5500 ha        1 SC0      0.045000
     45 HAP1        3.1700    1.1260    0.1880 ha        1 SC0      0.006000
     46 HAP2        2.6930    1.9930    1.4410 ha        1 SC0      0.006000
     47 HAV1        5.0900    2.1320    2.0020 hc        1 SC0      0.150000
     48 HAV2        5.3360    1.6820    0.4900 hc        1 SC0      0.150000
     49 HAT1        4.1510    3.5580   -0.2720 hc        1 SC0      0.010500
     50 HAT2        3.8680    4.0010    1.2360 hc        1 SC0      0.010500
     51 HAN1        6.2170    4.2280    1.5630 hc        1 SC0      0.146500
     52 HAN2        6.4330    3.9060    0.0130 hc        1 SC0      0.146500
     53 HAB1        6.4540    6.2110    0.2450 hc        1 SC0      0.028667
     54 HAB2        5.0980    5.8220   -0.5090 hc        1 SC0      0.028667
     55 HAB3        5.0720    6.1770    1.0520 hc        1 SC0      0.028667
@<TRIPOS>BOND
     1    1    2 1   
     2    1   26 1   
     3    1   27 1   
     4    1   28 1   
     5    2    3 1   
     6    2   29 1   
     7    2   30 1   
     8    3    4 1   
     9    3   31 1   
    10    3   32 1   
    11    4    5 1   
    12    4   33 1   
    13    4   34 1   
    14    5    6 1   
    15    5   35 1   
    16    5   36 1   
    17    6    7 1   
    18    6   37 1   
    19    7   38 1   
    20    8    9 1   
    21    8   39 1   
    22    8   40 1   
    23    9   10 1   
    24    9   14 1   
    25    9   18 1   
    26   10   11 1   
    27   10   12 1   
    28   10   13 1   
    29   14   15 1   
    30   14   16 1   
    31   14   17 1   
    32   18   19 1   
    33   18   41 1   
    34   18   42 1   
    35   19   20 1   
    36   19   43 1   
    37   20   44 1   
    38   21   22 1   
    39   21   45 1   
    40   21   46 1   
    41   22   23 1   
    42   22   47 1   
    43   22   48 1   
    44   23   24 1   
    45   23   49 1   
    46   23   50 1   
    47   24   25 1   
    48   24   51 1   
    49   24   52 1   
    50   25   53 1   
    51   25   54 1   
    52   25   55 1   
@<TRIPOS>SUBSTRUCTURE
     1 SC0         1 TEMP              0 ****  ****    0 ROOT
