@<TRIPOS>MOLECULE
SC0
   55    54     1     0     0
SMALL
bcc


@<TRIPOS>ATOM
      1 CAA         2.7430    2.9700   -1.1000 c3        1 SC0     -0.116100
      2 CAM         3.6110    2.1800   -0.1590 c3        1 SC0     -0.115400
      3 CAS         4.5410    1.2600   -0.9250 c3        1 SC0     -0.060400
      4 CAU         5.1090    0.1570   -0.0530 c3        1 SC0     -0.080400
      5 CAO         4.9960   -1.2190   -0.6950 c3        1 SC0      0.030800
      6 CAI         3.6990   -1.8730   -0.4010 c2        1 SC0     -0.391200
      7 CAK         2.5100   -1.2670   -0.5650 c2        1 SC0      0.021800
      8 CAQ         1.1940   -1.8680   -0.2050 c3        1 SC0     -0.031200
      9 CAW        -0.0000   -0.9560   -0.0000 c3        1 SC0     -0.378400
     10 PAX         0.3040   -0.2860    1.7210 p5        1 SC0      1.261700
     11 OAE         0.3760   -1.5310    2.6000 o         1 SC0     -0.975500
     12 OAF         1.6210    0.4750    1.7350 o         1 SC0     -0.975500
     13 OAC        -0.8720    0.5890    2.1430 o         1 SC0     -0.975500
     14 PAY        -0.3040   -0.2860   -1.7210 p5        1 SC0      1.261700
     15 OAG        -0.3760   -1.5320   -2.6000 o         1 SC0     -0.975500
     16 OAH        -1.6210    0.4750   -1.7360 o         1 SC0     -0.975500
     17 OAD         0.8720    0.5880   -2.1440 o         1 SC0     -0.975500
     18 CAR        -1.1950   -1.8670    0.2050 c3        1 SC0     -0.031200
     19 CAL        -2.5100   -1.2660    0.5650 c2        1 SC0      0.021800
     20 CAJ        -3.7000   -1.8710    0.4020 c2        1 SC0     -0.391200
     21 CAP        -4.9970   -1.2170    0.6950 c3        1 SC0      0.030800
     22 CAV        -5.1090    0.1590    0.0520 c3        1 SC0     -0.080400
     23 CAT        -4.5400    1.2620    0.9240 c3        1 SC0     -0.060400
     24 CAN        -3.6110    2.1810    0.1580 c3        1 SC0     -0.115400
     25 CAB        -2.7420    2.9720    1.0990 c3        1 SC0     -0.116100
     26 HAA1        2.0070    2.2560   -1.5920 hc        1 SC0      0.035033
     27 HAA2        2.1630    3.7410   -0.5390 hc        1 SC0      0.035033
     28 HAA3        3.3520    3.4970   -1.8800 hc        1 SC0      0.035033
     29 HAM1        4.2190    2.8600    0.4970 hc        1 SC0      0.077200
     30 HAM2        2.9140    1.5560    0.5090 hc        1 SC0      0.077200
     31 HAS1        3.9530    0.8130   -1.7740 hc        1 SC0      0.013200
     32 HAS2        5.3840    1.8500   -1.3810 hc        1 SC0      0.013200
     33 HAU1        6.1900    0.3750    0.1720 hc        1 SC0      0.023200
     34 HAU2        4.5470    0.1330    0.9220 hc        1 SC0      0.023200
     35 HAO1        5.1610   -1.1330   -1.8050 hc        1 SC0     -0.037300
     36 HAO2        5.8370   -1.8630   -0.3070 hc        1 SC0     -0.037300
     37 HAI         3.7740   -2.8720    0.0490 ha        1 SC0      0.062000
     38 HAK         2.3850   -0.2530   -1.0250 ha        1 SC0      0.211000
     39 HAQ1        0.9460   -2.5650   -1.0640 hc        1 SC0      0.032200
     40 HAQ2        1.3320   -2.4900    0.7270 hc        1 SC0      0.032200
     41 HAR1       -1.3330   -2.4900   -0.7270 hc        1 SC0      0.032200
     42 HAR2       -0.9470   -2.5650    1.0650 hc        1 SC0      0.032200
     43 HAL        -2.3850   -0.2520    1.0250 ha        1 SC0      0.211000
     44 HAJ        -3.7750   -2.8710   -0.0480 ha        1 SC0      0.062000
     45 HAP1       -5.8380   -1.8610    0.3080 hc        1 SC0     -0.037300
     46 HAP2       -5.1610   -1.1310    1.8050 hc        1 SC0     -0.037300
     47 HAV1       -4.5470    0.1350   -0.9230 hc        1 SC0      0.023200
     48 HAV2       -6.1900    0.3770   -0.1730 hc        1 SC0      0.023200
     49 HAT1       -5.3840    1.8530    1.3800 hc        1 SC0      0.013200
     50 HAT2       -3.9530    0.8150    1.7740 hc        1 SC0      0.013200
     51 HAN1       -2.9140    1.5570   -0.5100 hc        1 SC0      0.077200
     52 HAN2       -4.2180    2.8610   -0.4980 hc        1 SC0      0.077200
     53 HAB1       -3.3510    3.4990    1.8780 hc        1 SC0      0.035033
     54 HAB2       -2.0060    2.2570    1.5910 hc        1 SC0      0.035033
     55 HAB3       -2.1620    3.7430    0.5370 hc        1 SC0      0.035033
@<TRIPOS>BOND
     1    1    2 1   
     2    1   26 1   
     3    1   27 1   
     4    1   28 1   
     5    2    3 1   
     6    2   29 1   
     7    2   30 1   
     8    3    4 1   
     9    3   31 1   
    10    3   32 1   
    11    4    5 1   
    12    4   33 1   
    13    4   34 1   
    14    5    6 1   
    15    5   35 1   
    16    5   36 1   
    17    6    7 2   
    18    6   37 1   
    19    7    8 1   
    20    7   38 1   
    21    8    9 1   
    22    8   39 1   
    23    8   40 1   
    24    9   10 1   
    25    9   14 1   
    26    9   18 1   
    27   10   11 1   
    28   10   12 1   
    29   10   13 1   
    30   14   15 1   
    31   14   16 1   
    32   14   17 1   
    33   18   19 1   
    34   18   41 1   
    35   18   42 1   
    36   19   20 2   
    37   19   43 1   
    38   20   21 1   
    39   20   44 1   
    40   21   22 1   
    41   21   45 1   
    42   21   46 1   
    43   22   23 1   
    44   22   47 1   
    45   22   48 1   
    46   23   24 1   
    47   23   49 1   
    48   23   50 1   
    49   24   25 1   
    50   24   51 1   
    51   24   52 1   
    52   25   53 1   
    53   25   54 1   
    54   25   55 1   
@<TRIPOS>SUBSTRUCTURE
     1 SC0         1 TEMP              0 ****  ****    0 ROOT
