@<TRIPOS>MOLECULE
SC0
   55    55     1     0     0
SMALL
bcc


@<TRIPOS>ATOM
      1 CAA         1.4270   -0.9710    2.3850 c3        1 SC0     -0.198000
      2 CAM         1.6940    0.2160    1.4950 c3        1 SC0     -0.160000
      3 CAS         3.1240    0.2390    0.9890 c3        1 SC0     -0.146000
      4 CAU         3.4080    1.4220    0.1020 c3        1 SC0     -0.217000
      5 CAO         4.9430    1.5220   -0.2120 c3        1 SC0      0.103000
      6 CAI         5.7980    1.6170    0.9190 c2        1 SC0     -0.754000
      7 CAK         6.5510    2.8420    1.2530 c3        1 SC0      0.206000
      8 CAQ         6.6630    3.0900    2.7840 c3        1 SC0     -0.140000
      9 CAW         8.0550    3.5390    3.2010 c3        1 SC0     -1.287000
     10 PAX         9.0110    3.2630    1.8490 p5        1 SC0      2.051000
     11 OAE         9.8790    2.0370    1.9720 o         1 SC0     -0.941000
     12 OAF         7.8620    2.8870    0.7120 os        1 SC0     -0.778000
     13 OAC         9.7950    4.4050    1.2640 o         1 SC0     -0.941000
     14 PAY         7.3910    5.2020    4.2550 p5        1 SC0      1.651500
     15 OAG         6.6800    4.5820    5.4370 o         1 SC0     -0.941500
     16 OAH         8.6030    6.0010    4.6780 o         1 SC0     -0.941500
     17 OAD         6.4680    5.9950    3.3700 o         1 SC0     -0.941500
     18 CAR         8.5030    2.7010    4.3600 c3        1 SC0     -0.065000
     19 CAL         9.7020    2.8410    5.2390 c2        1 SC0     -0.034000
     20 CAJ        10.9560    3.2960    5.1580 c2        1 SC0     -0.225000
     21 CAP        11.6300    4.0200    4.0590 c3        1 SC0     -0.107000
     22 CAV        11.6470    5.5120    4.3340 c3        1 SC0     -0.176000
     23 CAT        11.7470    6.3380    3.0690 c3        1 SC0     -0.163000
     24 CAN        11.0660    7.6770    3.2630 c3        1 SC0     -0.181000
     25 CAB        11.0040    8.4610    1.9800 c3        1 SC0     -0.190000
     26 HAA1        0.3760   -0.9640    2.7650 hc        1 SC0      0.044000
     27 HAA2        2.1210   -0.9570    3.2600 hc        1 SC0      0.044000
     28 HAA3        1.5880   -1.9260    1.8280 hc        1 SC0      0.044000
     29 HAM1        1.4960    1.1620    2.0640 hc        1 SC0      0.052000
     30 HAM2        0.9820    0.1960    0.6270 hc        1 SC0      0.052000
     31 HAS1        3.8450    0.3010    1.8530 hc        1 SC0      0.085500
     32 HAS2        3.3300   -0.7160    0.4370 hc        1 SC0      0.085500
     33 HAU1        3.1100    2.3660    0.6190 hc        1 SC0      0.013000
     34 HAU2        2.8040    1.3420   -0.8430 hc        1 SC0      0.013000
     35 HAO1        5.0310    2.4080   -0.9010 hc        1 SC0     -0.049000
     36 HAO2        5.1090    0.5890   -0.8550 hc        1 SC0     -0.049000
     37 HAI         6.0500    0.7080    1.4650 ha        1 SC0      0.052000
     38 HAK         5.9970    3.7270    0.7970 h1        1 SC0      0.001000
     39 HAQ1        5.8760    3.8420    3.0620 hc        1 SC0      0.052000
     40 HAQ2        6.3570    2.1370    3.3060 hc        1 SC0      0.052000
     41 HAR1        7.6360    2.7040    5.0940 hc        1 SC0      0.074500
     42 HAR2        8.6180    1.6410    3.9630 hc        1 SC0      0.074500
     43 HAL         9.4690    2.3660    6.2240 ha        1 SC0      0.021000
     44 HAJ        11.6000    3.1730    6.0530 ha        1 SC0      0.014000
     45 HAP1       11.0880    3.8160    3.0840 hc        1 SC0      0.084000
     46 HAP2       12.6830    3.6370    3.9460 hc        1 SC0      0.084000
     47 HAV1       10.6610    5.7670    4.8390 hc        1 SC0      0.087500
     48 HAV2       12.4890    5.7710    5.0320 hc        1 SC0      0.087500
     49 HAT1       12.8200    6.4860    2.7690 hc        1 SC0      0.087500
     50 HAT2       11.2080    5.7880    2.2340 hc        1 SC0      0.087500
     51 HAN1       11.6010    8.2800    4.0460 hc        1 SC0      0.102000
     52 HAN2       10.0150    7.4510    3.6390 hc        1 SC0      0.102000
     53 HAB1       10.4350    7.8720    1.2180 hc        1 SC0      0.040000
     54 HAB2       12.0270    8.6740    1.5780 hc        1 SC0      0.040000
     55 HAB3       10.4900    9.4420    2.1350 hc        1 SC0      0.040000
@<TRIPOS>BOND
     1    1    2 1   
     2    1   26 1   
     3    1   27 1   
     4    1   28 1   
     5    2    3 1   
     6    2   29 1   
     7    2   30 1   
     8    3    4 1   
     9    3   31 1   
    10    3   32 1   
    11    4    5 1   
    12    4   33 1   
    13    4   34 1   
    14    5    6 1   
    15    5   35 1   
    16    5   36 1   
    17    6    7 1   
    18    6   37 1   
    19    7    8 1   
    20    7   12 1   
    21    7   38 1   
    22    8    9 1   
    23    8   39 1   
    24    8   40 1   
    25    9   10 1   
    26    9   14 1   
    27    9   18 1   
    28   10   11 1   
    29   10   12 1   
    30   10   13 1   
    31   14   15 1   
    32   14   16 1   
    33   14   17 1   
    34   18   19 1   
    35   18   41 1   
    36   18   42 1   
    37   19   20 1   
    38   19   43 1   
    39   20   21 1   
    40   20   44 1   
    41   21   22 1   
    42   21   45 1   
    43   21   46 1   
    44   22   23 1   
    45   22   47 1   
    46   22   48 1   
    47   23   24 1   
    48   23   49 1   
    49   23   50 1   
    50   24   25 1   
    51   24   51 1   
    52   24   52 1   
    53   25   53 1   
    54   25   54 1   
    55   25   55 1   
@<TRIPOS>SUBSTRUCTURE
     1 SC0         1 TEMP              0 ****  ****    0 ROOT
