@<TRIPOS>MOLECULE
SC1
   35    35     1     0     0
SMALL
bcc


@<TRIPOS>ATOM
      1 C1          1.4720   -2.0880   -0.3690 ce        1 SC1     -0.178400
      2 C2          2.4850   -1.2610   -0.0660 c2        1 SC1     -0.178200
      3 C3          2.2810    0.0300    0.6750 c3        1 SC1      0.219300
      4 C4          0.9260    0.7090    0.2480 c3        1 SC1      0.139100
      5 C5         -0.2300   -0.2000   -0.2690 c3        1 SC1      0.139100
      6 C6          0.0730   -1.6910   -0.0390 c3        1 SC1     -0.043200
      7 C7          1.7200   -3.4460   -0.9810 c         1 SC1      0.917800
      8 O1          3.3360    0.9190    0.4740 os        1 SC1     -0.610200
      9 O2          1.1690    1.6480   -0.8000 oh        1 SC1     -0.633800
     10 O3         -1.4490    0.1750    0.4150 os        1 SC1     -0.377600
     11 O4          1.5250   -4.5110   -0.3000 o         1 SC1     -0.920300
     12 O5          2.1600   -3.5690   -2.1740 o         1 SC1     -0.920300
     13 P1          4.6090    1.1630    1.5950 p5        1 SC1      1.346900
     14 O6          4.1640    0.6370    2.9380 o         1 SC1     -0.961167
     15 O7          5.8050    0.4300    1.0200 o         1 SC1     -0.961167
     16 O8          4.8090    2.6660    1.5560 o         1 SC1     -0.961167
     17 C8         -2.6780    0.0790   -0.2820 c3        1 SC1     -0.060400
     18 C9         -3.0150   -1.3410   -0.6680 c3        1 SC1     -0.103100
     19 C10        -2.7920    0.9820   -1.5300 c         1 SC1      0.938600
     20 O9         -2.6420    2.2470   -1.4900 o         1 SC1     -0.939800
     21 O10        -3.1090    0.4690   -2.6670 o         1 SC1     -0.939800
     22 P2         -3.9670    0.1060    1.2870 p5        1 SC1      1.220700
     23 O11        -5.3380   -0.0200    0.6420 o         1 SC1     -0.956167
     24 O12        -3.8770    1.3680    2.1110 o         1 SC1     -0.956167
     25 O13        -3.6700   -1.1380    2.0970 o         1 SC1     -0.956167
     26 H2          3.5250   -1.5050   -0.3250 ha        1 SC1      0.105000
     27 H3          2.2210   -0.2070    1.7810 h1        1 SC1      0.039700
     28 H4          0.5460    1.2840    1.1390 h1        1 SC1      0.031700
     29 H5         -0.3580   -0.0130   -1.3700 h1        1 SC1      0.052700
     30 H61        -0.1330   -1.9290    1.0390 hc        1 SC1      0.040200
     31 H62        -0.6450   -2.2970   -0.6510 hc        1 SC1      0.040200
     32 HO2         2.0470    2.0180   -0.6460 ho        1 SC1      0.399000
     33 H91        -2.7850   -2.0230    0.1880 hc        1 SC1      0.009700
     34 H92        -4.1120   -1.3790   -0.8830 hc        1 SC1      0.009700
     35 H93        -2.4660   -1.6850   -1.5790 hc        1 SC1      0.009700
@<TRIPOS>BOND
     1    1    2 2   
     2    1    6 1   
     3    1    7 1   
     4    2    3 1   
     5    2   26 1   
     6    3    4 1   
     7    3    8 1   
     8    3   27 1   
     9    4    5 1   
    10    4    9 1   
    11    4   28 1   
    12    5    6 1   
    13    5   10 1   
    14    5   29 1   
    15    6   30 1   
    16    6   31 1   
    17    7   11 1   
    18    7   12 1   
    19    8   13 1   
    20    9   32 1   
    21   10   17 1   
    22   13   14 1   
    23   13   15 1   
    24   13   16 1   
    25   17   18 1   
    26   17   19 1   
    27   17   22 1   
    28   18   33 1   
    29   18   34 1   
    30   18   35 1   
    31   19   20 1   
    32   19   21 1   
    33   22   23 1   
    34   22   24 1   
    35   22   25 1   
@<TRIPOS>SUBSTRUCTURE
     1 SC1         1 TEMP              0 ****  ****    0 ROOT
