@<TRIPOS>MOLECULE
SC1
   35    35     1     0     0
SMALL
bcc


@<TRIPOS>ATOM
      1 C1          0.2110    0.5400    0.0110 ce        1 SC1     -0.204400
      2 C2          1.5540    0.5780    0.0380 c2        1 SC1     -0.158200
      3 C3          2.3640    0.1960    1.2540 c3        1 SC1      0.257300
      4 C4          1.6450    0.6480    2.5750 c3        1 SC1      0.143100
      5 C5          0.1220    0.9740    2.4740 c3        1 SC1      0.099100
      6 C6         -0.5300    0.2690    1.2790 c3        1 SC1     -0.030200
      7 C7         -0.5720    0.7140   -1.2640 c         1 SC1      0.918800
      8 O1          3.6790    0.6310    1.1630 os        1 SC1     -0.578200
      9 O2          2.3090    1.7780    3.1210 oh        1 SC1     -0.633800
     10 O3         -0.4980    0.5740    3.7160 os        1 SC1     -0.381600
     11 O4         -1.3550   -0.2090   -1.6780 o         1 SC1     -0.923800
     12 O5         -0.4580    1.7660   -1.9820 o         1 SC1     -0.923800
     13 P1          4.9570   -0.4190    0.7240 p5        1 SC1      1.340900
     14 O6          4.4850   -1.8410    0.9300 o         1 SC1     -0.964833
     15 O7          5.2610   -0.0910   -0.7260 o         1 SC1     -0.964833
     16 O8          6.1190   -0.0360    1.6230 o         1 SC1     -0.964833
     17 C8         -1.4840    1.4210    4.2740 c3        1 SC1     -0.066400
     18 C9         -2.7170    1.5170    3.4140 c3        1 SC1     -0.098100
     19 C10        -0.9760    2.8300    4.6130 c         1 SC1      0.935600
     20 O9          0.2360    3.0580    4.9470 o         1 SC1     -0.939300
     21 O10        -1.7730    3.8370    4.5750 o         1 SC1     -0.939300
     22 P2         -2.3300    0.1160    5.5900 p5        1 SC1      1.219700
     23 O11        -3.5370    0.8550    6.1440 o         1 SC1     -0.953500
     24 O12        -1.3770   -0.2520    6.7020 o         1 SC1     -0.953500
     25 O13        -2.7910   -1.0740    4.7790 o         1 SC1     -0.953500
     26 H2          2.1370    0.8320   -0.8590 ha        1 SC1      0.108000
     27 H3          2.3730   -0.9420    1.2810 h1        1 SC1      0.029700
     28 H4          1.7560   -0.2050    3.3070 h1        1 SC1      0.012700
     29 H5          0.0070    2.0860    2.3440 h1        1 SC1      0.043700
     30 H61        -0.5490   -0.8360    1.4750 hc        1 SC1      0.031700
     31 H62        -1.5950    0.6060    1.1920 hc        1 SC1      0.031700
     32 HO2         1.7170    2.1140    3.8200 ho        1 SC1      0.431000
     33 H91        -3.5340    1.9400    4.0490 hc        1 SC1      0.009700
     34 H92        -3.0090    0.4940    3.0680 hc        1 SC1      0.009700
     35 H93        -2.5760    2.1770    2.5230 hc        1 SC1      0.009700
@<TRIPOS>BOND
     1    1    2 2   
     2    1    6 1   
     3    1    7 1   
     4    2    3 1   
     5    2   26 1   
     6    3    4 1   
     7    3    8 1   
     8    3   27 1   
     9    4    5 1   
    10    4    9 1   
    11    4   28 1   
    12    5    6 1   
    13    5   10 1   
    14    5   29 1   
    15    6   30 1   
    16    6   31 1   
    17    7   11 1   
    18    7   12 1   
    19    8   13 1   
    20    9   32 1   
    21   10   17 1   
    22   13   14 1   
    23   13   15 1   
    24   13   16 1   
    25   17   18 1   
    26   17   19 1   
    27   17   22 1   
    28   18   33 1   
    29   18   34 1   
    30   18   35 1   
    31   19   20 1   
    32   19   21 1   
    33   22   23 1   
    34   22   24 1   
    35   22   25 1   
@<TRIPOS>SUBSTRUCTURE
     1 SC1         1 TEMP              0 ****  ****    0 ROOT
