@<TRIPOS>MOLECULE
SC1
   35    35     1     0     0
SMALL
bcc


@<TRIPOS>ATOM
      1 C1          0.2230    0.5750    0.0420 ce        1 SC1     -0.178400
      2 C2          1.5550    0.4060    0.0720 c2        1 SC1     -0.178200
      3 C3          2.2970    0.0600    1.3330 c3        1 SC1      0.219300
      4 C4          1.6550    0.7830    2.5740 c3        1 SC1      0.139100
      5 C5          0.1400    1.1490    2.5190 c3        1 SC1      0.139100
      6 C6         -0.5580    0.5020    1.3110 c3        1 SC1     -0.043200
      7 C7         -0.5150    0.7740   -1.2590 c         1 SC1      0.917800
      8 O1          3.6510    0.3870    1.2460 os        1 SC1     -0.610200
      9 O2          2.3340    2.0150    2.8180 oh        1 SC1     -0.633800
     10 O3         -0.4830    0.7130    3.7500 os        1 SC1     -0.377600
     11 O4         -1.2760   -0.1430   -1.7230 o         1 SC1     -0.920300
     12 O5         -0.3780    1.8430   -1.9460 o         1 SC1     -0.920300
     13 P1          4.8890   -0.7470    0.9080 p5        1 SC1      1.346900
     14 O6          4.3480   -2.1310    1.1700 o         1 SC1     -0.961167
     15 O7          5.2760   -0.5090   -0.5380 o         1 SC1     -0.961167
     16 O8          5.9980   -0.3280    1.8530 o         1 SC1     -0.961167
     17 C8         -1.5510    1.4760    4.2800 c3        1 SC1     -0.060400
     18 C9         -2.7540    1.5010    3.3680 c3        1 SC1     -0.103100
     19 C10        -1.1860    2.9240    4.6740 c         1 SC1      0.938600
     20 O9         -0.2600    3.2090    5.5010 o         1 SC1     -0.939800
     21 O10        -1.8690    3.9100    4.2030 o         1 SC1     -0.939800
     22 P2         -2.3610    0.1060    5.5410 p5        1 SC1      1.220700
     23 O11        -3.5520    0.8250    6.1550 o         1 SC1     -0.956167
     24 O12        -1.4050   -0.3570    6.6140 o         1 SC1     -0.956167
     25 O13        -2.8480   -1.0320    4.6690 o         1 SC1     -0.956167
     26 H2          2.1670    0.4860   -0.8370 ha        1 SC1      0.105000
     27 H3          2.2110   -1.0570    1.4940 h1        1 SC1      0.039700
     28 H4          1.8200    0.1190    3.4690 h1        1 SC1      0.031700
     29 H5          0.0520    2.2680    2.4430 h1        1 SC1      0.052700
     30 H61        -0.7590   -0.5760    1.5570 hc        1 SC1      0.040200
     31 H62        -1.5540    0.9960    1.1690 hc        1 SC1      0.040200
     32 HO2         3.2560    1.8800    2.5650 ho        1 SC1      0.399000
     33 H91        -2.6450    2.2290    2.5270 hc        1 SC1      0.009700
     34 H92        -2.9290    0.4760    2.9570 hc        1 SC1      0.009700
     35 H93        -3.6360    1.8050    3.9840 hc        1 SC1      0.009700
@<TRIPOS>BOND
     1    1    2 2   
     2    1    6 1   
     3    1    7 1   
     4    2    3 1   
     5    2   26 1   
     6    3    4 1   
     7    3    8 1   
     8    3   27 1   
     9    4    5 1   
    10    4    9 1   
    11    4   28 1   
    12    5    6 1   
    13    5   10 1   
    14    5   29 1   
    15    6   30 1   
    16    6   31 1   
    17    7   11 1   
    18    7   12 1   
    19    8   13 1   
    20    9   32 1   
    21   10   17 1   
    22   13   14 1   
    23   13   15 1   
    24   13   16 1   
    25   17   18 1   
    26   17   19 1   
    27   17   22 1   
    28   18   33 1   
    29   18   34 1   
    30   18   35 1   
    31   19   20 1   
    32   19   21 1   
    33   22   23 1   
    34   22   24 1   
    35   22   25 1   
@<TRIPOS>SUBSTRUCTURE
     1 SC1         1 TEMP              0 ****  ****    0 ROOT
