@<TRIPOS>MOLECULE
SC1
   35    33     1     0     0
SMALL
bcc


@<TRIPOS>ATOM
      1 C1         -0.6490    0.2180   -2.3020 c1        1 SC1     -0.155000
      2 C2          1.0760    0.2080   -2.2900 c1        1 SC1     -0.174000
      3 C3          1.6890    0.2690   -0.9610 c2        1 SC1      0.104000
      4 C4          0.7890    1.1570    0.1130 c3        1 SC1      0.028000
      5 C5         -0.4460    0.8550    0.1900 c3        1 SC1      0.028000
      6 C6         -1.2980    0.9440   -1.2270 c2        1 SC1     -0.126000
      7 C7         -1.3980   -0.0590   -3.5870 c2        1 SC1      0.368000
      8 O1          3.0500    0.7410   -1.0280 os        1 SC1     -0.772000
      9 O2          0.8900    2.6130   -0.2860 oh        1 SC1     -0.361000
     10 O3         -0.5500   -0.5610    0.7100 os        1 SC1     -0.234000
     11 O4         -1.4950    0.8380   -4.4650 o         1 SC1     -0.655000
     12 O5         -1.9220   -1.1880   -3.7800 o         1 SC1     -0.655000
     13 P1          4.1890   -0.2930   -1.3920 p5        1 SC1      1.580500
     14 O6          5.4570    0.0780   -0.6600 o         1 SC1     -0.961167
     15 O7          4.4400   -0.2630   -2.8800 o         1 SC1     -0.961167
     16 O8          3.7590   -1.6810   -0.9820 o         1 SC1     -0.961167
     17 C8         -1.2900   -0.6780    1.8990 c3        1 SC1     -0.490000
     18 C9         -2.7670   -0.7050    1.5720 c3        1 SC1     -0.221000
     19 C10        -0.9940    0.5040    2.7960 c2        1 SC1      0.358000
     20 O9         -1.8550    1.4090    2.9490 o         1 SC1     -0.674500
     21 O10         0.1130    0.5800    3.3910 o         1 SC1     -0.674500
     22 P2         -0.8300   -2.2140    2.7500 p5        1 SC1      1.628500
     23 O11        -1.2130   -3.3980    1.8940 o         1 SC1     -0.956167
     24 O12        -1.5550   -2.2940    4.0720 o         1 SC1     -0.956167
     25 O13         0.6600   -2.2290    2.9910 o         1 SC1     -0.956167
     26 H2          1.5390   -0.2780   -2.9980 ha        1 SC1      0.105000
     27 H3          1.8270   -0.6350   -0.6150 h4        1 SC1      0.079000
     28 H4          1.1850    1.0530    1.0010 h1        1 SC1      0.071000
     29 H5         -0.8670    1.4530    0.8390 h1        1 SC1      0.092000
     30 H61        -2.2320    0.7620   -1.0020 ha        1 SC1      0.079500
     31 H62        -1.3740    1.8630   -1.5600 ha        1 SC1      0.079500
     32 HO2         1.3290    3.0630    0.3430 ho        1 SC1      0.198000
     33 H91        -2.9280   -1.3330    0.8370 hc        1 SC1      0.049000
     34 H92        -3.2710   -0.9910    2.3630 hc        1 SC1      0.049000
     35 H93        -3.0590    0.1920    1.3050 hc        1 SC1      0.049000
@<TRIPOS>BOND
     1    1    2 1   
     2    1    7 1   
     3    2   26 1   
     4    3    4 1   
     5    3    8 1   
     6    3   27 1   
     7    4    5 1   
     8    4    9 1   
     9    4   28 1   
    10    5    6 1   
    11    5   10 1   
    12    5   29 1   
    13    6   30 1   
    14    6   31 1   
    15    7   11 1   
    16    7   12 1   
    17    8   13 1   
    18    9   32 1   
    19   10   17 1   
    20   13   14 1   
    21   13   15 1   
    22   13   16 1   
    23   17   18 1   
    24   17   19 1   
    25   17   22 1   
    26   18   33 1   
    27   18   34 1   
    28   18   35 1   
    29   19   20 1   
    30   19   21 1   
    31   22   23 1   
    32   22   24 1   
    33   22   25 1   
@<TRIPOS>SUBSTRUCTURE
     1 SC1         1 TEMP              0 ****  ****    0 ROOT
