@<TRIPOS>MOLECULE
SC2
   18    15     1     0     0
SMALL
bcc


@<TRIPOS>ATOM
      1 C          -1.8400   -0.1800   -0.5500 c1        1 SC2      0.325000
      2 CB          0.1690   -1.2740   -1.4810 c3        1 SC2     -0.204000
      3 CT          0.4620    1.2360    1.1980 c1        1 SC2      0.285000
      4 CA         -0.3420   -0.0690   -0.7240 c3        1 SC2     -0.081000
      5 N           0.2800   -0.0130    0.5520 n2        1 SC2     -0.332000
      6 OXT        -2.6090    0.5340   -1.2460 os        1 SC2     -0.560000
      7 O          -2.3180   -0.9870    0.2900 o         1 SC2     -0.564000
      8 OT          0.0430    2.2540    0.6830 o         1 SC2     -0.407000
      9 CM          1.1780    1.3020    2.5290 c3        1 SC2     -0.244000
     10 SG         -0.5220   -1.2820   -3.1140 sh        1 SC2     -0.170000
     11 H2          0.5730   -0.7800    0.9500 hn        1 SC2      0.237000
     12 HA         -0.1310    0.7440   -1.2250 h1        1 SC2      0.119000
     13 HBC1        1.1440   -1.2330   -1.5400 h1        1 SC2      0.096500
     14 HBC2       -0.0960   -2.0900   -1.0120 h1        1 SC2      0.096500
     15 HMC1        0.7500    0.6880    3.1610 hc        1 SC2      0.090000
     16 HMC2        2.1160    1.0460    2.4080 hc        1 SC2      0.090000
     17 HMC3        1.1320    2.2160    2.8800 hc        1 SC2      0.090000
     18 HSG         0.0090   -2.1110   -3.7610 hs        1 SC2      0.134000
@<TRIPOS>BOND
     1    1    4 1   
     2    1    7 1   
     3    2    4 1   
     4    2   10 1   
     5    2   13 1   
     6    2   14 1   
     7    3    8 1   
     8    3    9 1   
     9    4    5 1   
    10    4   12 1   
    11    5   11 1   
    12    9   15 1   
    13    9   16 1   
    14    9   17 1   
    15   10   18 1   
@<TRIPOS>SUBSTRUCTURE
     1 SC2         1 TEMP              0 ****  ****    0 ROOT
