@<TRIPOS>MOLECULE
SC2
   18    17     1     0     0
SMALL
bcc


@<TRIPOS>ATOM
      1 C          -0.0090   -1.8650   -0.2210 c         1 SC2      0.908600
      2 CB         -1.7560   -0.1140   -0.3200 c3        1 SC2      0.042700
      3 CT          1.4900    1.3400    0.2210 c         1 SC2      0.643100
      4 CA         -0.3160   -0.3490    0.1210 c3        1 SC2     -0.054300
      5 N           0.6250    0.5530   -0.5120 n         1 SC2     -0.505900
      6 OXT        -0.6380   -2.7220    0.4500 o         1 SC2     -0.825300
      7 O           0.8220   -2.1110   -1.1380 o         1 SC2     -0.825300
      8 OT          1.3190    1.6240    1.4270 o         1 SC2     -0.636100
      9 CM          2.6580    1.9450   -0.5340 c3        1 SC2     -0.177100
     10 SG         -2.3960    1.4370    0.2850 sh        1 SC2     -0.419900
     11 H2          0.9960    0.1720   -1.3620 hn        1 SC2      0.310500
     12 HA         -0.2510   -0.2310    1.2410 h1        1 SC2      0.089700
     13 HBC1       -1.8380   -0.1290   -1.4320 h1        1 SC2      0.066700
     14 HBC2       -2.3640   -0.9570    0.0960 h1        1 SC2      0.066700
     15 HMC1        2.2980    2.5350   -1.4100 hc        1 SC2      0.050367
     16 HMC2        3.2220    2.6200    0.1520 hc        1 SC2      0.050367
     17 HMC3        3.3400    1.1380   -0.8940 hc        1 SC2      0.050367
     18 HSG        -3.6770    1.2060    0.0720 hs        1 SC2      0.165800
@<TRIPOS>BOND
     1    1    4 1   
     2    1    6 1   
     3    1    7 1   
     4    2    4 1   
     5    2   10 1   
     6    2   13 1   
     7    2   14 1   
     8    3    5 1   
     9    3    8 2   
    10    3    9 1   
    11    4    5 1   
    12    4   12 1   
    13    5   11 1   
    14    9   15 1   
    15    9   16 1   
    16    9   17 1   
    17   10   18 1   
@<TRIPOS>SUBSTRUCTURE
     1 SC2         1 TEMP              0 ****  ****    0 ROOT
