@<TRIPOS>MOLECULE
SC3
   49    52     1     0     0
SMALL
bcc


@<TRIPOS>ATOM
      1 N1          3.7530   -0.2160    0.3670 n         1 SC3     -0.477400
      2 C2          3.8960    1.0890   -0.1750 c         1 SC3      0.814500
      3 N3          2.7560    1.9090   -0.3930 n         1 SC3     -0.422300
      4 C4          1.5100    1.4100   -0.0540 cc        1 SC3      0.501200
      5 C5          1.3710    0.0920    0.4980 cd        1 SC3     -0.331200
      6 C6          2.5170   -0.7840    0.7170 c         1 SC3      0.762100
      7 N7          0.0160   -0.1070    0.7510 na        1 SC3     -0.097900
      8 C8         -0.6260    1.0720    0.3260 cd        1 SC3      0.561400
      9 N9          0.2590    2.0180   -0.1640 nc        1 SC3     -0.702000
     10 N10        -2.0480    1.2460    0.4410 nh        1 SC3     -0.693300
     11 C11        -2.7180    1.0100   -0.8370 c3        1 SC3      0.139300
     12 C12        -4.2460    1.1320   -0.6980 c3        1 SC3      0.101800
     13 N13        -4.6510    2.4360   -0.0870 n4        1 SC3     -0.763000
     14 C14        -3.9220    2.6720    1.1980 c3        1 SC3      0.101800
     15 C15        -2.3980    2.5410    1.0200 c3        1 SC3      0.139300
     16 C16        -0.5850   -1.3090    1.2800 c3        1 SC3      0.075600
     17 C17        -1.1300   -2.2430    0.2390 ca        1 SC3     -0.129300
     18 C18        -2.5080   -2.3270    0.0140 ca        1 SC3     -0.116000
     19 C19        -3.0090   -3.2390   -0.9130 ca        1 SC3     -0.131500
     20 C20        -2.1370   -4.0650   -1.6230 ca        1 SC3     -0.105000
     21 C21        -0.7620   -3.9830   -1.4000 ca        1 SC3     -0.131500
     22 C22        -0.2570   -3.0770   -0.4680 ca        1 SC3     -0.116000
     23 O23         2.4290   -1.9400    1.1690 o         1 SC3     -0.620500
     24 C24         4.9750   -0.9720    0.5460 c3        1 SC3      0.075300
     25 O25         5.0280    1.5210   -0.4670 o         1 SC3     -0.605500
     26 C26         2.8980    3.2320   -0.9440 c3        1 SC3      0.087300
     27 H111       -2.3570    1.7020   -1.6510 h1        1 SC3      0.098950
     28 H112       -2.4940   -0.0550   -1.1490 h1        1 SC3      0.098950
     29 H121       -4.7180    1.0520   -1.7180 hx        1 SC3      0.114950
     30 H122       -4.6410    0.3050   -0.0400 hx        1 SC3      0.114950
     31 H131       -4.4270    3.1950   -0.7420 hn        1 SC3      0.454800
     32 H132       -5.6620    2.4380    0.0840 hn        1 SC3      0.454800
     33 H141       -4.1640    3.7110    1.5620 hx        1 SC3      0.114950
     34 H142       -4.2950    1.9190    1.9500 hx        1 SC3      0.114950
     35 H151       -1.9290    2.6050    2.0440 h1        1 SC3      0.098950
     36 H152       -2.0210    3.4140    0.4100 h1        1 SC3      0.098950
     37 H161        0.2220   -1.8510    1.8660 h1        1 SC3      0.097700
     38 H162       -1.4060   -1.0010    1.9890 h1        1 SC3      0.097700
     39 H18        -3.1970   -1.6920    0.5900 ha        1 SC3      0.139000
     40 H19        -4.0940   -3.3210   -1.0740 ha        1 SC3      0.142500
     41 H20        -2.5350   -4.7880   -2.3520 ha        1 SC3      0.147000
     42 H21        -0.0730   -4.6410   -1.9530 ha        1 SC3      0.142500
     43 H22         0.8280   -3.0240   -0.2700 ha        1 SC3      0.139000
     44 H241        5.4460   -1.1600   -0.4550 h1        1 SC3      0.071700
     45 H242        5.6910   -0.3780    1.1750 h1        1 SC3      0.071700
     46 H243        4.7420   -1.9480    1.0480 h1        1 SC3      0.071700
     47 H261        3.9820    3.4420   -1.1500 h1        1 SC3      0.066033
     48 H262        2.3140    3.3050   -1.9000 h1        1 SC3      0.066033
     49 H263        2.5030    3.9880   -0.2130 h1        1 SC3      0.066033
@<TRIPOS>BOND
     1    1    2 1   
     2    1    6 1   
     3    1   24 1   
     4    2    3 1   
     5    2   25 2   
     6    3    4 1   
     7    3   26 1   
     8    4    5 2   
     9    4    9 1   
    10    5    6 1   
    11    5    7 1   
    12    6   23 2   
    13    7    8 1   
    14    7   16 1   
    15    8    9 2   
    16    8   10 1   
    17   10   11 1   
    18   10   15 1   
    19   11   12 1   
    20   11   27 1   
    21   11   28 1   
    22   12   13 1   
    23   12   29 1   
    24   12   30 1   
    25   13   14 1   
    26   13   31 1   
    27   13   32 1   
    28   14   15 1   
    29   14   33 1   
    30   14   34 1   
    31   15   35 1   
    32   15   36 1   
    33   16   17 1   
    34   16   37 1   
    35   16   38 1   
    36   17   18 ar  
    37   17   22 ar  
    38   18   19 ar  
    39   18   39 1   
    40   19   20 ar  
    41   19   40 1   
    42   20   21 ar  
    43   20   41 1   
    44   21   22 ar  
    45   21   42 1   
    46   22   43 1   
    47   24   44 1   
    48   24   45 1   
    49   24   46 1   
    50   26   47 1   
    51   26   48 1   
    52   26   49 1   
@<TRIPOS>SUBSTRUCTURE
     1 SC3         1 TEMP              0 ****  ****    0 ROOT
