@<TRIPOS>MOLECULE
SC3
   49    52     1     0     0
SMALL
bcc


@<TRIPOS>ATOM
      1 N1         -0.1410    0.0010   -0.1430 n         1 SC3     -0.477400
      2 C2          1.2660   -0.1690   -0.2380 c         1 SC3      0.814500
      3 N3          2.0610   -0.2840    0.9350 n         1 SC3     -0.422300
      4 C4          1.4280   -0.2370    2.1660 cc        1 SC3      0.501200
      5 C5          0.0060   -0.0690    2.2560 cd        1 SC3     -0.331200
      6 C6         -0.8380    0.0710    1.0750 c         1 SC3      0.762100
      7 N7         -0.3250   -0.0850    3.6100 na        1 SC3     -0.097900
      8 C8          0.8950   -0.2330    4.2960 cd        1 SC3      0.561400
      9 N9          1.9810   -0.3360    3.4430 nc        1 SC3     -0.702000
     10 N10         0.9560   -0.3030    5.7300 nh        1 SC3     -0.693300
     11 C11         1.3560    0.9790    6.3090 c3        1 SC3      0.139300
     12 C12         1.3580    0.9220    7.8470 c3        1 SC3      0.101800
     13 N13         2.1880   -0.2090    8.3660 n4        1 SC3     -0.763000
     14 C14         1.7860   -1.5020    7.7290 c3        1 SC3      0.101800
     15 C15         1.7960   -1.4060    6.1920 c3        1 SC3      0.139300
     16 C16        -1.6470    0.0860    4.1660 c3        1 SC3      0.075600
     17 C17        -1.9680    1.4880    4.5920 ca        1 SC3     -0.129300
     18 C18        -1.9660    1.8360    5.9460 ca        1 SC3     -0.116000
     19 C19        -2.3230    3.1260    6.3360 ca        1 SC3     -0.131500
     20 C20        -2.6750    4.0740    5.3750 ca        1 SC3     -0.105000
     21 C21        -2.6790    3.7290    4.0240 ca        1 SC3     -0.131500
     22 C22        -2.3300    2.4380    3.6300 ca        1 SC3     -0.116000
     23 O23        -2.0690    0.2440    1.1180 o         1 SC3     -0.620500
     24 C24        -0.8570    0.1130   -1.3960 c3        1 SC3      0.075300
     25 O25         1.8130   -0.2160   -1.3570 o         1 SC3     -0.605500
     26 C26         3.4870   -0.4570    0.8420 c3        1 SC3      0.087300
     27 H111        2.3660    1.3240    5.9440 h1        1 SC3      0.098950
     28 H112        0.5850    1.7490    6.0030 h1        1 SC3      0.098950
     29 H121        1.7740    1.8880    8.2520 hx        1 SC3      0.114950
     30 H122        0.3050    0.7810    8.2290 hx        1 SC3      0.114950
     31 H131        3.1750   -0.0240    8.1500 hn        1 SC3      0.454800
     32 H132        2.0820   -0.2770    9.3830 hn        1 SC3      0.454800
     33 H141        0.7530   -1.7620    8.0990 hx        1 SC3      0.114950
     34 H142        2.5090   -2.3020    8.0540 hx        1 SC3      0.114950
     35 H151        2.8640   -1.3280    5.8330 h1        1 SC3      0.098950
     36 H152        1.3640   -2.3670    5.7880 h1        1 SC3      0.098950
     37 H161       -1.7440   -0.6150    5.0440 h1        1 SC3      0.097700
     38 H162       -2.3850   -0.2280    3.3640 h1        1 SC3      0.097700
     39 H18        -1.7090    1.0830    6.7050 ha        1 SC3      0.139000
     40 H19        -2.3430    3.3940    7.4030 ha        1 SC3      0.142500
     41 H20        -2.9610    5.0910    5.6850 ha        1 SC3      0.147000
     42 H21        -2.9670    4.4730    3.2650 ha        1 SC3      0.142500
     43 H22        -2.3540    2.1520    2.5640 ha        1 SC3      0.139000
     44 H241       -0.6290   -0.7810   -2.0360 h1        1 SC3      0.071700
     45 H242       -0.5220    1.0380   -1.9360 h1        1 SC3      0.071700
     46 H243       -1.9600    0.1670   -1.1950 h1        1 SC3      0.071700
     47 H261        3.7810   -1.4270    1.3240 h1        1 SC3      0.066367
     48 H262        4.0020    0.3890    1.3720 h1        1 SC3      0.066367
     49 H263        3.7970   -0.4660   -0.2380 h1        1 SC3      0.066367
@<TRIPOS>BOND
     1    1    2 1   
     2    1    6 1   
     3    1   24 1   
     4    2    3 1   
     5    2   25 2   
     6    3    4 1   
     7    3   26 1   
     8    4    5 2   
     9    4    9 1   
    10    5    6 1   
    11    5    7 1   
    12    6   23 2   
    13    7    8 1   
    14    7   16 1   
    15    8    9 2   
    16    8   10 1   
    17   10   11 1   
    18   10   15 1   
    19   11   12 1   
    20   11   27 1   
    21   11   28 1   
    22   12   13 1   
    23   12   29 1   
    24   12   30 1   
    25   13   14 1   
    26   13   31 1   
    27   13   32 1   
    28   14   15 1   
    29   14   33 1   
    30   14   34 1   
    31   15   35 1   
    32   15   36 1   
    33   16   17 1   
    34   16   37 1   
    35   16   38 1   
    36   17   18 ar  
    37   17   22 ar  
    38   18   19 ar  
    39   18   39 1   
    40   19   20 ar  
    41   19   40 1   
    42   20   21 ar  
    43   20   41 1   
    44   21   22 ar  
    45   21   42 1   
    46   22   43 1   
    47   24   44 1   
    48   24   45 1   
    49   24   46 1   
    50   26   47 1   
    51   26   48 1   
    52   26   49 1   
@<TRIPOS>SUBSTRUCTURE
     1 SC3         1 TEMP              0 ****  ****    0 ROOT
