@<TRIPOS>MOLECULE
SC3
   49    52     1     0     0
SMALL
bcc


@<TRIPOS>ATOM
      1 N1         -0.1470   -0.0140   -0.1410 n         1 SC3     -0.477400
      2 C2          1.2600   -0.1810   -0.2370 c         1 SC3      0.814500
      3 N3          2.0570   -0.2910    0.9340 n         1 SC3     -0.422300
      4 C4          1.4260   -0.2410    2.1660 cc        1 SC3      0.501200
      5 C5          0.0040   -0.0760    2.2590 cd        1 SC3     -0.331200
      6 C6         -0.8420    0.0590    1.0780 c         1 SC3      0.762100
      7 N7         -0.3240   -0.0870    3.6130 na        1 SC3     -0.097900
      8 C8          0.8970   -0.2310    4.2970 cd        1 SC3      0.561400
      9 N9          1.9820   -0.3340    3.4430 nc        1 SC3     -0.702000
     10 N10         0.9610   -0.2960    5.7310 nh        1 SC3     -0.693300
     11 C11         1.3580    0.9890    6.3060 c3        1 SC3      0.139300
     12 C12         1.3630    0.9370    7.8440 c3        1 SC3      0.101800
     13 N13         2.1970   -0.1900    8.3650 ny        1 SC3     -0.763000
     14 C14         1.7970   -1.4860    7.7330 c3        1 SC3      0.101800
     15 C15         1.8050   -1.3950    6.1960 c3        1 SC3      0.139300
     16 C16        -1.6460    0.0820    4.1710 c3        1 SC3      0.075600
     17 C17        -1.9690    1.4850    4.5930 ca        1 SC3     -0.129300
     18 C18        -1.9660    1.8370    5.9460 ca        1 SC3     -0.116000
     19 C19        -2.3250    3.1280    6.3320 ca        1 SC3     -0.131500
     20 C20        -2.6800    4.0730    5.3690 ca        1 SC3     -0.105000
     21 C21        -2.6850    3.7230    4.0180 ca        1 SC3     -0.131500
     22 C22        -2.3340    2.4310    3.6280 ca        1 SC3     -0.116000
     23 O23        -2.0740    0.2290    1.1230 o         1 SC3     -0.620500
     24 C24        -0.8670    0.0920   -1.3930 c3        1 SC3      0.075300
     25 O25         1.8050   -0.2310   -1.3570 o         1 SC3     -0.605500
     26 C26         3.4830   -0.4610    0.8400 c3        1 SC3      0.087300
     27 H111        2.3670    1.3360    5.9370 h1        1 SC3      0.098950
     28 H112        0.5850    1.7560    5.9980 h1        1 SC3      0.098950
     29 H121        0.3110    0.7940    8.2280 hx        1 SC3      0.114950
     30 H122        1.7770    1.9050    8.2450 hx        1 SC3      0.114950
     31 H131        2.0930   -0.2550    9.3830 hn        1 SC3      0.454800
     32 H132        3.1830   -0.0030    8.1470 hn        1 SC3      0.454800
     33 H141        2.5230   -2.2830    8.0590 hx        1 SC3      0.114950
     34 H142        0.7650   -1.7480    8.1050 hx        1 SC3      0.114950
     35 H151        2.8720   -1.3150    5.8350 h1        1 SC3      0.098950
     36 H152        1.3750   -2.3590    5.7950 h1        1 SC3      0.098950
     37 H161       -1.7400   -0.6160    5.0520 h1        1 SC3      0.097700
     38 H162       -2.3850   -0.2360    3.3710 h1        1 SC3      0.097700
     39 H18        -1.7070    1.0870    6.7070 ha        1 SC3      0.139000
     40 H19        -2.3440    3.3990    7.3980 ha        1 SC3      0.142500
     41 H20        -2.9680    5.0900    5.6760 ha        1 SC3      0.147000
     42 H21        -2.9750    4.4650    3.2570 ha        1 SC3      0.142500
     43 H22        -2.3590    2.1420    2.5630 ha        1 SC3      0.139000
     44 H241       -1.9680    0.1460   -1.1890 h1        1 SC3      0.071700
     45 H242       -0.6380   -0.8040   -2.0300 h1        1 SC3      0.071700
     46 H243       -0.5330    1.0150   -1.9380 h1        1 SC3      0.071700
     47 H261        3.7910   -0.4730   -0.2410 h1        1 SC3      0.066367
     48 H262        3.7800   -1.4290    1.3240 h1        1 SC3      0.066367
     49 H263        3.9970    0.3880    1.3650 h1        1 SC3      0.066367
@<TRIPOS>BOND
     1    1    2 1   
     2    1    6 1   
     3    1   24 1   
     4    2    3 1   
     5    2   25 2   
     6    3    4 1   
     7    3   26 1   
     8    4    5 2   
     9    4    9 1   
    10    5    6 1   
    11    5    7 1   
    12    6   23 2   
    13    7    8 1   
    14    7   16 1   
    15    8    9 2   
    16    8   10 1   
    17   10   11 1   
    18   10   15 1   
    19   11   12 1   
    20   11   27 1   
    21   11   28 1   
    22   12   13 1   
    23   12   29 1   
    24   12   30 1   
    25   13   14 1   
    26   13   31 1   
    27   13   32 1   
    28   14   15 1   
    29   14   33 1   
    30   14   34 1   
    31   15   35 1   
    32   15   36 1   
    33   16   17 1   
    34   16   37 1   
    35   16   38 1   
    36   17   18 ar  
    37   17   22 ar  
    38   18   19 ar  
    39   18   39 1   
    40   19   20 ar  
    41   19   40 1   
    42   20   21 ar  
    43   20   41 1   
    44   21   22 ar  
    45   21   42 1   
    46   22   43 1   
    47   24   44 1   
    48   24   45 1   
    49   24   46 1   
    50   26   47 1   
    51   26   48 1   
    52   26   49 1   
@<TRIPOS>SUBSTRUCTURE
     1 SC3         1 TEMP              0 ****  ****    0 ROOT
