@<TRIPOS>MOLECULE
SC4
   44    46     1     0     0
SMALL
bcc


@<TRIPOS>ATOM
      1 C1          0.1550    1.8570    6.5090 ca        1 SC4     -0.126000
      2 C2         -0.1230    1.7590    5.1540 ca        1 SC4     -0.153000
      3 C3         -0.3920    0.5100    4.5720 ca        1 SC4      0.093100
      4 C4         -0.3810   -0.6520    5.3650 ca        1 SC4      0.028400
      5 CL1        -0.6980   -2.1880    4.7150 cl        1 SC4     -0.071400
      6 C5         -0.1120   -0.5570    6.7360 ca        1 SC4     -0.179000
      7 C6          0.1580    0.6930    7.3000 ca        1 SC4      0.108100
      8 O1         -0.7390    0.3680    3.2400 os        1 SC4     -0.320900
      9 C7         -0.1480    1.3370    2.3580 c3        1 SC4      0.175700
     10 C10         0.6760    0.8230   -1.2900 ca        1 SC4     -0.114000
     11 C11        -0.2620   -0.1430   -1.6680 ca        1 SC4     -0.086300
     12 C12        -1.1660   -0.6380   -0.7210 ca        1 SC4     -0.114000
     13 C13        -1.1300   -0.1740    0.5920 ca        1 SC4     -0.114000
     14 C8         -0.1920    0.7920    0.9690 ca        1 SC4     -0.092300
     15 C9          0.7120    1.2870    0.0220 ca        1 SC4     -0.114000
     16 O3          0.4440    0.9010    8.6360 os        1 SC4     -0.324900
     17 C21         0.4510   -0.2560    9.4640 c3        1 SC4      0.111700
     18 O2          0.2420    0.3120   -3.9430 os        1 SC4     -0.326900
     19 C16        -0.8520    0.2430   -6.1020 ca        1 SC4      0.009900
     20 C17        -0.7990   -0.0430   -7.4700 ca        1 SC4     -0.119000
     21 C18         0.3260   -0.6630   -8.0080 ca        1 SC4     -0.119000
     22 C19         1.4040   -1.0030   -7.1940 ca        1 SC4     -0.119000
     23 C20         1.3620   -0.7210   -5.8250 ca        1 SC4      0.009900
     24 C15         0.2340   -0.0870   -5.2700 ca        1 SC4      0.103100
     25 H1          0.3680    2.8290    6.9760 ha        1 SC4      0.154000
     26 H2         -0.1370    2.6680    4.5350 ha        1 SC4      0.145000
     27 H5         -0.1120   -1.4680    7.3510 ha        1 SC4      0.153000
     28 H71        -0.7580    2.2800    2.4180 h1        1 SC4      0.050200
     29 H72         0.9090    1.5520    2.6700 h1        1 SC4      0.050200
     30 H10         1.3810    1.2170   -2.0390 ha        1 SC4      0.142500
     31 H12        -1.9090   -1.3950   -1.0130 ha        1 SC4      0.142500
     32 H13        -1.8350   -0.5690    1.3400 ha        1 SC4      0.142500
     33 H9          1.4540    2.0450    0.3130 ha        1 SC4      0.142500
     34 H211        0.6980    0.1530   10.4770 h1        1 SC4      0.046367
     35 H212       -0.5540   -0.7430    9.4710 h1        1 SC4      0.046367
     36 H213        1.2350   -0.9770    9.1280 h1        1 SC4      0.046367
     37 H141        0.3190   -1.6180   -3.1300 h1        1 SC4      0.051700
     38 H142       -1.3610   -0.9120   -3.3690 h1        1 SC4      0.051700
     39 H17        -1.6470    0.2230   -8.1200 ha        1 SC4      0.153000
     40 H18         0.3640   -0.8850   -9.0860 ha        1 SC4      0.145000
     41 H19         2.2900   -1.4920   -7.6280 ha        1 SC4      0.153000
     42 C14        -0.3060   -0.6870   -3.0560 c3        1 SC4      0.174700
     43 CL2        -2.2410    0.9950   -5.4790 cl        1 SC4     -0.067900
     44 CL3         2.6920   -1.1540   -4.8620 cl        1 SC4     -0.067900
@<TRIPOS>BOND
     1    1    2 ar  
     2    1    7 ar  
     3    1   25 1   
     4    2    3 ar  
     5    2   26 1   
     6    3    4 ar  
     7    3    8 1   
     8    4    5 1   
     9    4    6 ar  
    10    6    7 ar  
    11    6   27 1   
    12    7   16 1   
    13    8    9 1   
    14    9   14 1   
    15    9   28 1   
    16    9   29 1   
    17   10   11 ar  
    18   10   15 ar  
    19   10   30 1   
    20   11   12 ar  
    21   11   42 1   
    22   12   13 ar  
    23   12   31 1   
    24   13   14 ar  
    25   13   32 1   
    26   14   15 ar  
    27   15   33 1   
    28   16   17 1   
    29   17   34 1   
    30   17   35 1   
    31   17   36 1   
    32   18   24 1   
    33   18   42 1   
    34   19   20 ar  
    35   19   24 ar  
    36   19   43 1   
    37   20   21 ar  
    38   20   39 1   
    39   21   22 ar  
    40   21   40 1   
    41   22   23 ar  
    42   22   41 1   
    43   23   24 ar  
    44   23   44 1   
    45   37   42 1   
    46   38   42 1   
@<TRIPOS>SUBSTRUCTURE
     1 SC4         1 TEMP              0 ****  ****    0 ROOT
