@<TRIPOS>MOLECULE
SC4
   44    40     1     0     0
SMALL
bcc


@<TRIPOS>ATOM
      1 C1          3.5900    4.3350   -1.9900 c1        1 SC4     -0.195000
      2 C2          2.7590    3.2710   -1.8500 c1        1 SC4     -0.096000
      3 C3          1.3890    3.4760   -1.5860 c1        1 SC4      0.015000
      4 C4          0.9120    4.7210   -1.4740 c1        1 SC4     -0.045000
      5 CL1        -0.7590    4.9790   -1.2650 cl        1 SC4      0.005000
      6 CL2        -4.8440   -4.7010    1.4740 cl        1 SC4      0.010000
      7 CL3         0.5310   -5.4800    1.2210 cl        1 SC4      0.011000
      8 C5          1.7600    5.8000   -1.6180 c1        1 SC4     -0.149000
      9 C6          3.1020    5.5960   -1.8770 c1        1 SC4      0.083000
     10 O1          0.5410    2.3730   -1.3570 os        1 SC4     -0.216000
     11 C7         -0.0190    2.3620   -0.1350 c3        1 SC4      0.016000
     12 C10        -0.4630   -1.0560    1.6980 c1        1 SC4     -0.126000
     13 C11        -1.5430   -1.6250    0.9760 c1        1 SC4     -0.081000
     14 C12        -2.1070   -0.9280   -0.1420 c1        1 SC4     -0.102000
     15 C13        -1.6000    0.3030   -0.5210 c1        1 SC4     -0.103000
     16 C8         -0.4950    0.8930    0.2130 c2        1 SC4     -0.080000
     17 C9          0.0630    0.2070    1.3140 c2        1 SC4     -0.129000
     18 O3          3.9790    6.6980   -1.9560 os        1 SC4     -0.207000
     19 C21         4.6690    6.9530   -0.7810 c3        1 SC4     -0.077000
     20 C14        -2.2130   -2.8990    1.4940 c3        1 SC4      0.018000
     21 O2         -1.5540   -4.0650    0.9310 os        1 SC4     -0.208000
     22 C16        -3.4210   -5.7840    1.2200 c2        1 SC4     -0.069000
     23 C17        -3.6100   -7.1010    0.9180 c2        1 SC4     -0.119000
     24 C18        -2.5230   -7.9150    0.6920 c1        1 SC4     -0.120000
     25 C19        -1.2650   -7.4100    0.7700 c1        1 SC4     -0.119000
     26 C20        -1.0710   -6.0950    1.0710 c2        1 SC4     -0.068000
     27 C15        -2.1480   -5.2760    1.2970 c2        1 SC4      0.059000
     28 H1          4.5630    4.1900   -2.1780 ha        1 SC4      0.144000
     29 H2          3.1010    2.3910   -1.9290 ha        1 SC4      0.152000
     30 H5          1.4040    6.7310   -1.5340 ha        1 SC4      0.166000
     31 H71        -0.7720    2.9470   -0.1270 h1        1 SC4      0.087000
     32 H72         0.6550    2.6740    0.5470 h1        1 SC4      0.087000
     33 H10        -0.0930   -1.5200    2.4370 ha        1 SC4      0.131000
     34 H12        -2.8880   -1.3400   -0.6610 ha        1 SC4      0.153000
     35 H13        -2.0050    0.7990   -1.3220 ha        1 SC4      0.155000
     36 H9          0.8670    0.6300    1.8510 ha        1 SC4      0.130000
     37 H211        3.9860    7.2070   -0.0220 h1        1 SC4      0.086000
     38 H212        5.1840    6.1290   -0.5080 h1        1 SC4      0.086000
     39 H213        5.2980    7.7000   -0.9230 h1        1 SC4      0.086000
     40 H141       -2.1460   -2.9280    2.4730 h1        1 SC4      0.090000
     41 H142       -3.1860   -2.9010    1.2240 h1        1 SC4      0.090000
     42 H17        -4.4740   -7.4510    0.8620 ha        1 SC4      0.152000
     43 H18        -2.6610   -8.8930    0.4670 ha        1 SC4      0.144000
     44 H19        -0.4910   -7.9960    0.6060 ha        1 SC4      0.152000
@<TRIPOS>BOND
     1    1    9 1   
     2    1   28 1   
     3    2    3 1   
     4    2   29 1   
     5    3   10 1   
     6    4    5 1   
     7    4    8 1   
     8    6   22 1   
     9    7   26 1   
    10    8   30 1   
    11    9   18 1   
    12   10   11 1   
    13   11   16 1   
    14   11   31 1   
    15   11   32 1   
    16   12   17 1   
    17   12   33 1   
    18   13   14 1   
    19   13   20 1   
    20   14   34 1   
    21   15   16 1   
    22   15   35 1   
    23   16   17 1   
    24   17   36 1   
    25   18   19 1   
    26   19   37 1   
    27   19   38 1   
    28   19   39 1   
    29   20   21 1   
    30   20   40 1   
    31   20   41 1   
    32   21   27 1   
    33   22   23 1   
    34   22   27 1   
    35   23   24 1   
    36   23   42 1   
    37   24   43 1   
    38   25   26 1   
    39   25   44 1   
    40   26   27 1   
@<TRIPOS>SUBSTRUCTURE
     1 SC4         1 TEMP              0 ****  ****    0 ROOT
