@<TRIPOS>MOLECULE
SC4
   44    45     1     0     0
SMALL
bcc


@<TRIPOS>ATOM
      1 C1          0.1460    0.7240    0.2230 c2        1 SC4     -0.051000
      2 C2          1.4830    0.9450    0.2260 c2        1 SC4     -0.184000
      3 C3          2.3960   -0.1230    0.5760 c2        1 SC4      0.074000
      4 C4          1.9510   -1.3600    0.9200 c2        1 SC4     -0.126000
      5 CL1         2.9890   -2.6330    1.3540 cl        1 SC4     -0.007000
      6 C5          0.5050   -1.7100    0.9280 c3        1 SC4     -0.060000
      7 C6         -0.3580   -0.5680    0.5710 c2        1 SC4     -0.213000
      8 O1          3.7550    0.1380    0.4520 os        1 SC4     -0.221000
      9 C7          4.2530    1.0060    1.4880 c3        1 SC4      0.014000
     10 C10         7.5020    2.9640    1.1540 c2        1 SC4     -0.137000
     11 C11         8.3300    2.0790    0.5630 c2        1 SC4     -0.097000
     12 C12         7.8870    0.7500    0.1910 c2        1 SC4     -0.104000
     13 C13         6.4710    0.3550    0.4560 c3        1 SC4     -0.082000
     14 C8          5.6500    1.3940    1.1320 c2        1 SC4     -0.099000
     15 C9          6.1310    2.6150    1.4430 c2        1 SC4     -0.131000
     16 O3         -1.6960   -0.6870    0.5420 os        1 SC4      0.094000
     17 C21        -2.2940   -1.8230    0.8280 c2        1 SC4     -0.281000
     18 O2         10.0020    0.2390   -0.7290 os        1 SC4     -0.163000
     19 C16        11.1570   -1.8300   -0.1740 c2        1 SC4     -0.167000
     20 C17        14.7900   -2.2660   -3.3170 c1        1 SC4      0.400000
     21 C18        13.5320   -1.8330   -3.3430 c2        1 SC4     -0.529000
     22 C19        12.9460   -1.1420   -2.2690 c1        1 SC4     -0.026000
     23 C20        11.6110   -0.5760   -2.2870 c3        1 SC4     -0.049000
     24 C15        10.8840   -0.8030   -0.9960 c2        1 SC4      0.036000
     25 H1         -0.5750    1.5100   -0.0440 ha        1 SC4      0.143000
     26 H2          1.9160    1.9150   -0.0520 ha        1 SC4      0.150000
     27 H5          0.2160   -2.0910    1.9530 hc        1 SC4      0.099000
     28 H71         4.2460    0.4380    2.4580 h1        1 SC4      0.086500
     29 H72         3.5880    1.9070    1.5780 h1        1 SC4      0.086500
     30 H10         5.5040    3.3770    1.9290 ha        1 SC4      0.127000
     31 H12         5.9660    0.0950   -0.5200 hc        1 SC4      0.112000
     32 H13         6.4520   -0.5800    1.0840 hc        1 SC4      0.112000
     33 H9          7.8410    3.9710    1.4360 ha        1 SC4      0.130000
     34 H211        0.3170   -2.5620    0.2090 hc        1 SC4      0.099000
     35 H212       -3.3850   -1.7440    0.7610 h4        1 SC4      0.160500
     36 H213       -1.7640   -2.7350    1.0990 h4        1 SC4      0.160500
     37 H141        8.4090   -1.1690   -0.6900 h4        1 SC4      0.152000
     38 H142        9.3800    2.3300    0.3420 ha        1 SC4      0.140000
     39 H17        11.9420   -2.5610   -0.4200 h4        1 SC4      0.169000
     40 H18        12.9450   -2.0500   -4.2700 ha        1 SC4      0.198000
     41 H19        11.7500    0.5410   -2.4350 h1        1 SC4      0.185000
     42 C14         8.7040   -0.1500   -0.4040 c2        1 SC4     -0.041000
     43 CL2        10.3980   -2.1390    1.2960 cl        1 SC4      0.006000
     44 CL3        10.5340   -1.0720   -3.6340 cl        1 SC4     -0.163000
@<TRIPOS>BOND
     1    1    2 1   
     2    1    7 1   
     3    1   25 1   
     4    2    3 1   
     5    2   26 1   
     6    3    4 1   
     7    3    8 1   
     8    4    5 1   
     9    4    6 1   
    10    6    7 1   
    11    6   27 1   
    12    6   34 1   
    13    7   16 1   
    14    8    9 1   
    15    9   14 1   
    16    9   28 1   
    17    9   29 1   
    18   10   11 1   
    19   10   15 1   
    20   10   33 1   
    21   11   12 1   
    22   11   38 1   
    23   12   13 1   
    24   12   42 1   
    25   13   14 1   
    26   13   31 1   
    27   13   32 1   
    28   14   15 1   
    29   15   30 1   
    30   16   17 1   
    31   17   35 1   
    32   17   36 1   
    33   18   24 1   
    34   18   42 1   
    35   19   24 1   
    36   19   39 1   
    37   19   43 1   
    38   20   21 1   
    39   21   22 1   
    40   21   40 1   
    41   22   23 1   
    42   23   24 1   
    43   23   41 1   
    44   23   44 1   
    45   37   42 1   
@<TRIPOS>SUBSTRUCTURE
     1 SC4         1 TEMP              0 ****  ****    0 ROOT
