@<TRIPOS>MOLECULE
SC4
   44    45     1     0     0
SMALL
bcc


@<TRIPOS>ATOM
      1 C1         -0.3370   -0.3700    0.1320 c2        1 SC4     -0.045000
      2 C2          1.0020   -0.4880   -0.0470 c2        1 SC4     -0.190000
      3 C3          1.9040   -0.2430    1.0570 c2        1 SC4      0.070000
      4 C4          1.4530    0.1210    2.2870 c2        1 SC4     -0.121000
      5 Cl1         2.4850    0.4350    3.5980 cl        1 SC4     -0.003000
      6 C5          0.0030    0.2560    2.5900 c3        1 SC4     -0.060000
      7 C6         -0.8500   -0.0000    1.4130 c2        1 SC4     -0.218000
      8 O1          3.2560   -0.4900    0.8370 os        1 SC4     -0.225000
      9 C7          3.8790    0.5250    0.0290 c3        1 SC4      0.001000
     10 C10         7.3860    0.3470   -1.4250 c2        1 SC4      0.011000
     11 C11         7.9470   -0.6960   -0.7390 c2        1 SC4     -0.194000
     12 C12         7.2210   -1.4220    0.2470 c1        1 SC4     -0.095000
     13 C13         5.8440   -1.0430    0.5150 c3        1 SC4     -0.194000
     14 C8          5.2790    0.0960   -0.2480 c2        1 SC4     -0.056000
     15 C9          6.0310    0.7470   -1.1730 c2        1 SC4     -0.198000
     16 O3         -2.1880    0.0920    1.4890 os        1 SC4      0.094000
     17 C21        -2.7960    0.4120    2.6100 c2        1 SC4     -0.271000
     18 O2         10.0550   -0.0930   -1.6560 os        1 SC4     -0.239000
     19 C16        11.8590   -1.0160   -2.9470 c2        1 SC4     -0.147000
     20 C17        15.8260   -0.9760   -0.2430 c1        1 SC4      0.395000
     21 C18        14.7890   -0.1820   -0.4900 c2        1 SC4     -0.528000
     22 C19        13.4730   -0.6650   -0.6050 c1        1 SC4     -0.030000
     23 C20        12.3020    0.1680   -0.7950 c3        1 SC4     -0.061000
     24 C15        11.3940   -0.3830   -1.8560 c2        1 SC4      0.040000
     25 H1         -1.0530   -0.5540   -0.6830 ha        1 SC4      0.144000
     26 H2          1.4390   -0.7870   -1.0090 ha        1 SC4      0.148000
     27 H5         -0.2030    1.2970    2.9830 hc        1 SC4      0.100000
     28 H71         3.8750    1.4940    0.6000 h1        1 SC4      0.096000
     29 H72         3.3000    0.6530   -0.9250 h1        1 SC4      0.096000
     30 H10         5.6290    1.5930   -1.7500 ha        1 SC4      0.136000
     31 H12         5.1990   -1.9610    0.3460 hc        1 SC4      0.180000
     32 H13         5.7510   -0.8350    1.6250 hc        1 SC4      0.180000
     33 H9          7.9590    0.9100   -2.1830 ha        1 SC4      0.154000
     34 H211       -0.2780   -0.4580    3.4210 hc        1 SC4      0.100000
     35 H212       -2.2750    0.6160    3.5440 h4        1 SC4      0.162000
     36 H213       -3.8850    0.4460    2.4950 h4        1 SC4      0.162000
     37 H141        9.8570   -1.3840   -0.0070 h1        1 SC4      0.098000
     38 H142        9.3530   -2.0680   -1.6340 h1        1 SC4      0.098000
     39 H17        12.9360   -1.1610   -3.1130 h4        1 SC4      0.161000
     40 H18        15.0050    0.9090   -0.6080 ha        1 SC4      0.198000
     41 H19        11.7510    0.1580    0.1970 h1        1 SC4      0.177000
     42 C14         9.3450   -1.1560   -0.9790 c3        1 SC4      0.036000
     43 Cl2        10.9020   -1.6670   -4.1700 cl        1 SC4      0.001000
     44 Cl3        12.5810    1.9080   -1.1230 cl        1 SC4     -0.163000
@<TRIPOS>BOND
     1    1    2 1   
     2    1    7 1   
     3    1   25 1   
     4    2    3 1   
     5    2   26 1   
     6    3    4 1   
     7    3    8 1   
     8    4    5 1   
     9    4    6 1   
    10    6    7 1   
    11    6   27 1   
    12    6   34 1   
    13    7   16 1   
    14    8    9 1   
    15    9   14 1   
    16    9   28 1   
    17    9   29 1   
    18   10   11 1   
    19   10   15 1   
    20   10   33 1   
    21   11   12 1   
    22   11   42 1   
    23   12   13 1   
    24   13   14 1   
    25   13   31 1   
    26   13   32 1   
    27   14   15 1   
    28   15   30 1   
    29   16   17 1   
    30   17   35 1   
    31   17   36 1   
    32   18   24 1   
    33   18   42 1   
    34   19   24 1   
    35   19   39 1   
    36   19   43 1   
    37   20   21 1   
    38   21   22 1   
    39   21   40 1   
    40   22   23 1   
    41   23   24 1   
    42   23   41 1   
    43   23   44 1   
    44   37   42 1   
    45   38   42 1   
@<TRIPOS>SUBSTRUCTURE
     1 SC4         1 TEMP              0 ****  ****    0 ROOT
