@<TRIPOS>MOLECULE
SC5
   53    54     1     0     0
SMALL
bcc


@<TRIPOS>ATOM
      1 C1         -0.5940    0.4480    0.8270 ca        1 SC5     -0.041000
      2 C2          0.7080    0.1940    0.3860 ca        1 SC5     -0.109500
      3 C3          1.7280   -0.0250    1.3080 ca        1 SC5     -0.096000
      4 C4          1.4500    0.0140    2.6840 ca        1 SC5     -0.231300
      5 C5          0.1450    0.2840    3.1240 ca        1 SC5     -0.096000
      6 C6         -0.8720    0.4930    2.1960 ca        1 SC5     -0.109500
      7 C7          3.2290   -1.6000    3.3850 c3        1 SC5     -0.157100
      8 C8          2.5060   -0.3000    3.6880 c3        1 SC5      0.225800
      9 C9          5.9740   -0.0340    5.5460 c3        1 SC5      0.089800
     10 C10         6.4330   -1.3520    6.2420 c3        1 SC5      0.339900
     11 O1          6.2120   -1.1740    7.6160 oh        1 SC5     -0.660300
     12 O2          5.5070   -2.3300    5.8310 oh        1 SC5     -0.660300
     13 N1          4.5940    2.6320    5.0420 nu        1 SC5     -0.788600
     14 C11         3.8680    1.4050    5.1090 c3        1 SC5      0.632900
     15 N2          4.5700    0.2920    5.9340 ny        1 SC5     -0.824000
     16 N3          3.5040    0.8900    3.7070 ny        1 SC5     -0.835000
     17 C12         3.4800    7.1100    8.4380 c3        1 SC5      0.156100
     18 N4          3.6530    8.4540    7.8050 nz        1 SC5     -0.839600
     19 C13         2.7130    5.2500    6.9360 ca        1 SC5     -0.057500
     20 C14         2.9650    4.1320    6.1420 ca        1 SC5     -0.139000
     21 C15         4.2910    3.7140    5.9110 ca        1 SC5      0.118600
     22 C16         5.3530    4.4490    6.4870 ca        1 SC5     -0.139000
     23 C17         5.0830    5.5650    7.2740 ca        1 SC5     -0.057500
     24 C18         3.7650    5.9730    7.5080 ca        1 SC5     -0.156300
     25 H1         -1.4050    0.6030    0.0920 ha        1 SC5      0.186000
     26 H2          0.9250    0.1520   -0.6960 ha        1 SC5      0.180500
     27 H3          2.7420   -0.2520    0.9460 ha        1 SC5      0.136500
     28 H5         -0.0930    0.2970    4.1990 ha        1 SC5      0.136500
     29 H6         -1.9040    0.6800    2.5420 ha        1 SC5      0.180500
     30 H71         3.9900   -1.8650    4.1600 hc        1 SC5      0.098033
     31 H72         2.4550   -2.4170    3.3690 hc        1 SC5      0.098033
     32 H73         3.7150   -1.5920    2.3770 hc        1 SC5      0.098033
     33 H8          2.0480   -0.3440    4.7210 hx        1 SC5      0.085700
     34 H91         6.0380   -0.1910    4.4340 hx        1 SC5      0.117200
     35 H92         6.6600    0.7970    5.8720 hx        1 SC5      0.117200
     36 H10         7.4950   -1.5910    5.9630 h2        1 SC5      0.123700
     37 HO1         6.7670   -1.7900    8.1200 ho        1 SC5      0.480500
     38 HO2         5.7560   -3.1890    6.2040 ho        1 SC5      0.480500
     39 HN1         5.5290    2.6130    4.6860 hn        1 SC5      0.463800
     40 H11         2.8670    1.5730    5.6480 hx        1 SC5      0.165700
     41 HN2         4.0220   -0.5870    5.8850 hn        1 SC5      0.493300
     42 HN3         4.3410    0.6270    3.1770 hn        1 SC5      0.473800
     43 H121        4.1790    7.0620    9.3280 hx        1 SC5      0.132200
     44 H122        2.4170    7.0500    8.8210 hx        1 SC5      0.132200
     45 HN41        3.4670    9.1880    8.5020 hn        1 SC5      0.471800
     46 HN42        4.6100    8.5670    7.4540 hn        1 SC5      0.471800
     47 H13         1.6640    5.5520    7.1110 ha        1 SC5      0.173500
     48 H14         2.1070    3.6080    5.6900 ha        1 SC5      0.161000
     49 H16         6.4050    4.1640    6.3150 ha        1 SC5      0.161000
     50 H17         5.9290    6.1120    7.7270 ha        1 SC5      0.173500
     51 H22         4.5810    0.5860    6.9250 hn        1 SC5      0.493300
     52 H32         3.0510    1.6750    3.2040 hn        1 SC5      0.473800
     53 H43         3.0010    8.5720    7.0210 hn        1 SC5      0.471800
@<TRIPOS>BOND
     1    1    2 ar  
     2    1    6 ar  
     3    1   25 1   
     4    2    3 ar  
     5    2   26 1   
     6    3    4 ar  
     7    3   27 1   
     8    4    5 ar  
     9    4    8 1   
    10    5    6 ar  
    11    5   28 1   
    12    6   29 1   
    13    7    8 1   
    14    7   30 1   
    15    7   31 1   
    16    7   32 1   
    17    8   16 1   
    18    8   33 1   
    19    9   10 1   
    20    9   15 1   
    21    9   34 1   
    22    9   35 1   
    23   10   11 1   
    24   10   12 1   
    25   10   36 1   
    26   11   37 1   
    27   12   38 1   
    28   13   14 1   
    29   13   21 1   
    30   13   39 1   
    31   14   15 1   
    32   14   16 1   
    33   14   40 1   
    34   15   41 1   
    35   15   51 1   
    36   16   42 1   
    37   16   52 1   
    38   17   18 1   
    39   17   24 1   
    40   17   43 1   
    41   17   44 1   
    42   18   45 1   
    43   18   46 1   
    44   18   53 1   
    45   19   20 ar  
    46   19   24 ar  
    47   19   47 1   
    48   20   21 ar  
    49   20   48 1   
    50   21   22 ar  
    51   22   23 ar  
    52   22   49 1   
    53   23   24 ar  
    54   23   50 1   
@<TRIPOS>SUBSTRUCTURE
     1 SC5         1 TEMP              0 ****  ****    0 ROOT
