@<TRIPOS>MOLECULE
SC5
   54    54     1     0     0
SMALL
bcc


@<TRIPOS>ATOM
      1 C1       -993.3430-1864.9500-1444.0440 ca        1 SC5      0.062000
      2 C2       -992.6960-1863.7370-1443.7580 ca        1 SC5     -0.173000
      3 C3       -991.3560-1863.5740-1444.0530 ca        1 SC5      0.021000
      4 C4       -990.6080-1864.6370-1444.6510 ca        1 SC5     -0.200000
      5 C5       -991.2930-1865.8650-1444.9320 ca        1 SC5      0.021000
      6 C6       -992.6330-1866.0090-1444.6310 ca        1 SC5     -0.173000
      7 C7       -988.4010-1863.3770-1444.7620 c3        1 SC5     -0.283000
      8 C8       -989.2610-1864.5320-1444.9690 c2        1 SC5      0.198000
      9 C9        461.7720  862.4470  673.6650 c3        1 SC5     -0.163000
     10 C10       460.7510  861.6770  674.5340 c3        1 SC5      0.149000
     11 O1        459.5650  861.5630  673.7780 oh        1 SC5     -0.419000
     12 O2        461.1680  860.3370  674.6560 oh        1 SC5     -0.419000
     13 N1        460.7850  859.7420  671.9700 n4        1 SC5     -0.035000
     14 C11       461.4360  861.0720  671.4550 c3        1 SC5      0.167000
     15 N2        462.3950  861.6530  672.5710 n4        1 SC5     -0.104000
     16 N3        460.4820  861.9820  671.0040 n3        1 SC5     -0.434000
     17 C12       459.1460  856.4370  667.5380 c3        1 SC5     -0.100000
     18 N4        458.4740  855.1440  667.8600 n4        1 SC5     -0.066000
     19 C13       458.6930  858.2500  669.2190 ca        1 SC5     -0.071000
     20 C14       459.0960  859.0830  670.2650 ca        1 SC5     -0.087000
     21 C15       460.3670  858.9030  670.8410 ca        1 SC5     -0.112000
     22 C16       461.2210  857.8870  670.3710 ca        1 SC5     -0.087000
     23 C17       460.8000  857.0660  669.3250 ca        1 SC5     -0.071000
     24 C18       459.5390  857.2430  668.7410 ca        1 SC5     -0.100000
     25 H1       -994.4160-1865.0720-1443.8050 ha        1 SC5      0.183000
     26 H2       -993.2660-1862.9120-1443.2960 ha        1 SC5      0.185500
     27 H3       -990.8580-1862.6160-1443.8240 ha        1 SC5      0.169000
     28 H5       -990.7350-1866.6990-1445.3940 ha        1 SC5      0.169000
     29 H6       -993.1530-1866.9590-1444.8510 ha        1 SC5      0.185500
     30 H71      -987.5280-1863.6730-1444.1110 hc        1 SC5      0.157000
     31 H72      -988.9050-1862.4950-1444.2970 hc        1 SC5      0.157000
     32 H73      -987.9610-1863.0570-1445.7510 hc        1 SC5      0.157000
     33 H8       -988.7680-1865.4160-1445.4330 ha        1 SC5      0.166000
     34 H91       462.6120  862.7980  674.3420 hx        1 SC5      0.189500
     35 H92       461.2600  863.3570  673.2330 hx        1 SC5      0.189500
     36 H10       460.6110  862.2100  675.5160 h2        1 SC5      0.183000
     37 HO1       458.7970  861.5950  674.3700 ho        1 SC5      0.288000
     38 HO2       461.0110  860.0240  675.5610 ho        1 SC5      0.288000
     39 HN1       461.4500  859.2200  672.5570 hn        1 SC5      0.285000
     40 H11       462.1490  860.7560  670.6150 hx        1 SC5      0.203000
     41 HN2       463.0570  862.2710  672.0750 hn        1 SC5      0.274500
     42 HN3       459.7880  862.3470  671.6230 hn        1 SC5      0.287000
     43 H121      460.0670  856.1990  666.9200 hx        1 SC5      0.180000
     44 H122      458.4370  857.0370  666.8880 hx        1 SC5      0.180000
     45 HN41      459.0880  854.5400  668.4200 hn        1 SC5      0.272000
     46 HN42      457.6050  855.3020  668.3830 hn        1 SC5      0.272000
     47 H13       457.6970  858.4140  668.7660 ha        1 SC5      0.189500
     48 H14       458.4040  859.8690  670.6190 ha        1 SC5      0.181500
     49 H16       462.2180  857.7110  670.8130 ha        1 SC5      0.181500
     50 H17       461.4890  856.2830  668.9560 ha        1 SC5      0.189500
     51 H12       459.9620  859.9630  672.5690 hn        1 SC5      0.285000
     52 H22       462.9320  860.8890  673.0010 hn        1 SC5      0.274500
     53 H32       460.6340  862.4430  670.1320 hn        1 SC5      0.287000
     54 H43       458.2430  854.6530  666.9830 hn        1 SC5      0.272000
@<TRIPOS>BOND
     1    1    2 1   
     2    1    6 1   
     3    1   25 1   
     4    2    3 1   
     5    2   26 1   
     6    3    4 1   
     7    3   27 1   
     8    4    5 1   
     9    4    8 1   
    10    5    6 1   
    11    5   28 1   
    12    6   29 1   
    13    7    8 1   
    14    7   30 1   
    15    7   31 1   
    16    7   32 1   
    17    8   33 1   
    18    9   10 1   
    19    9   15 1   
    20    9   34 1   
    21    9   35 1   
    22   10   11 1   
    23   10   12 1   
    24   10   36 1   
    25   11   37 1   
    26   12   38 1   
    27   13   14 1   
    28   13   21 1   
    29   13   39 1   
    30   13   51 1   
    31   14   15 1   
    32   14   16 1   
    33   14   40 1   
    34   15   41 1   
    35   15   52 1   
    36   16   42 1   
    37   16   53 1   
    38   17   18 1   
    39   17   24 1   
    40   17   43 1   
    41   17   44 1   
    42   18   45 1   
    43   18   46 1   
    44   18   54 1   
    45   19   20 1   
    46   19   24 1   
    47   19   47 1   
    48   20   21 1   
    49   20   48 1   
    50   21   22 1   
    51   22   23 1   
    52   22   49 1   
    53   23   24 1   
    54   23   50 1   
@<TRIPOS>SUBSTRUCTURE
     1 SC5         1 TEMP              0 ****  ****    0 ROOT
