@<TRIPOS>MOLECULE
SC5
   50    46     1     0     0
SMALL
bcc


@<TRIPOS>ATOM
      1 C1         -2.4690   -0.7120   -5.0890 c1        1 SC5     -0.130500
      2 C2         -1.4830   -1.6670   -4.8650 c1        1 SC5     -0.130500
      3 C3         -1.1780   -2.0670   -3.5510 c1        1 SC5     -0.130500
      4 C4         -1.8600   -1.5100   -2.4800 c1        1 SC5     -0.108000
      5 C5         -2.8490   -0.5520   -2.7030 c1        1 SC5     -0.106000
      6 C6         -3.1540   -0.1520   -4.0140 c1        1 SC5     -0.130500
      7 C7         -1.7780   -3.3160   -0.8550 c3        1 SC5     -0.204000
      8 C8         -1.4920   -1.8940   -1.0690 c3        1 SC5      0.024000
      9 C9          2.0490   -2.1420    0.7530 c3        1 SC5     -0.101000
     10 C10         2.9070   -2.8490    1.8520 c3        1 SC5      0.111000
     11 O1          4.1880   -3.1280    1.3350 oh        1 SC5     -0.358500
     12 O2          3.0280   -1.9780    3.0030 oh        1 SC5     -0.358500
     13 N1          0.8280    0.3090    0.0630 n3        1 SC5     -0.296000
     14 C11         0.1230   -0.8690    0.3580 c3        1 SC5      0.138000
     15 N2          0.8470   -1.6410    1.3340 n3        1 SC5     -0.314000
     16 N3         -0.0420   -1.6500   -0.8360 n3        1 SC5     -0.324000
     17 C12         0.2140    5.0390    3.2810 c3        1 SC5     -0.044000
     18 N4          0.0990    6.3340    2.6400 n3        1 SC5     -0.333000
     19 C13        -0.8310    3.0760    1.9350 c1        1 SC5     -0.090000
     20 C14        -0.6380    1.8650    1.2750 c1        1 SC5     -0.166000
     21 C15         0.6350    1.4940    0.8750 c2        1 SC5      0.076000
     22 C16         1.7280    2.3420    1.1360 c2        1 SC5     -0.187000
     23 C17         1.5340    3.5430    1.7910 c1        1 SC5     -0.095000
     24 C18         0.2650    3.9160    2.1920 c1        1 SC5     -0.163000
     25 H1         -2.6740   -0.4430   -5.9740 ha        1 SC5      0.131500
     26 H2         -0.9810   -2.0750   -5.6500 ha        1 SC5      0.131500
     27 H3         -0.4690   -2.7550   -3.3900 ha        1 SC5      0.131500
     28 H5         -3.3350   -0.1550   -1.9380 ha        1 SC5      0.138000
     29 H6         -3.8650    0.5380   -4.1760 ha        1 SC5      0.131500
     30 H71        -2.4050   -3.6110   -1.4940 hc        1 SC5      0.081333
     31 H72        -2.1160   -3.4350   -0.0180 hc        1 SC5      0.081333
     32 H73        -0.9570   -3.8280   -0.9470 hc        1 SC5      0.081333
     33 H8         -1.9910   -1.3840   -0.4720 h1        1 SC5      0.106000
     34 H91         2.5420   -1.4280    0.3810 h1        1 SC5      0.105500
     35 H92         1.8330   -2.7660    0.0720 h1        1 SC5      0.105500
     36 H10         2.4520   -3.7260    2.1340 h2        1 SC5      0.118000
     37 HO1         4.2970   -4.0670    1.2450 ho        1 SC5      0.217000
     38 HO2         3.1070   -2.4570    3.7230 ho        1 SC5      0.217000
     39 HN1         1.4540    0.3170   -0.6240 hn        1 SC5      0.182000
     40 H11        -0.8030   -0.6250    0.7360 h3        1 SC5      0.127000
     41 HN2         0.3370   -2.3340    1.6010 hn        1 SC5      0.187000
     42 HN3         0.3190   -1.2000   -1.5570 hn        1 SC5      0.155000
     43 H121        1.0110    5.0130    3.8020 h1        1 SC5      0.095500
     44 H122       -0.5170    4.9000    3.8290 h1        1 SC5      0.095500
     45 HN41        0.9080    6.5470    2.2170 hn        1 SC5      0.140000
     46 HN42       -0.6190    6.3080    1.9780 hn        1 SC5      0.140000
     47 H13        -1.7400    3.3450    2.2250 ha        1 SC5      0.130000
     48 H14        -1.3770    1.2970    1.0990 ha        1 SC5      0.134000
     49 H16         2.6030    2.0890    0.8590 ha        1 SC5      0.130000
     50 H17         2.3150    4.1440    1.9770 ha        1 SC5      0.128000
@<TRIPOS>BOND
     1    1    6 1   
     2    1   25 1   
     3    2    3 1   
     4    2   26 1   
     5    3   27 1   
     6    4    5 1   
     7    4    8 1   
     8    5   28 1   
     9    6   29 1   
    10    7    8 1   
    11    7   30 1   
    12    7   31 1   
    13    7   32 1   
    14    8   16 1   
    15    8   33 1   
    16    9   10 1   
    17    9   15 1   
    18    9   34 1   
    19    9   35 1   
    20   10   11 1   
    21   10   12 1   
    22   10   36 1   
    23   11   37 1   
    24   12   38 1   
    25   13   14 1   
    26   13   21 1   
    27   13   39 1   
    28   14   15 1   
    29   14   16 1   
    30   14   40 1   
    31   15   41 1   
    32   16   42 1   
    33   17   18 1   
    34   17   24 1   
    35   17   43 1   
    36   17   44 1   
    37   18   45 1   
    38   18   46 1   
    39   19   24 1   
    40   19   47 1   
    41   20   21 1   
    42   20   48 1   
    43   21   22 1   
    44   22   23 1   
    45   22   49 1   
    46   23   50 1   
@<TRIPOS>SUBSTRUCTURE
     1 SC5         1 TEMP              0 ****  ****    0 ROOT
