@<TRIPOS>MOLECULE
SC5
   50    51     1     0     0
SMALL
bcc


@<TRIPOS>ATOM
      1 C1          6.1300   -2.3390   -0.0270 ca        1 SC5     -0.130000
      2 C2          5.6610   -1.6190   -1.1260 ca        1 SC5     -0.129500
      3 C3          4.5490   -0.7870   -0.9950 ca        1 SC5     -0.117500
      4 C4          3.8990   -0.6710    0.2380 ca        1 SC5     -0.072300
      5 C5          4.3670   -1.4010    1.3350 ca        1 SC5     -0.117500
      6 C6          5.4810   -2.2280    1.2020 ca        1 SC5     -0.129500
      7 C7          3.1840    1.6920    0.2560 c3        1 SC5     -0.125100
      8 C8          2.7040    0.2430    0.4030 c3        1 SC5      0.235800
      9 C9         -0.2670    2.2740   -0.7180 c3        1 SC5      0.138800
     10 C10        -0.5660    3.7120   -0.2480 c3        1 SC5      0.333900
     11 O1         -1.7500    3.7000    0.5190 oh        1 SC5     -0.633800
     12 O2          0.4190    4.2710    0.5820 oh        1 SC5     -0.633800
     13 N1         -0.6730   -0.7930   -0.8340 nh        1 SC5     -0.753600
     14 C11         0.2750   -0.0420    0.0210 c3        1 SC5      0.675900
     15 N2         -0.1400    1.3400    0.3730 n3        1 SC5     -0.892200
     16 N3          1.6440   -0.1490   -0.5210 n3        1 SC5     -0.815200
     17 C12        -6.1720   -1.3880    0.6480 c3        1 SC5      0.210100
     18 N4         -6.8410   -2.4850   -0.0150 n3        1 SC5     -0.917800
     19 C13        -3.7530   -1.0700    1.2460 ca        1 SC5     -0.079000
     20 C14        -2.4170   -0.8900    0.9070 ca        1 SC5     -0.194500
     21 C15        -2.0170   -0.8740   -0.4490 ca        1 SC5      0.152600
     22 C16        -3.0190   -1.0370   -1.4400 ca        1 SC5     -0.194500
     23 C17        -4.3480   -1.2170   -1.0820 ca        1 SC5     -0.079000
     24 C18        -4.7310   -1.2330    0.2630 ca        1 SC5     -0.136300
     25 H1          7.0060   -2.9940   -0.1320 ha        1 SC5      0.130000
     26 H2          6.1660   -1.7080   -2.0980 ha        1 SC5      0.130000
     27 H3          4.1820   -0.2240   -1.8650 ha        1 SC5      0.128000
     28 H5          3.8560   -1.3250    2.3070 ha        1 SC5      0.128000
     29 H6          5.8460   -2.7980    2.0700 ha        1 SC5      0.130000
     30 H71         4.0030    1.8820    0.9910 hc        1 SC5      0.045700
     31 H72         3.5820    1.8760   -0.7700 hc        1 SC5      0.045700
     32 H73         2.3540    2.4120    0.4540 hc        1 SC5      0.045700
     33 H8          2.3170    0.1210    1.4610 h1        1 SC5      0.063700
     34 H91         0.7090    2.3220   -1.2790 h1        1 SC5      0.044700
     35 H92        -1.0820    1.9900   -1.4460 h1        1 SC5      0.044700
     36 H10        -0.6450    4.4040   -1.1330 h2        1 SC5      0.070700
     37 HO1        -1.8860    4.5950    0.8540 ho        1 SC5      0.423500
     38 HO2         0.5930    3.6610    1.3100 ho        1 SC5      0.423500
     39 HN1        -0.5440   -0.6700   -1.8160 hn        1 SC5      0.398800
     40 H11         0.2910   -0.6000    1.0180 h3        1 SC5      0.090700
     41 HN2        -0.9820    1.3290    0.9200 hn        1 SC5      0.394800
     42 HN3         1.7450    0.3230   -1.3980 hn        1 SC5      0.360800
     43 H121       -6.2360   -1.4680    1.7760 h1        1 SC5      0.031700
     44 H122       -6.7210   -0.4440    0.3570 h1        1 SC5      0.031700
     45 HN41       -6.2620   -3.3000   -0.0440 hn        1 SC5      0.350800
     46 HN42       -7.6960   -2.7030    0.4570 hn        1 SC5      0.350800
     47 H13        -4.0370   -1.0830    2.3110 ha        1 SC5      0.138000
     48 H14        -1.6780   -0.7810    1.7140 ha        1 SC5      0.131000
     49 H16        -2.7470   -1.0340   -2.5060 ha        1 SC5      0.131000
     50 H17        -5.1100   -1.3450   -1.8670 ha        1 SC5      0.138000
@<TRIPOS>BOND
     1    1    2 ar  
     2    1    6 ar  
     3    1   25 1   
     4    2    3 ar  
     5    2   26 1   
     6    3    4 ar  
     7    3   27 1   
     8    4    5 ar  
     9    4    8 1   
    10    5    6 ar  
    11    5   28 1   
    12    6   29 1   
    13    7    8 1   
    14    7   30 1   
    15    7   31 1   
    16    7   32 1   
    17    8   16 1   
    18    8   33 1   
    19    9   10 1   
    20    9   15 1   
    21    9   34 1   
    22    9   35 1   
    23   10   11 1   
    24   10   12 1   
    25   10   36 1   
    26   11   37 1   
    27   12   38 1   
    28   13   14 1   
    29   13   21 1   
    30   13   39 1   
    31   14   15 1   
    32   14   16 1   
    33   14   40 1   
    34   15   41 1   
    35   16   42 1   
    36   17   18 1   
    37   17   24 1   
    38   17   43 1   
    39   17   44 1   
    40   18   45 1   
    41   18   46 1   
    42   19   20 ar  
    43   19   24 ar  
    44   19   47 1   
    45   20   21 ar  
    46   20   48 1   
    47   21   22 ar  
    48   22   23 ar  
    49   22   49 1   
    50   23   24 ar  
    51   23   50 1   
@<TRIPOS>SUBSTRUCTURE
     1 SC5         1 TEMP              0 ****  ****    0 ROOT
