@<TRIPOS>MOLECULE
SC5
   53    54     1     0     0
SMALL
bcc


@<TRIPOS>ATOM
      1 C1         -0.6040    0.4600    0.8360 ca        1 SC5     -0.041000
      2 C2          0.6980    0.2120    0.3890 ca        1 SC5     -0.109500
      3 C3          1.7210   -0.0090    1.3060 ca        1 SC5     -0.096000
      4 C4          1.4490    0.0210    2.6830 ca        1 SC5     -0.231300
      5 C5          0.1440    0.2850    3.1300 ca        1 SC5     -0.096000
      6 C6         -0.8770    0.4960    2.2070 ca        1 SC5     -0.109500
      7 C7          3.2350   -1.5920    3.3690 c3        1 SC5     -0.157100
      8 C8          2.5100   -0.2950    3.6810 c3        1 SC5      0.225800
      9 C9          5.9840   -0.0280    5.5280 c3        1 SC5      0.089800
     10 C10         6.4490   -1.3480    6.2150 c3        1 SC5      0.339900
     11 O1          6.2330   -1.1810    7.5900 oh        1 SC5     -0.660300
     12 O2          5.5260   -2.3270    5.8000 oh        1 SC5     -0.660300
     13 N1          4.5930    2.6360    5.0430 nh        1 SC5     -0.788600
     14 C11         3.8720    1.4060    5.1060 c3        1 SC5      0.632900
     15 N2          4.5800    0.2910    5.9230 n4        1 SC5     -0.824000
     16 N3          3.5040    0.8970    3.7030 n4        1 SC5     -0.835000
     17 C12         3.4730    7.0940    8.4620 c3        1 SC5      0.156100
     18 N4          3.6360    8.4410    7.8350 n4        1 SC5     -0.839600
     19 C13         2.7080    5.2380    6.9540 ca        1 SC5     -0.057000
     20 C14         2.9620    4.1250    6.1550 ca        1 SC5     -0.139000
     21 C15         4.2890    3.7130    5.9180 ca        1 SC5      0.118600
     22 C16         5.3490    4.4490    6.4940 ca        1 SC5     -0.139000
     23 C17         5.0780    5.5610    7.2870 ca        1 SC5     -0.057000
     24 C18         3.7590    5.9630    7.5270 ca        1 SC5     -0.156300
     25 H1         -1.4180    0.6170    0.1050 ha        1 SC5      0.186000
     26 H2          0.9100    0.1760   -0.6940 ha        1 SC5      0.180500
     27 H3          2.7350   -0.2310    0.9390 ha        1 SC5      0.136500
     28 H5         -0.0900    0.2910    4.2060 ha        1 SC5      0.136500
     29 H6         -1.9070    0.6790    2.5580 ha        1 SC5      0.180500
     30 H71         2.4620   -2.4100    3.3510 hc        1 SC5      0.098033
     31 H72         3.7160   -1.5770    2.3590 hc        1 SC5      0.098033
     32 H73         4.0000   -1.8590    4.1380 hc        1 SC5      0.098033
     33 H8          2.0550   -0.3460    4.7160 hx        1 SC5      0.085700
     34 H91         6.0450   -0.1770    4.4150 hx        1 SC5      0.117200
     35 H92         6.6680    0.8030    5.8570 hx        1 SC5      0.117200
     36 H10         7.5110   -1.5820    5.9310 h2        1 SC5      0.123700
     37 HO1         6.7920   -1.7970    8.0880 ho        1 SC5      0.480500
     38 HO2         5.7790   -3.1880    6.1670 ho        1 SC5      0.480500
     39 HN1         5.5270    2.6220    4.6840 hn        1 SC5      0.463800
     40 H11         2.8720    1.5680    5.6490 hx        1 SC5      0.165700
     41 HN2         4.0350   -0.5900    5.8710 hn        1 SC5      0.493300
     42 HN3         3.0470    1.6830    3.2050 hn        1 SC5      0.473800
     43 H121        2.4120    7.0270    8.8500 hx        1 SC5      0.132200
     44 H122        4.1760    7.0460    9.3490 hx        1 SC5      0.132200
     45 HN41        4.5910    8.5610    7.4790 hn        1 SC5      0.471800
     46 HN42        2.9810    8.5600    7.0540 hn        1 SC5      0.471800
     47 H13         1.6590    5.5360    7.1340 ha        1 SC5      0.173500
     48 H14         2.1050    3.6000    5.7030 ha        1 SC5      0.161000
     49 H16         6.4020    4.1690    6.3180 ha        1 SC5      0.161000
     50 H17         5.9240    6.1090    7.7400 ha        1 SC5      0.173500
     51 H22         4.5930    0.5800    6.9150 hn        1 SC5      0.493300
     52 H32         4.3410    0.6390    3.1680 hn        1 SC5      0.473800
     53 H43         3.4500    9.1720    8.5360 hn        1 SC5      0.471800
@<TRIPOS>BOND
     1    1    2 ar  
     2    1    6 ar  
     3    1   25 1   
     4    2    3 ar  
     5    2   26 1   
     6    3    4 ar  
     7    3   27 1   
     8    4    5 ar  
     9    4    8 1   
    10    5    6 ar  
    11    5   28 1   
    12    6   29 1   
    13    7    8 1   
    14    7   30 1   
    15    7   31 1   
    16    7   32 1   
    17    8   16 1   
    18    8   33 1   
    19    9   10 1   
    20    9   15 1   
    21    9   34 1   
    22    9   35 1   
    23   10   11 1   
    24   10   12 1   
    25   10   36 1   
    26   11   37 1   
    27   12   38 1   
    28   13   14 1   
    29   13   21 1   
    30   13   39 1   
    31   14   15 1   
    32   14   16 1   
    33   14   40 1   
    34   15   41 1   
    35   15   51 1   
    36   16   42 1   
    37   16   52 1   
    38   17   18 1   
    39   17   24 1   
    40   17   43 1   
    41   17   44 1   
    42   18   45 1   
    43   18   46 1   
    44   18   53 1   
    45   19   20 ar  
    46   19   24 ar  
    47   19   47 1   
    48   20   21 ar  
    49   20   48 1   
    50   21   22 ar  
    51   22   23 ar  
    52   22   49 1   
    53   23   24 ar  
    54   23   50 1   
@<TRIPOS>SUBSTRUCTURE
     1 SC5         1 TEMP              0 ****  ****    0 ROOT
