@<TRIPOS>MOLECULE
SC6
   84    88     1     0     0
SMALL
bcc


@<TRIPOS>ATOM
      1 C1          0.5780    0.0930    0.9320 ca        1 SC6     -0.049000
      2 C2          0.9490   -1.2590    0.8420 ca        1 SC6     -0.061300
      3 C3          1.5150   -1.8900    1.9500 ca        1 SC6     -0.097000
      4 C4          1.6980   -1.1770    3.1440 ca        1 SC6     -0.199600
      5 C5          1.3140    0.1660    3.2420 ca        1 SC6     -0.025000
      6 C6          0.7570    0.7950    2.1230 ca        1 SC6     -0.117600
      7 C7          0.4530    2.2610    2.2050 c         1 SC6      0.675700
      8 N1         -0.8380    2.6720    2.0120 n         1 SC6     -0.451800
      9 O1          1.3760    3.0670    2.4500 o         1 SC6     -0.609100
     10 C8         -1.9800    1.7920    1.8560 c3        1 SC6      0.097000
     11 C9         -3.2430    2.6660    1.9140 c3        1 SC6     -0.083400
     12 C10        -2.7670    4.1150    1.9150 c3        1 SC6     -0.085400
     13 C11        -1.2260    4.0820    2.0050 c3        1 SC6      0.112700
     14 C12        -0.5770    4.9170    0.8900 c3        1 SC6      0.108400
     15 C30         0.7320   -1.9980   -0.4230 c3        1 SC6     -0.069800
     16 C14         2.2770   -1.8140    4.3320 c         1 SC6      0.576700
     17 N2          3.5240   -2.6360    4.0750 n4        1 SC6     -0.684800
     18 O2          1.8940   -1.7600    5.4920 o         1 SC6     -0.412100
     19 C15         4.6960   -2.1880    4.9220 c3        1 SC6      0.150500
     20 C16         5.2600   -0.8590    4.3670 c3        1 SC6      0.127100
     21 C17         5.7720   -3.2790    4.9620 c3        1 SC6     -0.060100
     22 O3          5.6700   -1.1430    3.0350 oh        1 SC6     -0.632800
     23 C19         5.2330   -4.5880    5.4250 ca        1 SC6     -0.084300
     24 C21         5.0800   -4.8330    6.7890 ca        1 SC6     -0.198500
     25 C22         4.5940   -6.0830    7.2220 ca        1 SC6      0.174900
     26 C23         4.2560   -7.0830    6.2960 ca        1 SC6     -0.191000
     27 C24         4.4180   -6.8170    4.9260 ca        1 SC6      0.174900
     28 C25         4.9030   -5.5710    4.4870 ca        1 SC6     -0.198500
     29 F2          4.4510   -6.3200    8.5440 f         1 SC6     -0.113900
     30 F1          4.1000   -7.7640    4.0160 f         1 SC6     -0.113900
     31 C26         5.9000    1.9550    5.9570 c3        1 SC6      0.122100
     32 C18         5.7440    0.9260    7.1080 c3        1 SC6      0.113800
     33 N3          6.1760   -0.3880    6.6390 n3        1 SC6     -0.813200
     34 C20         6.6230    1.1920    4.8370 c3        1 SC6     -0.117400
     35 C27         6.4410   -0.3010    5.1990 c3        1 SC6      0.134500
     36 O4          4.6130    2.3010    5.4380 os        1 SC6     -0.349900
     37 C31         4.0280    3.4400    5.9810 ca        1 SC6      0.092100
     38 C32         4.2690    3.8800    7.2870 ca        1 SC6     -0.168000
     39 C33         3.5930    5.0060    7.7570 ca        1 SC6     -0.100000
     40 C34         2.6860    5.6770    6.9380 ca        1 SC6     -0.145000
     41 C35         2.4490    5.2220    5.6390 ca        1 SC6     -0.100000
     42 C36         3.1160    4.1040    5.1450 ca        1 SC6     -0.168000
     43 O5         -1.0140    4.4160   -0.3700 os        1 SC6     -0.428600
     44 H1          0.1470    0.5990    0.0500 ha        1 SC6      0.173000
     45 H3          1.7870   -2.9550    1.8800 ha        1 SC6      0.135000
     46 H5          1.4610    0.7310    4.1780 ha        1 SC6      0.178000
     47 H81        -1.9850    1.0210    2.6740 h1        1 SC6      0.042700
     48 H82        -1.9180    1.2560    0.8680 h1        1 SC6      0.042700
     49 H91        -3.8940    2.4590    1.0310 hc        1 SC6      0.061200
     50 H92        -3.8280    2.4370    2.8380 hc        1 SC6      0.061200
     51 H101       -3.0830    4.6330    0.9760 hc        1 SC6      0.068200
     52 H102       -3.1870    4.6760    2.7850 hc        1 SC6      0.068200
     53 H11        -0.8760    4.5400    2.9780 h1        1 SC6      0.067700
     54 H121       -0.9060    5.9850    1.0080 h1        1 SC6      0.049700
     55 H122        0.5430    4.8570    0.9550 h1        1 SC6      0.049700
     56 H301        1.1220   -1.4090   -1.2920 hc        1 SC6      0.064367
     57 H302        1.2440   -2.9910   -0.4120 hc        1 SC6      0.064367
     58 H303       -0.3630   -2.1690   -0.5830 hc        1 SC6      0.064367
     59 HN2         3.7920   -2.5530    3.0860 hn        1 SC6      0.465300
     60 H15         4.2920   -2.0110    5.9660 hx        1 SC6      0.142700
     61 H16         4.4370   -0.0830    4.3500 h1        1 SC6      0.078700
     62 H171        6.5700   -2.9280    5.6730 hc        1 SC6      0.098200
     63 H172        6.2490   -3.3780    3.9480 hc        1 SC6      0.098200
     64 HO3         6.1330   -0.3640    2.6960 ho        1 SC6      0.443000
     65 H21         5.3460   -4.0680    7.5350 ha        1 SC6      0.159500
     66 H23         3.8830   -8.0620    6.6370 ha        1 SC6      0.186000
     67 H25         5.0660   -5.4060    3.4110 ha        1 SC6      0.159500
     68 H26         6.4630    2.8670    6.2790 h1        1 SC6      0.084700
     69 HN3         7.0070   -0.6800    7.1200 hn        1 SC6      0.371800
     70 H201        6.1900    1.4450    3.8400 hc        1 SC6      0.075700
     71 H202        7.7080    1.4590    4.8320 hc        1 SC6      0.075700
     72 H27         7.3610   -0.8910    4.9220 h1        1 SC6      0.072700
     73 H32         4.9740    3.3470    7.9400 ha        1 SC6      0.150500
     74 H33         3.7780    5.3620    8.7820 ha        1 SC6      0.141000
     75 H34         2.1590    6.5650    7.3140 ha        1 SC6      0.142000
     76 H35         1.7330    5.7520    4.9930 ha        1 SC6      0.141000
     77 H36         2.9290    3.7380    4.1230 ha        1 SC6      0.150500
     78 H371        0.6160    5.1310   -1.4720 h1        1 SC6      0.038033
     79 H372       -0.9240    4.6720   -2.3650 h1        1 SC6      0.038033
     80 H373       -0.8440    6.2320   -1.3970 h1        1 SC6      0.038033
     81 H181        6.3290    1.2570    8.0070 h1        1 SC6      0.072200
     82 C37        -0.5010    5.1700   -1.4580 c3        1 SC6      0.113700
     83 H22         3.3320   -3.6240    4.2910 hn        1 SC6      0.465300
     84 H182        4.6600    0.8500    7.3990 h1        1 SC6      0.072200
@<TRIPOS>BOND
     1    1    2 ar  
     2    1    6 ar  
     3    1   44 1   
     4    2    3 ar  
     5    2   15 1   
     6    3    4 ar  
     7    3   45 1   
     8    4    5 ar  
     9    4   16 1   
    10    5    6 ar  
    11    5   46 1   
    12    6    7 1   
    13    7    8 1   
    14    7    9 2   
    15    8   10 1   
    16    8   13 1   
    17   10   11 1   
    18   10   47 1   
    19   10   48 1   
    20   11   12 1   
    21   11   49 1   
    22   11   50 1   
    23   12   13 1   
    24   12   51 1   
    25   12   52 1   
    26   13   14 1   
    27   13   53 1   
    28   14   43 1   
    29   14   54 1   
    30   14   55 1   
    31   15   56 1   
    32   15   57 1   
    33   15   58 1   
    34   16   17 1   
    35   16   18 2   
    36   17   19 1   
    37   17   59 1   
    38   17   83 1   
    39   19   20 1   
    40   19   21 1   
    41   19   60 1   
    42   20   22 1   
    43   20   35 1   
    44   20   61 1   
    45   21   23 1   
    46   21   62 1   
    47   21   63 1   
    48   22   64 1   
    49   23   24 ar  
    50   23   28 ar  
    51   24   25 ar  
    52   24   65 1   
    53   25   26 ar  
    54   25   29 1   
    55   26   27 ar  
    56   26   66 1   
    57   27   28 ar  
    58   27   30 1   
    59   28   67 1   
    60   31   32 1   
    61   31   34 1   
    62   31   36 1   
    63   31   68 1   
    64   32   33 1   
    65   32   81 1   
    66   32   84 1   
    67   33   35 1   
    68   33   69 1   
    69   34   35 1   
    70   34   70 1   
    71   34   71 1   
    72   35   72 1   
    73   36   37 1   
    74   37   38 ar  
    75   37   42 ar  
    76   38   39 ar  
    77   38   73 1   
    78   39   40 ar  
    79   39   74 1   
    80   40   41 ar  
    81   40   75 1   
    82   41   42 ar  
    83   41   76 1   
    84   42   77 1   
    85   43   82 1   
    86   78   82 1   
    87   79   82 1   
    88   80   82 1   
@<TRIPOS>SUBSTRUCTURE
     1 SC6         1 TEMP              0 ****  ****    0 ROOT
