@<TRIPOS>MOLECULE
SC6
   83    80     1     0     0
SMALL
bcc


@<TRIPOS>ATOM
      1 C1         -2.2470    0.0320   -3.9580 c1        1 SC6     -0.082000
      2 C2         -1.8470   -1.0940   -3.2710 c1        1 SC6     -0.079000
      3 C3         -1.3430   -0.9790   -1.9710 c1        1 SC6     -0.096000
      4 C4         -1.2430    0.2750   -1.3680 c1        1 SC6     -0.113000
      5 C5         -1.6450    1.4070   -2.0600 c1        1 SC6     -0.057000
      6 C6         -2.1480    1.2910   -3.3560 c1        1 SC6     -0.109000
      7 C7         -2.6640    2.5430   -4.0950 c2        1 SC6      0.342000
      8 N1         -3.2600    2.4180   -5.4300 n         1 SC6     -0.318000
      9 O1         -2.6400    3.6500   -3.5290 o         1 SC6     -0.347000
     10 C8         -3.9210    3.5890   -6.2940 c3        1 SC6     -0.033000
     11 C9         -3.5890    3.3480   -7.5650 c3        1 SC6     -0.175000
     12 C10        -3.3870    1.8400   -7.6410 c3        1 SC6     -0.163000
     13 C11        -3.3590    1.3410   -6.1400 c3        1 SC6      0.018000
     14 C12        -4.6590    0.5870   -5.7930 c3        1 SC6     -0.031000
     15 C30        -1.8660   -2.4760   -3.9700 c3        1 SC6     -0.181000
     16 C14        -0.7890    0.3960    0.1600 c2        1 SC6      0.349000
     17 N2         -0.6070   -0.7960    0.9580 n         1 SC6     -0.371000
     18 O2         -0.7000    1.5180    0.6930 o         1 SC6     -0.364000
     19 C15         0.1550   -0.7290    2.2030 c3        1 SC6      0.048000
     20 C16         1.5620   -1.2590    1.9700 c3        1 SC6      0.017000
     21 C17        -0.5170   -1.5550    3.2440 c3        1 SC6     -0.137000
     22 O3          1.5580   -2.6090    2.0970 oh        1 SC6     -0.339000
     23 C19        -1.4860   -0.6610    4.0780 c2        1 SC6     -0.016000
     24 C21        -1.0940    0.6070    4.4680 c2        1 SC6     -0.175000
     25 C22        -1.8920    1.3480    5.3500 c1        1 SC6      0.121000
     26 C23        -3.0740    0.8100    5.8340 c1        1 SC6     -0.210000
     27 C24        -3.4700   -0.4600    5.4450 c1        1 SC6      0.118000
     28 C25        -2.6730   -1.2000    4.5630 c2        1 SC6     -0.182000
     29 F2         -1.5580    2.6480    5.6480 f         1 SC6     -0.100000
     30 F1         -4.6920   -0.9010    5.7650 f         1 SC6     -0.102000
     31 C26         4.8140   -0.6860    3.6360 c3        1 SC6      0.004000
     32 C18         4.8370    0.2530    2.7540 c3        1 SC6     -0.092000
     33 N3          3.3330    0.5280    2.4020 n3        1 SC6     -0.270000
     34 C20         3.4580   -1.5220    3.3730 c3        1 SC6     -0.216000
     35 C27         2.5450   -0.6350    3.0250 c3        1 SC6     -0.065000
     36 O4          6.0050   -1.5660    3.4720 os        1 SC6     -0.206000
     37 C31         6.9800   -1.2180    4.4320 c2        1 SC6      0.073000
     38 C32         6.8480   -1.6700    5.7500 c2        1 SC6     -0.203000
     39 C33         7.8490   -1.4460    6.6570 c1        1 SC6     -0.097000
     40 C34         8.9940   -0.7740    6.2730 c1        1 SC6     -0.130000
     41 C35         9.1300   -0.3220    4.9590 c1        1 SC6     -0.130000
     42 C36         8.1160   -0.5490    4.0450 c1        1 SC6     -0.152000
     43 C37        -6.6270   -0.3060   -6.7690 c3        1 SC6     -0.072000
     44 O5         -5.2800    0.1570   -6.9660 os        1 SC6     -0.278000
     45 H1         -2.6050   -0.0510   -4.8790 ha        1 SC6      0.146000
     46 H3         -1.0670   -1.7570   -1.4980 ha        1 SC6      0.139000
     47 H5         -1.5790    2.2480   -1.6570 ha        1 SC6      0.164000
     48 H81        -3.5670    4.4560   -6.0120 h1        1 SC6      0.098000
     49 H82        -4.8720    3.5740   -6.1940 h1        1 SC6      0.098000
     50 H91        -4.3150    3.6290   -8.1700 hc        1 SC6      0.091000
     51 H92        -2.7430    3.8200   -7.7970 hc        1 SC6      0.091000
     52 H101       -4.1180    1.4280   -8.1160 hc        1 SC6      0.101500
     53 H102       -2.5600    1.6400   -8.0690 hc        1 SC6      0.101500
     54 H11        -2.5660    0.7510   -5.9890 h1        1 SC6      0.115000
     55 H121       -5.2640    1.1850   -5.3040 h1        1 SC6      0.074500
     56 H122       -4.4460   -0.1860   -5.2360 h1        1 SC6      0.074500
     57 H301       -1.3340   -3.1020   -3.4580 hc        1 SC6      0.086667
     58 H302       -1.4830   -2.3900   -4.8940 hc        1 SC6      0.086667
     59 H303       -2.8050   -2.8070   -4.0280 hc        1 SC6      0.086667
     60 HN2        -0.9940   -1.6170    0.6810 hn        1 SC6      0.233000
     61 H15         0.2040    0.2280    2.5150 h1        1 SC6      0.155000
     62 H16         1.8700   -1.0100    1.0340 h1        1 SC6      0.099000
     63 H171       -1.0420   -2.2910    2.8030 hc        1 SC6      0.102500
     64 H172        0.1870   -1.9610    3.8580 hc        1 SC6      0.102500
     65 HO3         1.8120   -2.9730    1.3430 ho        1 SC6      0.202000
     66 H21        -0.2310    1.0020    4.1140 ha        1 SC6      0.161000
     67 H23        -3.6290    1.3270    6.4480 ha        1 SC6      0.164000
     68 H25        -2.9470   -2.0820    4.2920 ha        1 SC6      0.151000
     69 H26         4.8010   -0.2960    4.5460 h1        1 SC6      0.100000
     70 H181        5.2620    1.0820    3.1430 h1        1 SC6      0.111000
     71 H182        5.3460   -0.0510    1.9200 h1        1 SC6      0.111000
     72 HN3         3.0660    1.3290    2.7910 hn        1 SC6      0.153000
     73 H201        3.5900   -2.1600    2.6580 hc        1 SC6      0.100000
     74 H202        3.1960   -1.9670    4.1580 hc        1 SC6      0.100000
     75 H27         2.0570   -0.3290    3.8010 h1        1 SC6      0.098000
     76 H32         6.0390   -2.1470    6.0230 ha        1 SC6      0.134000
     77 H33         7.7540   -1.7600    7.5670 ha        1 SC6      0.132000
     78 H34         9.7010   -0.6160    6.9160 ha        1 SC6      0.135000
     79 H35         9.9660    0.1700    4.6780 ha        1 SC6      0.135000
     80 H36         8.2090   -0.2270    3.1020 ha        1 SC6      0.151000
     81 H371       -7.1480    0.3890   -6.3320 h1        1 SC6      0.072333
     82 H372       -6.6160   -1.1280   -6.1930 h1        1 SC6      0.072333
     83 H373       -7.0350   -0.5220   -7.6450 h1        1 SC6      0.072333
@<TRIPOS>BOND
     1    1    6 1   
     2    1   45 1   
     3    2    3 1   
     4    2   15 1   
     5    3   46 1   
     6    4    5 1   
     7    4   16 1   
     8    5   47 1   
     9    6    7 1   
    10    7    8 1   
    11    7    9 1   
    12    8   10 1   
    13    8   13 1   
    14   10   11 1   
    15   10   48 1   
    16   10   49 1   
    17   11   12 1   
    18   11   50 1   
    19   11   51 1   
    20   12   13 1   
    21   12   52 1   
    22   12   53 1   
    23   13   14 1   
    24   13   54 1   
    25   14   44 1   
    26   14   55 1   
    27   14   56 1   
    28   15   57 1   
    29   15   58 1   
    30   15   59 1   
    31   16   17 1   
    32   16   18 1   
    33   17   19 1   
    34   17   60 1   
    35   19   20 1   
    36   19   21 1   
    37   19   61 1   
    38   20   22 1   
    39   20   35 1   
    40   20   62 1   
    41   21   23 1   
    42   21   63 1   
    43   21   64 1   
    44   22   65 1   
    45   23   24 1   
    46   23   28 1   
    47   24   25 1   
    48   24   66 1   
    49   25   29 1   
    50   26   27 1   
    51   26   67 1   
    52   27   28 1   
    53   28   68 1   
    54   31   32 1   
    55   31   34 1   
    56   31   36 1   
    57   31   69 1   
    58   32   33 1   
    59   32   70 1   
    60   32   71 1   
    61   33   35 1   
    62   33   72 1   
    63   34   35 1   
    64   34   73 1   
    65   34   74 1   
    66   35   75 1   
    67   36   37 1   
    68   37   38 1   
    69   37   42 1   
    70   38   39 1   
    71   38   76 1   
    72   39   77 1   
    73   40   41 1   
    74   40   78 1   
    75   41   79 1   
    76   42   80 1   
    77   43   44 1   
    78   43   81 1   
    79   43   82 1   
    80   43   83 1   
@<TRIPOS>SUBSTRUCTURE
     1 SC6         1 TEMP              0 ****  ****    0 ROOT
