@<TRIPOS>MOLECULE
SC6
   83    87     1     0     0
SMALL
bcc


@<TRIPOS>ATOM
      1 C1         -3.4180    2.6190   -0.3140 ca        1 SC6     -0.085000
      2 C2         -2.2750    2.8460   -1.0880 ca        1 SC6     -0.088300
      3 C3         -1.1740    1.9900   -0.9600 ca        1 SC6     -0.095000
      4 C4         -1.2120    0.9270   -0.0550 ca        1 SC6     -0.139600
      5 C5         -2.3430    0.7190    0.7430 ca        1 SC6     -0.045000
      6 C6         -3.4490    1.5600    0.5960 ca        1 SC6     -0.132600
      7 C7         -4.6420    1.3500    1.4700 c         1 SC6      0.678700
      8 N1         -5.8430    1.0500    0.8620 n         1 SC6     -0.466800
      9 O1         -4.5690    1.4600    2.7110 o         1 SC6     -0.601100
     10 C8         -5.9950    0.7230   -0.5410 c3        1 SC6      0.100000
     11 C9         -7.3670    0.0500   -0.7120 c3        1 SC6     -0.085400
     12 C10        -8.0680    0.1480    0.6380 c3        1 SC6     -0.084400
     13 C11        -7.0510    0.7600    1.6260 c3        1 SC6      0.113700
     14 C12        -7.6340    1.9720    2.3700 c3        1 SC6      0.112400
     15 C30        -2.2220    3.9920   -2.0250 c3        1 SC6     -0.055800
     16 C14        -0.0520    0.0030    0.1180 c         1 SC6      0.672700
     17 N2          0.5850   -0.4210   -1.0360 n         1 SC6     -0.559900
     18 O2          0.2910   -0.4110    1.2430 o         1 SC6     -0.591100
     19 C15         1.8020   -1.1990   -1.0090 c3        1 SC6      0.078700
     20 C16         3.0000   -0.3650   -1.5430 c3        1 SC6      0.120100
     21 C17         1.6630   -2.5100   -1.8080 c3        1 SC6     -0.049100
     22 O3          2.7440    0.1220   -2.8500 oh        1 SC6     -0.600800
     23 C19         0.5620   -3.3800   -1.3120 ca        1 SC6     -0.019300
     24 C21         0.6530   -3.9590   -0.0440 ca        1 SC6     -0.175000
     25 C22        -0.3750   -4.8040    0.4120 ca        1 SC6      0.154400
     26 C23        -1.4950   -5.0750   -0.3920 ca        1 SC6     -0.210000
     27 C24        -1.5690   -4.4810   -1.6610 ca        1 SC6      0.154400
     28 C25        -0.5440   -3.6370   -2.1250 ca        1 SC6     -0.175000
     29 F2         -0.2850   -5.3700    1.6390 f         1 SC6     -0.135900
     30 F1         -2.6420   -4.7280   -2.4510 f         1 SC6     -0.135900
     31 C26         6.3070    0.0560   -0.6250 c3        1 SC6      0.116100
     32 C18         5.6580   -0.8690    0.4360 c3        1 SC6      0.117800
     33 N3          4.6380   -1.6920   -0.2010 n3        1 SC6     -0.790200
     34 C20         5.4870   -0.1520   -1.9050 c3        1 SC6     -0.108400
     35 C27         4.3470   -1.1260   -1.5240 c3        1 SC6      0.136500
     36 O4          6.1500    1.4330   -0.2690 os        1 SC6     -0.324900
     37 C31         7.1200    1.9750    0.5560 ca        1 SC6      0.120100
     38 C32         7.9940    1.2260    1.3520 ca        1 SC6     -0.176000
     39 C33         8.9090    1.8920    2.1690 ca        1 SC6     -0.098500
     40 C34         8.9490    3.2840    2.1970 ca        1 SC6     -0.160000
     41 C35         8.0680    4.0240    1.4040 ca        1 SC6     -0.098500
     42 C36         7.1530    3.3820    0.5780 ca        1 SC6     -0.176000
     43 O5         -8.1300    2.9070    1.4150 os        1 SC6     -0.423600
     44 H1         -4.2910    3.2830   -0.4150 ha        1 SC6      0.147000
     45 H3         -0.2750    2.1800   -1.5670 ha        1 SC6      0.140000
     46 H5         -2.3470   -0.0920    1.4900 ha        1 SC6      0.170000
     47 H81        -5.9380    1.6650   -1.1540 h1        1 SC6      0.044700
     48 H82        -5.1670    0.0390   -0.8750 h1        1 SC6      0.044700
     49 H91        -7.9540    0.5700   -1.5070 hc        1 SC6      0.052200
     50 H92        -7.2380   -1.0170   -1.0190 hc        1 SC6      0.052200
     51 H101       -8.9730    0.8020    0.5670 hc        1 SC6      0.059700
     52 H102       -8.3900   -0.8590    0.9990 hc        1 SC6      0.059700
     53 H11        -6.7860    0.0110    2.4320 h1        1 SC6      0.063700
     54 H121       -8.4850    1.6230    3.0150 h1        1 SC6      0.046200
     55 H122       -6.8450    2.4500    3.0100 h1        1 SC6      0.046200
     56 H301       -1.7830    4.8840   -1.5100 hc        1 SC6      0.048033
     57 H302       -1.5870    3.7540   -2.9140 hc        1 SC6      0.048033
     58 H303       -3.2450    4.2640   -2.3840 hc        1 SC6      0.048033
     59 HN2         0.3680    0.0220   -1.8970 hn        1 SC6      0.312500
     60 H15         2.0220   -1.4660    0.0710 h1        1 SC6      0.120700
     61 H16         3.0990    0.5720   -0.9190 h1        1 SC6      0.101700
     62 H171        1.5070   -2.2790   -2.8950 hc        1 SC6      0.051200
     63 H172        2.6290   -3.0750   -1.7110 hc        1 SC6      0.051200
     64 HO3         2.7310   -0.6350   -3.4480 ho        1 SC6      0.395000
     65 H21         1.5130   -3.7480    0.6090 ha        1 SC6      0.155000
     66 H23        -2.2970   -5.7340   -0.0320 ha        1 SC6      0.164000
     67 H25        -0.6280   -3.1850   -3.1230 ha        1 SC6      0.155000
     68 H26         7.3900   -0.1830   -0.7810 h1        1 SC6      0.059700
     69 H182        5.1510   -0.2360    1.2170 h1        1 SC6      0.066700
     70 HN3         4.9620   -2.6360   -0.3030 hn        1 SC6      0.355800
     71 H201        5.0760    0.8190   -2.2820 hc        1 SC6      0.075200
     72 H202        6.1290   -0.5960   -2.7030 hc        1 SC6      0.075200
     73 H27         4.2900   -1.9450   -2.2970 h1        1 SC6      0.041700
     74 H32         7.9580    0.1280    1.3500 ha        1 SC6      0.141500
     75 H33         9.5980    1.3080    2.7970 ha        1 SC6      0.133500
     76 H34         9.6720    3.8010    2.8440 ha        1 SC6      0.134000
     77 H35         8.0980    5.1230    1.4300 ha        1 SC6      0.133500
     78 H36         6.4520    3.9500   -0.0500 ha        1 SC6      0.141500
     79 H371       -9.3320    3.9670    2.7600 h1        1 SC6      0.032700
     80 H372       -7.6430    4.6250    2.5070 h1        1 SC6      0.032700
     81 H373       -8.8870    4.7540    1.1600 h1        1 SC6      0.032700
     82 H181        6.4350   -1.5000    0.9420 h1        1 SC6      0.066700
     83 C37        -8.5170    4.1330    2.0130 c3        1 SC6      0.116700
@<TRIPOS>BOND
     1    1    2 ar  
     2    1    6 ar  
     3    1   44 1   
     4    2    3 ar  
     5    2   15 1   
     6    3    4 ar  
     7    3   45 1   
     8    4    5 ar  
     9    4   16 1   
    10    5    6 ar  
    11    5   46 1   
    12    6    7 1   
    13    7    8 1   
    14    7    9 2   
    15    8   10 1   
    16    8   13 1   
    17   10   11 1   
    18   10   47 1   
    19   10   48 1   
    20   11   12 1   
    21   11   49 1   
    22   11   50 1   
    23   12   13 1   
    24   12   51 1   
    25   12   52 1   
    26   13   14 1   
    27   13   53 1   
    28   14   43 1   
    29   14   54 1   
    30   14   55 1   
    31   15   56 1   
    32   15   57 1   
    33   15   58 1   
    34   16   17 1   
    35   16   18 2   
    36   17   19 1   
    37   17   59 1   
    38   19   20 1   
    39   19   21 1   
    40   19   60 1   
    41   20   22 1   
    42   20   35 1   
    43   20   61 1   
    44   21   23 1   
    45   21   62 1   
    46   21   63 1   
    47   22   64 1   
    48   23   24 ar  
    49   23   28 ar  
    50   24   25 ar  
    51   24   65 1   
    52   25   26 ar  
    53   25   29 1   
    54   26   27 ar  
    55   26   66 1   
    56   27   28 ar  
    57   27   30 1   
    58   28   67 1   
    59   31   32 1   
    60   31   34 1   
    61   31   36 1   
    62   31   68 1   
    63   32   33 1   
    64   32   69 1   
    65   32   82 1   
    66   33   35 1   
    67   33   70 1   
    68   34   35 1   
    69   34   71 1   
    70   34   72 1   
    71   35   73 1   
    72   36   37 1   
    73   37   38 ar  
    74   37   42 ar  
    75   38   39 ar  
    76   38   74 1   
    77   39   40 ar  
    78   39   75 1   
    79   40   41 ar  
    80   40   76 1   
    81   41   42 ar  
    82   41   77 1   
    83   42   78 1   
    84   43   83 1   
    85   79   83 1   
    86   80   83 1   
    87   81   83 1   
@<TRIPOS>SUBSTRUCTURE
     1 SC6         1 TEMP              0 ****  ****    0 ROOT
