@<TRIPOS>MOLECULE
SC7
   83    85     1     0     0
SMALL
bcc


@<TRIPOS>ATOM
      1 F1          0.4090   -5.0200    1.9110 f         1 SC7     -0.135400
      2 F2         -0.7710   -5.0930   -2.7050 f         1 SC7     -0.135400
      3 C1         -3.9410    1.9070   -2.0180 ca        1 SC7     -0.079000
      4 C2         -4.0240    0.9980   -0.9620 ca        1 SC7     -0.126600
      5 C3         -2.8630    0.5030   -0.3620 ca        1 SC7     -0.060000
      6 C4         -1.6150    0.9280   -0.8290 ca        1 SC7     -0.138600
      7 C5         -1.5280    1.8460   -1.8780 ca        1 SC7     -0.098000
      8 C6         -2.6920    2.3410   -2.4770 ca        1 SC7     -0.083300
      9 N1         -5.8750    0.9160    0.6910 n         1 SC7     -0.470800
     10 O1         -6.0140   -0.2760   -1.2620 o         1 SC7     -0.596100
     11 C8         -5.2160    1.8990    1.5150 c3        1 SC7      0.089500
     12 C9         -7.1810    0.4620    1.1200 c3        1 SC7      0.089500
     13 C10        -7.1490   -0.6330    2.1880 c3        1 SC7     -0.100900
     14 C11        -8.5530   -1.0130    2.5790 c3        1 SC7     -0.093100
     15 C12        -5.6200    3.3500    1.2360 c3        1 SC7     -0.100900
     16 C13        -4.8960    4.2790    2.1760 c3        1 SC7     -0.093100
     17 C14        -2.6070    3.3250   -3.5810 c3        1 SC7     -0.056800
     18 N2          0.6440   -0.0110   -0.9650 n         1 SC7     -0.556900
     19 C16         1.9190   -0.4410   -0.4380 c3        1 SC7      0.081700
     20 C17         2.9870    0.6780   -0.5930 c3        1 SC7      0.116100
     21 O3          3.1710    1.0140   -1.9580 oh        1 SC7     -0.596800
     22 C19         1.4880   -2.8870   -0.8590 ca        1 SC7     -0.022300
     23 C20         1.3720   -3.4130    0.4310 ca        1 SC7     -0.177000
     24 C21         0.5230   -4.5100    0.6610 ca        1 SC7      0.154900
     25 C22        -0.2090   -5.0890   -0.3890 ca        1 SC7     -0.208000
     26 C23        -0.0760   -4.5480   -1.6770 ca        1 SC7      0.154900
     27 C24         0.7700   -3.4490   -1.9160 ca        1 SC7     -0.177000
     28 C25         4.3520    0.3410    0.0550 c3        1 SC7      0.138500
     29 C26         5.2370    1.5950   -0.0390 c3        1 SC7     -0.113400
     30 C27         6.6010    1.3270    0.5900 c3        1 SC7      0.145100
     31 C28         6.4500    0.8110    2.0170 c3        1 SC7     -0.145400
     32 C29         5.5050   -0.3880    2.0500 c3        1 SC7      0.157800
     33 N3          4.2210   -0.1960    1.4040 n3        1 SC7     -0.802200
     34 O4          7.2860    2.5810    0.5760 os        1 SC7     -0.421600
     35 C30         8.7010    2.4530    0.7040 c3        1 SC7      0.130400
     36 C31         9.2730    3.8490    0.6300 c3        1 SC7     -0.097100
     37 H1         -4.8620    2.2760   -2.4970 ha        1 SC7      0.148000
     38 H3         -2.9190   -0.2130    0.4740 ha        1 SC7      0.163000
     39 H5         -0.5470    2.1970   -2.2350 ha        1 SC7      0.140000
     40 H81        -5.4540    1.6620    2.5930 h1        1 SC7      0.057950
     41 H82        -4.0990    1.8060    1.3880 h1        1 SC7      0.057950
     42 H91        -7.7470    1.3490    1.5270 h1        1 SC7      0.057950
     43 H92        -7.7430    0.0700    0.2230 h1        1 SC7      0.057950
     44 H101       -6.6090   -1.5320    1.7920 hc        1 SC7      0.046200
     45 H102       -6.5880   -0.2760    3.0910 hc        1 SC7      0.046200
     46 H111       -8.5320   -1.8140    3.3570 hc        1 SC7      0.036367
     47 H112       -9.1030   -0.1330    2.9940 hc        1 SC7      0.036367
     48 H113       -9.1200   -1.3960    1.6950 hc        1 SC7      0.036367
     49 H121       -5.3730    3.6140    0.1750 hc        1 SC7      0.046200
     50 H122       -6.7280    3.4700    1.3620 hc        1 SC7      0.046200
     51 H131       -5.1860    5.3370    1.9690 hc        1 SC7      0.036367
     52 H132       -5.1500    4.0450    3.2380 hc        1 SC7      0.036367
     53 H133       -3.7900    4.1860    2.0510 hc        1 SC7      0.036367
     54 H141       -2.7120    4.3630   -3.1760 hc        1 SC7      0.049367
     55 H142       -1.6250    3.2540   -4.1090 hc        1 SC7      0.049367
     56 H143       -3.4230    3.1560   -4.3270 hc        1 SC7      0.049367
     57 HN2         0.6080    0.1870   -1.9370 hn        1 SC7      0.315500
     58 H16         1.7780   -0.6430    0.6680 h1        1 SC7      0.112700
     59 H17         2.5880    1.6300   -0.1340 h1        1 SC7      0.086700
     60 HO3         3.6230    0.2750   -2.3830 ho        1 SC7      0.399000
     61 H181        2.5330   -1.5810   -2.2090 hc        1 SC7      0.059700
     62 H182        3.4130   -1.9900   -0.6740 hc        1 SC7      0.059700
     63 H20         1.9330   -2.9720    1.2680 ha        1 SC7      0.155500
     64 H22        -0.8730   -5.9450   -0.2050 ha        1 SC7      0.165000
     65 H24         0.8530   -3.0440   -2.9340 ha        1 SC7      0.155500
     66 H25         4.8460   -0.4690   -0.5640 h1        1 SC7      0.054700
     67 H261        5.3610    1.8810   -1.1150 hc        1 SC7      0.067700
     68 H262        4.7510    2.4590    0.4840 hc        1 SC7      0.067700
     69 H27         7.1670    0.5740   -0.0280 h1        1 SC7      0.036700
     70 H281        7.4470    0.5040    2.4220 hc        1 SC7      0.056200
     71 H282        6.0600    1.6370    2.6670 hc        1 SC7      0.056200
     72 H291        6.0080   -1.2590    1.5410 h1        1 SC7      0.054700
     73 H292        5.3120   -0.6780    3.1200 h1        1 SC7      0.054700
     74 HN3         3.6420    0.4140    1.9550 hn        1 SC7      0.361800
     75 H301        8.9480    1.9680    1.6870 h1        1 SC7      0.024200
     76 H302        9.0980    1.8100   -0.1270 h1        1 SC7      0.024200
     77 H311       10.3840    3.7990    0.7270 hc        1 SC7      0.046033
     78 H312        9.0100    4.3270   -0.3440 hc        1 SC7      0.046033
     79 H313        8.8620    4.4820    1.4520 hc        1 SC7      0.046033
     80 C18         2.4060   -1.7410   -1.1050 c3        1 SC7     -0.051100
     81 C15        -0.3940    0.4000   -0.1510 c         1 SC7      0.674700
     82 C7         -5.3670    0.5020   -0.5310 c         1 SC7      0.671700
     83 O2         -0.3310    0.3000    1.0910 o         1 SC7     -0.606100
@<TRIPOS>BOND
     1    1   24 1   
     2    2   26 1   
     3    3    4 ar  
     4    3    8 ar  
     5    3   37 1   
     6    4    5 ar  
     7    4   82 1   
     8    5    6 ar  
     9    5   38 1   
    10    6    7 ar  
    11    6   81 1   
    12    7    8 ar  
    13    7   39 1   
    14    8   17 1   
    15    9   11 1   
    16    9   12 1   
    17    9   82 1   
    18   10   82 2   
    19   11   15 1   
    20   11   40 1   
    21   11   41 1   
    22   12   13 1   
    23   12   42 1   
    24   12   43 1   
    25   13   14 1   
    26   13   44 1   
    27   13   45 1   
    28   14   46 1   
    29   14   47 1   
    30   14   48 1   
    31   15   16 1   
    32   15   49 1   
    33   15   50 1   
    34   16   51 1   
    35   16   52 1   
    36   16   53 1   
    37   17   54 1   
    38   17   55 1   
    39   17   56 1   
    40   18   19 1   
    41   18   57 1   
    42   18   81 1   
    43   19   20 1   
    44   19   58 1   
    45   19   80 1   
    46   20   21 1   
    47   20   28 1   
    48   20   59 1   
    49   21   60 1   
    50   22   23 ar  
    51   22   27 ar  
    52   22   80 1   
    53   23   24 ar  
    54   23   63 1   
    55   24   25 ar  
    56   25   26 ar  
    57   25   64 1   
    58   26   27 ar  
    59   27   65 1   
    60   28   29 1   
    61   28   33 1   
    62   28   66 1   
    63   29   30 1   
    64   29   67 1   
    65   29   68 1   
    66   30   31 1   
    67   30   34 1   
    68   30   69 1   
    69   31   32 1   
    70   31   70 1   
    71   31   71 1   
    72   32   33 1   
    73   32   72 1   
    74   32   73 1   
    75   33   74 1   
    76   34   35 1   
    77   35   36 1   
    78   35   75 1   
    79   35   76 1   
    80   36   77 1   
    81   36   78 1   
    82   36   79 1   
    83   61   80 1   
    84   62   80 1   
    85   81   83 2   
@<TRIPOS>SUBSTRUCTURE
     1 SC7         1 TEMP              0 ****  ****    0 ROOT
