@<TRIPOS>MOLECULE
SC7
   85    82     1     0     0
SMALL
bcc


@<TRIPOS>ATOM
      1 F1          0.2840   -0.1820    1.3050 f         1 SC7     -0.089000
      2 F2          0.9700    3.8100   -1.2070 f         1 SC7     -0.089000
      3 C1          6.6610    3.4580   -6.4470 c3        1 SC7     -0.060000
      4 C2          5.9890    4.5690   -5.6670 c2        1 SC7     -0.166000
      5 C3          6.0820    4.7630   -4.3320 c2        1 SC7     -0.029000
      6 C4          6.9270    3.9370   -3.3950 c3        1 SC7     -0.057000
      7 C5          7.4730    2.8210   -4.1460 c2        1 SC7     -0.245000
      8 C6          7.3640    2.6220   -5.4950 c2        1 SC7     -0.178000
      9 N1          4.9930    6.7530   -6.3960 n3        1 SC7     -0.232000
     10 O1          4.4260    4.7110   -7.4170 os        1 SC7     -0.123000
     11 C8          5.7220    7.5980   -5.4620 c3        1 SC7     -0.065000
     12 C9          2.7680    5.8710  -10.5630 c3        1 SC7     -0.218000
     13 C10         3.7520    5.3910   -9.5780 c2        1 SC7     -0.046000
     14 C11         3.5000    5.3670   -8.2600 c2        1 SC7     -0.178000
     15 C12         6.0520    8.9740   -6.0400 c3        1 SC7     -0.179000
     16 C13         6.7470    9.7990   -4.9860 c3        1 SC7     -0.220000
     17 C14         8.0930    1.6460   -4.7140 c1        1 SC7      0.230000
     18 N2          6.4400    2.4140   -1.4910 n         1 SC7     -0.400000
     19 C16         3.6530    3.0810    3.4730 c3        1 SC7     -0.247000
     20 C17         4.9010    2.2390    3.4630 c3        1 SC7     -0.099000
     21 O3          5.3870    1.9200    2.1190 os        1 SC7     -0.085000
     22 C19         3.2940    1.8310    0.8030 ca        1 SC7     -0.121000
     23 C20         2.4500    0.8110    1.2540 ca        1 SC7     -0.170500
     24 C21         1.0970    0.8070    0.8690 ca        1 SC7      0.128000
     25 C22         0.5810    1.8200    0.0440 ca        1 SC7     -0.187000
     26 C23         1.4470    2.8320   -0.4040 ca        1 SC7      0.128000
     27 C24         2.8060    2.8370   -0.0390 ca        1 SC7     -0.170500
     28 C25         4.7070    0.9330    4.2460 c3        1 SC7     -0.110000
     29 C26         5.4860   -2.3540    6.1240 c2        1 SC7      0.219000
     30 C27         6.1960   -2.5700    7.3460 c3        1 SC7     -0.146000
     31 C28         4.2960   -2.4500   10.2150 c1        1 SC7     -0.225000
     32 C29         3.9750   -3.5710    9.9390 c1        1 SC7     -0.225000
     33 N3          5.8790    0.0990    4.3940 n3        1 SC7     -0.370000
     34 O4          7.0250   -1.4680    7.6410 os        1 SC7     -0.269000
     35 C30         7.7110   -1.6000    8.9040 c3        1 SC7     -0.024000
     36 C31         8.5410   -0.3500    9.0570 c3        1 SC7     -0.223000
     37 H1          5.8860    2.8630   -7.0110 hc        1 SC7      0.151500
     38 H3          5.5020    5.5480   -3.8070 ha        1 SC7      0.176000
     39 H5          7.7720    4.5980   -3.0180 hc        1 SC7      0.178000
     40 H81         5.0800    7.7240   -4.5410 h1        1 SC7      0.127000
     41 H82         6.6820    7.0820   -5.1620 h1        1 SC7      0.127000
     42 H91         4.7150    5.0290   -9.9840 ha        1 SC7      0.156000
     43 H92         3.2190    6.6850  -11.1870 hc        1 SC7      0.119000
     44 H101        3.2180    8.9240   -7.5400 ha        1 SC7      0.001500
     45 H102        2.9220    9.5210   -7.6670 ha        1 SC7      0.001500
     46 H111        2.4870    5.0280  -11.2480 hc        1 SC7      0.119000
     47 H112        1.8360    6.2600  -10.0840 hc        1 SC7      0.119000
     48 H113        2.5730    5.6540   -7.7450 h4        1 SC7      0.180000
     49 H121        6.7160    8.8670   -6.9380 hc        1 SC7      0.105000
     50 H122        5.1130    9.4940   -6.3710 hc        1 SC7      0.105000
     51 H131        7.0460   10.7850   -5.4180 hc        1 SC7      0.096333
     52 H132        6.0710    9.9880   -4.1170 hc        1 SC7      0.096333
     53 H133        7.6660    9.2810   -4.6160 hc        1 SC7      0.096333
     54 H141        7.3710    3.8890   -7.2060 hc        1 SC7      0.151500
     55 H142        8.0800    6.7550   -3.5210 ha        1 SC7      0.001500
     56 H143        8.5140    7.2690   -3.4410 ha        1 SC7      0.001500
     57 HN2         7.1540    1.8180   -1.8320 hn        1 SC7      0.258500
     58 H16         5.9310    2.1450   -0.6700 hn        1 SC7      0.258500
     59 H17         5.7690    2.8260    3.8820 h1        1 SC7      0.130000
     60 HO3         6.2190   -0.1820    3.4910 hn        1 SC7      0.165500
     61 H181        3.7340    3.9020    2.7190 hc        1 SC7      0.104000
     62 H182        2.7480    2.4700    3.2360 hc        1 SC7      0.104000
     63 H20         2.8310   -0.0020    1.8870 ha        1 SC7      0.165000
     64 H22        -0.4800    1.8180   -0.2490 ha        1 SC7      0.181000
     65 H24         3.4780    3.6230   -0.4290 ha        1 SC7      0.165000
     66 H25         4.3380    1.2110    5.2740 h1        1 SC7      0.106000
     67 H261        3.9060    0.3240    3.7390 h1        1 SC7      0.106000
     68 H262        4.8270   -3.1500    5.7300 ha        1 SC7      0.214500
     69 H27         6.7900   -3.5440    7.3160 h1        1 SC7      0.226500
     70 H281        5.4200   -2.7420    8.1920 h1        1 SC7      0.226500
     71 H282        4.5520   -1.4600   10.5050 ha        1 SC7      0.234500
     72 H291        6.6120    0.6080    4.8560 hn        1 SC7      0.165500
     73 H292        3.6710   -4.5710    9.7380 ha        1 SC7      0.234500
     74 HN3         5.5750   -1.3820    5.5460 ha        1 SC7      0.214500
     75 H301        6.9440   -1.6940    9.7200 h1        1 SC7      0.091000
     76 H302        8.3510   -2.5210    8.8750 h1        1 SC7      0.091000
     77 H311        7.8920    0.5580    9.0600 hc        1 SC7      0.106333
     78 H312        9.2750   -0.2590    8.2210 hc        1 SC7      0.106333
     79 H313        9.0960   -0.4050   10.0250 hc        1 SC7      0.106333
     80 H11         4.3690    7.2370   -7.0240 hn        1 SC7      0.278000
     81 H221        3.5180    3.5400    4.4830 hc        1 SC7      0.104000
     82 C18         4.7290    1.7750    1.0410 c1        1 SC7      0.041000
     83 C15         6.1100    3.5520   -2.1520 c2        1 SC7      0.320000
     84 C7          5.1160    5.4300   -6.4940 c2        1 SC7      0.332000
     85 O2          5.1970    4.3160   -1.7650 o         1 SC7     -0.403000
@<TRIPOS>BOND
     1    1   24 1   
     2    2   26 1   
     3    3    4 1   
     4    3    8 1   
     5    3   37 1   
     6    3   54 1   
     7    4    5 1   
     8    4   84 1   
     9    5    6 1   
    10    5   38 1   
    11    6    7 1   
    12    6   39 1   
    13    6   83 1   
    14    7    8 1   
    15    7   17 1   
    16    8   17 1   
    17    9   11 1   
    18    9   80 1   
    19    9   84 1   
    20   10   14 1   
    21   10   84 1   
    22   11   15 1   
    23   11   40 1   
    24   11   41 1   
    25   12   13 1   
    26   12   43 1   
    27   12   46 1   
    28   12   47 1   
    29   13   14 1   
    30   13   42 1   
    31   14   48 1   
    32   15   16 1   
    33   15   49 1   
    34   15   50 1   
    35   16   51 1   
    36   16   52 1   
    37   16   53 1   
    38   18   57 1   
    39   18   58 1   
    40   18   83 1   
    41   19   20 1   
    42   19   61 1   
    43   19   62 1   
    44   19   81 1   
    45   20   21 1   
    46   20   28 1   
    47   20   59 1   
    48   21   82 1   
    49   22   23 1   
    50   22   27 1   
    51   22   82 1   
    52   23   24 1   
    53   23   63 1   
    54   24   25 1   
    55   25   26 1   
    56   25   64 1   
    57   26   27 1   
    58   27   65 1   
    59   28   33 1   
    60   28   66 1   
    61   28   67 1   
    62   29   30 1   
    63   29   68 1   
    64   29   74 1   
    65   30   34 1   
    66   30   69 1   
    67   30   70 1   
    68   31   32 1   
    69   31   71 1   
    70   32   73 1   
    71   33   60 1   
    72   33   72 1   
    73   34   35 1   
    74   35   36 1   
    75   35   75 1   
    76   35   76 1   
    77   36   77 1   
    78   36   78 1   
    79   36   79 1   
    80   44   45 1   
    81   55   56 1   
    82   83   85 1   
@<TRIPOS>SUBSTRUCTURE
     1 SC7         1 TEMP              0 ****  ****    0 ROOT
