@<TRIPOS>MOLECULE
SC8
   38    41     1     0     0
SMALL
bcc


@<TRIPOS>ATOM
      1 C01        -0.0810    0.4570    0.0030 cc        1 SC8     -0.316600
      2 C02         1.3240    0.2910   -0.0590 cd        1 SC8      0.390500
      3 N03         1.7310    0.0690    1.3210 na        1 SC8      0.003200
      4 N04         0.6830    0.0840    2.1610 nd        1 SC8     -0.582100
      5 C05        -0.4150    0.3190    1.3930 cc        1 SC8      0.383500
      6 N06         2.2090    0.3220   -1.1100 nd        1 SC8     -0.641000
      7 C07         3.4900    0.1200   -0.8100 cc        1 SC8      0.523800
      8 C08         3.9780   -0.1160    0.5190 cc        1 SC8     -0.382300
      9 C09         3.0920   -0.1620    1.6040 cd        1 SC8      0.289300
     10 N10         3.4930   -0.4820    2.8990 nu        1 SC8     -0.744600
     11 C11         4.5030    0.1490   -1.8890 ca        1 SC8     -0.135500
     12 C12         4.8780   -0.2730    3.2600 c3        1 SC8      0.244100
     13 C13         5.1010   -0.2350    4.7420 ca        1 SC8     -0.075300
     14 C14         4.6170   -1.2510    5.5730 ca        1 SC8     -0.233800
     15 C15         4.8900   -1.1770    6.9510 ca        1 SC8      0.396700
     16 N16         5.5980   -0.1810    7.5180 nb        1 SC8     -0.655000
     17 C17         6.0580    0.7880    6.7040 ca        1 SC8      0.396700
     18 C18         5.8350    0.8100    5.3160 ca        1 SC8     -0.233800
     19 C19         5.4680    1.1620   -1.8730 ca        1 SC8     -0.104000
     20 C20         6.4400    1.2210   -2.8690 ca        1 SC8     -0.126000
     21 C21         6.4590    0.2700   -3.8860 ca        1 SC8     -0.109000
     22 C22         5.5000   -0.7480   -3.9080 ca        1 SC8      0.011400
     23 C23         4.5130   -0.8140   -2.9100 ca        1 SC8      0.047400
     24 Cl24        3.3580   -2.0520   -2.9330 cl        1 SC8     -0.045400
     25 Cl25        5.5530   -1.8940   -5.1590 cl        1 SC8     -0.066400
     26 H01        -0.7510    0.6440   -0.8280 ha        1 SC8      0.182000
     27 H05        -1.4090    0.3840    1.8400 h4        1 SC8      0.053800
     28 H08         5.0510   -0.2920    0.6630 ha        1 SC8      0.161000
     29 HN10        2.8310   -0.3590    3.6370 hn        1 SC8      0.448800
     30 H121        5.4780   -1.1320    2.8310 h1        1 SC8      0.059700
     31 H122        5.2730    0.6800    2.7950 h1        1 SC8      0.059700
     32 H14         4.0420   -2.0940    5.1660 ha        1 SC8      0.150500
     33 H15         4.5240   -1.9600    7.6410 h4        1 SC8      0.027600
     34 H17         6.6350    1.5930    7.1940 h4        1 SC8      0.027600
     35 H18         6.2320    1.6300    4.7040 ha        1 SC8      0.150500
     36 H19         5.4500    1.9150   -1.0710 ha        1 SC8      0.145000
     37 H20         7.1930    2.0230   -2.8560 ha        1 SC8      0.143000
     38 H21         7.2260    0.3180   -4.6750 ha        1 SC8      0.153000
@<TRIPOS>BOND
     1    1    2 2   
     2    1    5 1   
     3    1   26 1   
     4    2    3 1   
     5    2    6 1   
     6    3    4 1   
     7    3    9 1   
     8    4    5 2   
     9    5   27 1   
    10    6    7 2   
    11    7    8 1   
    12    7   11 1   
    13    8    9 2   
    14    8   28 1   
    15    9   10 1   
    16   10   12 1   
    17   10   29 1   
    18   11   19 ar  
    19   11   23 ar  
    20   12   13 1   
    21   12   30 1   
    22   12   31 1   
    23   13   14 ar  
    24   13   18 ar  
    25   14   15 ar  
    26   14   32 1   
    27   15   16 ar  
    28   15   33 1   
    29   16   17 ar  
    30   17   18 ar  
    31   17   34 1   
    32   18   35 1   
    33   19   20 ar  
    34   19   36 1   
    35   20   21 ar  
    36   20   37 1   
    37   21   22 ar  
    38   21   38 1   
    39   22   23 ar  
    40   22   25 1   
    41   23   24 1   
@<TRIPOS>SUBSTRUCTURE
     1 SC8         1 TEMP              0 ****  ****    0 ROOT
