@<TRIPOS>MOLECULE
SC8
   39    42     1     0     0
SMALL
bcc


@<TRIPOS>ATOM
      1 C01        -0.0620   -0.9580   -0.0540 cc        1 SC8     -0.243600
      2 C02         1.3260   -0.6900   -0.1020 cd        1 SC8      0.370500
      3 N03         1.7020   -0.4890    1.3000 na        1 SC8      0.002200
      4 N04         0.6590   -0.6170    2.1300 nd        1 SC8     -0.587100
      5 C05        -0.4150   -0.9000    1.3400 cc        1 SC8      0.416500
      6 N06         2.2330   -0.5970   -1.1270 nd        1 SC8     -0.552000
      7 C07         3.4910   -0.3180   -0.8120 cc        1 SC8      0.502800
      8 C08         3.9480   -0.1160    0.5560 cc        1 SC8     -0.199300
      9 C09         3.0390   -0.1990    1.5930 cd        1 SC8      0.063300
     10 N10         3.3890    0.0030    3.0120 n4        1 SC8     -0.639400
     11 C11         4.5130   -0.2170   -1.8720 ca        1 SC8     -0.177500
     12 C12         4.8420    0.3080    3.2480 c3        1 SC8      0.172100
     13 C13         5.0980    0.4950    4.7050 ca        1 SC8     -0.150300
     14 C14         5.4070   -0.6040    5.5150 ca        1 SC8     -0.222800
     15 C15         5.6840   -0.3690    6.8760 ca        1 SC8      0.419200
     16 N16         5.6630    0.8550    7.4360 nb        1 SC8     -0.610000
     17 C17         5.3650    1.9010    6.6430 ca        1 SC8      0.419200
     18 C18         5.0720    1.7750    5.2700 ca        1 SC8     -0.222800
     19 C19         4.7280   -1.3140   -2.7120 ca        1 SC8     -0.078000
     20 C20         5.6960   -1.2480   -3.7140 ca        1 SC8     -0.113000
     21 C21         6.4470   -0.0890   -3.8900 ca        1 SC8     -0.085000
     22 C22         6.2280    1.0220   -3.0640 ca        1 SC8      0.018400
     23 C23         5.2540    0.9640   -2.0550 ca        1 SC8      0.029400
     24 CL24        4.9550    2.3270   -1.0850 cl        1 SC8     -0.072400
     25 CL25        7.1460    2.4200   -3.3100 cl        1 SC8     -0.032400
     26 H01        -0.7170   -1.1610   -0.8980 ha        1 SC8      0.211000
     27 H05        -1.4090   -1.0540    1.7750 h4        1 SC8      0.084800
     28 H08         5.0160    0.1010    0.7100 ha        1 SC8      0.187000
     29 HN10        3.1360   -0.8470    3.5420 hn        1 SC8      0.473300
     30 H121        5.4490   -0.5540    2.8440 hx        1 SC8      0.116700
     31 H122        5.0990    1.2450    2.6730 hx        1 SC8      0.116700
     32 H14         5.4570   -1.6240    5.1100 ha        1 SC8      0.154500
     33 H15         5.9400   -1.2070    7.5550 h4        1 SC8      0.054100
     34 H17         5.3640    2.8950    7.1330 h4        1 SC8      0.054100
     35 H18         4.8510    2.6680    4.6690 ha        1 SC8      0.154500
     36 H19         4.1270   -2.2290   -2.5880 ha        1 SC8      0.158000
     37 H20         5.8620   -2.1150   -4.3730 ha        1 SC8      0.163000
     38 H21         7.2100   -0.0390   -4.6850 ha        1 SC8      0.171000
     39 H102        2.8200    0.7800    3.3850 hn        1 SC8      0.473300
@<TRIPOS>BOND
     1    1    2 2   
     2    1    5 1   
     3    1   26 1   
     4    2    3 1   
     5    2    6 1   
     6    3    4 1   
     7    3    9 1   
     8    4    5 2   
     9    5   27 1   
    10    6    7 2   
    11    7    8 1   
    12    7   11 1   
    13    8    9 2   
    14    8   28 1   
    15    9   10 1   
    16   10   12 1   
    17   10   29 1   
    18   10   39 1   
    19   11   19 ar  
    20   11   23 ar  
    21   12   13 1   
    22   12   30 1   
    23   12   31 1   
    24   13   14 ar  
    25   13   18 ar  
    26   14   15 ar  
    27   14   32 1   
    28   15   16 ar  
    29   15   33 1   
    30   16   17 ar  
    31   17   18 ar  
    32   17   34 1   
    33   18   35 1   
    34   19   20 ar  
    35   19   36 1   
    36   20   21 ar  
    37   20   37 1   
    38   21   22 ar  
    39   21   38 1   
    40   22   23 ar  
    41   22   25 1   
    42   23   24 1   
@<TRIPOS>SUBSTRUCTURE
     1 SC8         1 TEMP              0 ****  ****    0 ROOT
