@<TRIPOS>MOLECULE
SC8
   38    41     1     0     0
SMALL
bcc


@<TRIPOS>ATOM
      1 C01        -0.0810    0.4550    0.0010 cc        1 SC8     -0.316600
      2 C02         1.3250    0.2930   -0.0600 cd        1 SC8      0.390500
      3 N03         1.7310    0.0640    1.3180 na        1 SC8      0.003200
      4 N04         0.6820    0.0720    2.1580 nd        1 SC8     -0.582100
      5 C05        -0.4160    0.3090    1.3890 cc        1 SC8      0.383500
      6 N06         2.2110    0.3320   -1.1100 nd        1 SC8     -0.641000
      7 C07         3.4920    0.1310   -0.8100 cc        1 SC8      0.523800
      8 C08         3.9790   -0.1130    0.5180 cc        1 SC8     -0.382300
      9 C09         3.0920   -0.1660    1.6020 cd        1 SC8      0.289300
     10 N10         3.4930   -0.4930    2.8960 nh        1 SC8     -0.744600
     11 C11         4.5060    0.1680   -1.8870 ca        1 SC8     -0.135500
     12 C12         4.8770   -0.2830    3.2590 c3        1 SC8      0.244100
     13 C13         5.0980   -0.2520    4.7420 ca        1 SC8     -0.075300
     14 C14         4.6140   -1.2730    5.5670 ca        1 SC8     -0.233800
     15 C15         4.8860   -1.2060    6.9460 ca        1 SC8      0.396700
     16 N16         5.5910   -0.2110    7.5190 nb        1 SC8     -0.655000
     17 C17         6.0500    0.7630    6.7100 ca        1 SC8      0.396700
     18 C18         5.8290    0.7910    5.3210 ca        1 SC8     -0.233800
     19 C19         5.4710    1.1800   -1.8640 ca        1 SC8     -0.104000
     20 C20         6.4440    1.2470   -2.8580 ca        1 SC8     -0.126000
     21 C21         6.4640    0.3030   -3.8820 ca        1 SC8     -0.109000
     22 C22         5.5060   -0.7150   -3.9120 ca        1 SC8      0.011400
     23 C23         4.5180   -0.7890   -2.9160 ca        1 SC8      0.047400
     24 CL24        3.3640   -2.0270   -2.9480 cl        1 SC8     -0.045400
     25 CL25        5.5620   -1.8510   -5.1710 cl        1 SC8     -0.066400
     26 H01        -0.7500    0.6460   -0.8300 ha        1 SC8      0.182000
     27 H05        -1.4110    0.3700    1.8360 h4        1 SC8      0.053800
     28 H08         5.0520   -0.2880    0.6630 ha        1 SC8      0.161000
     29 HN10        2.8290   -0.3750    3.6330 hn        1 SC8      0.448800
     30 H121        5.2690    0.6730    2.8000 h1        1 SC8      0.059700
     31 H122        5.4790   -1.1380    2.8260 h1        1 SC8      0.059700
     32 H14         4.0410   -2.1150    5.1550 ha        1 SC8      0.150500
     33 H15         4.5200   -1.9920    7.6310 h4        1 SC8      0.027600
     34 H17         6.6260    1.5670    7.2050 h4        1 SC8      0.027600
     35 H18         6.2250    1.6150    4.7140 ha        1 SC8      0.150500
     36 H19         5.4510    1.9280   -1.0560 ha        1 SC8      0.145000
     37 H20         7.1970    2.0500   -2.8380 ha        1 SC8      0.143000
     38 H21         7.2330    0.3580   -4.6690 ha        1 SC8      0.153000
@<TRIPOS>BOND
     1    1    2 2   
     2    1    5 1   
     3    1   26 1   
     4    2    3 1   
     5    2    6 1   
     6    3    4 1   
     7    3    9 1   
     8    4    5 2   
     9    5   27 1   
    10    6    7 2   
    11    7    8 1   
    12    7   11 1   
    13    8    9 2   
    14    8   28 1   
    15    9   10 1   
    16   10   12 1   
    17   10   29 1   
    18   11   19 ar  
    19   11   23 ar  
    20   12   13 1   
    21   12   30 1   
    22   12   31 1   
    23   13   14 ar  
    24   13   18 ar  
    25   14   15 ar  
    26   14   32 1   
    27   15   16 ar  
    28   15   33 1   
    29   16   17 ar  
    30   17   18 ar  
    31   17   34 1   
    32   18   35 1   
    33   19   20 ar  
    34   19   36 1   
    35   20   21 ar  
    36   20   37 1   
    37   21   22 ar  
    38   21   38 1   
    39   22   23 ar  
    40   22   25 1   
    41   23   24 1   
@<TRIPOS>SUBSTRUCTURE
     1 SC8         1 TEMP              0 ****  ****    0 ROOT
