@<TRIPOS>MOLECULE
SC8
   38    41     1     0     0
SMALL
bcc


@<TRIPOS>ATOM
      1 C01         0.4430    3.8800    0.4540 cc        1 SC8     -0.316600
      2 C02         0.4360    2.4740    0.2920 cd        1 SC8      0.390500
      3 N03        -0.9610    2.1350    0.0650 na        1 SC8      0.003200
      4 N04        -1.7490    3.2230    0.0740 nd        1 SC8     -0.582100
      5 C05        -0.9280    4.2820    0.3100 cc        1 SC8      0.383500
      6 N06         1.4420    1.5380    0.3290 nd        1 SC8     -0.641000
      7 C07         1.0800    0.2730    0.1280 cc        1 SC8      0.523800
      8 C08        -0.2710   -0.1490   -0.1130 cc        1 SC8     -0.383300
      9 C09        -1.3110    0.7890   -0.1650 cd        1 SC8      0.289300
     10 N10        -2.6230    0.4520   -0.4890 nh        1 SC8     -0.744600
     11 C11         2.1060   -0.7930    0.1640 ca        1 SC8     -0.135500
     12 C12        -3.0530   -0.9130   -0.2800 c3        1 SC8      0.244100
     13 C13        -4.5450   -1.0630   -0.2480 ca        1 SC8     -0.075300
     14 C14        -5.3460   -0.5390   -1.2690 ca        1 SC8     -0.233800
     15 C15        -6.7360   -0.7440   -1.2010 ca        1 SC8      0.396700
     16 N16        -7.3420   -1.4210   -0.2060 nb        1 SC8     -0.655000
     17 C17        -6.5560   -1.9200    0.7670 ca        1 SC8      0.396700
     18 C18        -5.1580   -1.7660    0.7950 ca        1 SC8     -0.233800
     19 C19         2.0400   -1.7530    1.1790 ca        1 SC8     -0.104000
     20 C20         2.9860   -2.7720    1.2440 ca        1 SC8     -0.126000
     21 C21         4.0040   -2.8450    0.2960 ca        1 SC8     -0.109000
     22 C22         4.0770   -1.8910   -0.7250 ca        1 SC8      0.011400
     23 C23         3.1290   -0.8560   -0.7970 ca        1 SC8      0.047400
     24 CL24        3.2120    0.2930   -2.0380 cl        1 SC8     -0.045400
     25 CL25        5.3270   -2.0090   -1.8660 cl        1 SC8     -0.066400
     26 H01         1.3050    4.5080    0.6430 ha        1 SC8      0.182000
     27 H05        -1.3260    5.2980    0.3710 h4        1 SC8      0.053800
     28 H08        -0.4680   -1.2140   -0.2870 ha        1 SC8      0.161000
     29 HN10       -3.3270    1.1500   -0.3700 hn        1 SC8      0.448800
     30 H121       -2.6500   -1.5350   -1.1350 h1        1 SC8      0.059700
     31 H122       -2.6120   -1.3280    0.6760 h1        1 SC8      0.059700
     32 H14        -4.9070    0.0140   -2.1100 ha        1 SC8      0.150500
     33 H15        -7.4030   -0.3450   -1.9860 h4        1 SC8      0.027600
     34 H17        -7.0770   -2.4710    1.5710 h4        1 SC8      0.027600
     35 H18        -4.5700   -2.1920    1.6180 ha        1 SC8      0.150500
     36 H19         1.2380   -1.6920    1.9300 ha        1 SC8      0.145000
     37 H20         2.9330   -3.5220    2.0480 ha        1 SC8      0.143000
     38 H21         4.7530   -3.6500    0.3490 ha        1 SC8      0.153000
@<TRIPOS>BOND
     1    1    2 2   
     2    1    5 1   
     3    1   26 1   
     4    2    3 1   
     5    2    6 1   
     6    3    4 1   
     7    3    9 1   
     8    4    5 2   
     9    5   27 1   
    10    6    7 2   
    11    7    8 1   
    12    7   11 1   
    13    8    9 2   
    14    8   28 1   
    15    9   10 1   
    16   10   12 1   
    17   10   29 1   
    18   11   19 ar  
    19   11   23 ar  
    20   12   13 1   
    21   12   30 1   
    22   12   31 1   
    23   13   14 ar  
    24   13   18 ar  
    25   14   15 ar  
    26   14   32 1   
    27   15   16 ar  
    28   15   33 1   
    29   16   17 ar  
    30   17   18 ar  
    31   17   34 1   
    32   18   35 1   
    33   19   20 ar  
    34   19   36 1   
    35   20   21 ar  
    36   20   37 1   
    37   21   22 ar  
    38   21   38 1   
    39   22   23 ar  
    40   22   25 1   
    41   23   24 1   
@<TRIPOS>SUBSTRUCTURE
     1 SC8         1 TEMP              0 ****  ****    0 ROOT
