@<TRIPOS>MOLECULE
SC9
   38    27     1     0     0
SMALL
bcc


@<TRIPOS>ATOM
      1 C01        -3.8200    0.4070   -1.4960 c1        1 SC9     -0.181000
      2 N02        -2.4680    0.3110   -1.4780 n2        1 SC9     -0.021000
      3 C03        -2.0840    0.1100   -0.2100 c1        1 SC9     -0.107000
      4 N04        -3.2080    0.0800    0.5740 n1        1 SC9     -0.128000
      5 C05        -4.2690    0.2620   -0.2170 c1        1 SC9     -0.142000
      6 C06        -1.5360    0.3800   -2.4690 c1        1 SC9     -0.135000
      7 C07        -0.1860    0.2410   -2.1660 c1        1 SC9      0.029000
      8 N08         0.2040    0.0370   -0.8840 n1        1 SC9     -0.216000
      9 C09        -0.7160   -0.0300    0.0960 c1        1 SC9      0.196000
     10 N10        -0.2680    0.1390    1.4520 n3        1 SC9     -0.286000
     11 C11         0.3750   -0.9630    2.1470 c3        1 SC9      0.013000
     12 C12         0.6140   -0.5770    3.5940 c1        1 SC9     -0.154000
     13 C13        -0.3570   -0.8080    4.5340 c1        1 SC9     -0.126750
     14 C14        -0.1200   -0.5080    5.8480 c1        1 SC9     -0.126750
     15 C15         1.0990    0.0290    6.2260 c1        1 SC9     -0.066000
     16 N16         2.0690    0.2590    5.2840 n1        1 SC9     -0.137000
     17 C17         1.8340   -0.0400    3.9750 c1        1 SC9     -0.058000
     18 C18         0.8880    0.2310   -3.0500 c1        1 SC9      0.020000
     19 C19         1.4190    1.4320   -3.5060 c1        1 SC9      0.020000
     20 C20         2.3850    1.4290   -4.5030 c1        1 SC9     -0.119500
     21 C21         2.8210    0.2270   -5.0450 c1        1 SC9     -0.126750
     22 C22         2.2920   -0.9720   -4.5900 c1        1 SC9     -0.126750
     23 C23         1.3260   -0.9720   -3.5940 c1        1 SC9     -0.119500
     24 F24         0.9270    2.5980   -3.0530 f         1 SC9     -0.106000
     25 H01        -4.3740    0.5540   -2.2870 DU        1 SC9      0.186000
     26 H05        -5.2040    0.2430    0.0640 DU        1 SC9      0.186000
     27 H06        -1.8180    0.5280   -3.3990 ha        1 SC9      0.180000
     28 HN10       -0.4460    0.9190    1.8990 hn        1 SC9      0.243000
     29 H111       -0.1980   -1.7490    2.1110 h1        1 SC9      0.103000
     30 H112        1.2380   -1.1650    1.7150 h1        1 SC9      0.103000
     31 H13        -1.2130   -1.1850    4.2670 ha        1 SC9      0.143750
     32 H14        -0.8170   -0.6730    6.5230 ha        1 SC9      0.143750
     33 H15         1.2670    0.2420    7.1590 ha        1 SC9      0.161000
     34 H17         2.5290    0.1250    3.3020 ha        1 SC9      0.163000
     35 H20         2.7610    2.2780   -4.8270 ha        1 SC9      0.152000
     36 H21         3.5020    0.2260   -5.7480 ha        1 SC9      0.143750
     37 H22         2.6010   -1.8240   -4.9750 ha        1 SC9      0.143750
     38 H23         0.9520   -1.8210   -3.2720 ha        1 SC9      0.152000
@<TRIPOS>BOND
     1    1    2 1   
     2    1    5 1   
     3    2    6 1   
     4    3    9 1   
     5    4    5 1   
     6    6   27 1   
     7    7    8 1   
     8    9   10 1   
     9   10   11 1   
    10   10   28 1   
    11   11   12 1   
    12   11   29 1   
    13   11   30 1   
    14   12   17 1   
    15   13   14 1   
    16   13   31 1   
    17   14   32 1   
    18   15   16 1   
    19   15   33 1   
    20   17   34 1   
    21   18   23 1   
    22   19   20 1   
    23   20   35 1   
    24   21   22 1   
    25   21   36 1   
    26   22   37 1   
    27   23   38 1   
@<TRIPOS>SUBSTRUCTURE
     1 SC9         1 TEMP              0 ****  ****    0 ROOT
