@<TRIPOS>MOLECULE
SC9
   39    42     1     0     0
SMALL
bcc


@<TRIPOS>ATOM
      1 C01        -0.0360    0.4290   -0.0880 cc        1 SC9     -0.172100
      2 N02         1.3480    0.2850   -0.0850 na        1 SC9      0.042700
      3 C03         1.7310    0.1780    1.3000 cc        1 SC9     -0.187600
      4 N04         0.6450    0.2490    2.1180 nd        1 SC9     -0.273600
      5 C05        -0.4400    0.4030    1.2730 cd        1 SC9      0.052600
      6 C06         2.3120    0.2400   -1.0570 cc        1 SC9     -0.106600
      7 C07         3.6560    0.0780   -0.6900 cd        1 SC9      0.432800
      8 N08         4.0710   -0.0360    0.6230 nd        1 SC9     -0.584000
      9 C09         3.1440    0.0210    1.5740 cc        1 SC9      0.499200
     10 N10         3.4910   -0.0750    3.0040 n4        1 SC9     -0.738700
     11 C11         4.9650   -0.1590    3.3030 c3        1 SC9      0.190100
     12 C12         5.1860   -0.2070    4.7710 ca        1 SC9     -0.319600
     13 C13         5.3780   -1.4270    5.4370 ca        1 SC9     -0.056000
     14 C14         5.6310   -1.4110    6.8060 ca        1 SC9     -0.236300
     15 C15         5.6840   -0.1670    7.4690 ca        1 SC9      0.448200
     16 N16         5.5050    1.0130    6.8430 nb        1 SC9     -0.642000
     17 C17         5.2660    0.9870    5.5200 ca        1 SC9      0.432200
     18 C18         4.6740    0.0280   -1.7480 ca        1 SC9     -0.213500
     19 C19         5.8220    0.8510   -1.7100 ca        1 SC9      0.166900
     20 C20         6.7710    0.7820   -2.7500 ca        1 SC9     -0.160000
     21 C21         6.5760   -0.0990   -3.8060 ca        1 SC9     -0.071000
     22 C22         5.4430   -0.9160   -3.8460 ca        1 SC9     -0.135000
     23 C23         4.5010   -0.8530   -2.8250 ca        1 SC9     -0.089000
     24 F24         6.0190    1.7210   -0.6940 f         1 SC9     -0.130900
     25 H01        -0.6180    0.5360   -1.0050 h4        1 SC9      0.216000
     26 H05        -1.4590    0.4900    1.6620 h4        1 SC9      0.215000
     27 H06         1.9940    0.3390   -2.1120 h4        1 SC9      0.209000
     28 HN10        3.0970    0.7540    3.4740 hn        1 SC9      0.468800
     29 H111        5.3720   -1.0820    2.7970 hx        1 SC9      0.122200
     30 H112        5.4620    0.7480    2.8490 hx        1 SC9      0.122200
     31 H13         5.3440   -2.3800    4.8870 ha        1 SC9      0.149000
     32 H14         5.7940   -2.3450    7.3650 ha        1 SC9      0.171000
     33 H15         5.8840   -0.1080    8.5570 h4        1 SC9      0.053100
     34 H17         5.1460    1.9750    5.0370 h4        1 SC9      0.031100
     35 H20         7.6590    1.4320   -2.7100 ha        1 SC9      0.167000
     36 H21         7.3210   -0.1530   -4.6170 ha        1 SC9      0.159000
     37 H22         5.2970   -1.6140   -4.6860 ha        1 SC9      0.157000
     38 H23         3.6150   -1.5070   -2.8540 ha        1 SC9      0.140000
     39 H102        3.0170   -0.9070    3.3830 hn        1 SC9      0.468800
@<TRIPOS>BOND
     1    1    2 1   
     2    1    5 2   
     3    1   25 1   
     4    2    3 1   
     5    2    6 1   
     6    3    4 2   
     7    3    9 1   
     8    4    5 1   
     9    5   26 1   
    10    6    7 2   
    11    6   27 1   
    12    7    8 1   
    13    7   18 1   
    14    8    9 2   
    15    9   10 1   
    16   10   11 1   
    17   10   28 1   
    18   10   39 1   
    19   11   12 1   
    20   11   29 1   
    21   11   30 1   
    22   12   13 ar  
    23   12   17 ar  
    24   13   14 ar  
    25   13   31 1   
    26   14   15 ar  
    27   14   32 1   
    28   15   16 ar  
    29   15   33 1   
    30   16   17 ar  
    31   17   34 1   
    32   18   19 ar  
    33   18   23 ar  
    34   19   20 ar  
    35   19   24 1   
    36   20   21 ar  
    37   20   35 1   
    38   21   22 ar  
    39   21   36 1   
    40   22   23 ar  
    41   22   37 1   
    42   23   38 1   
@<TRIPOS>SUBSTRUCTURE
     1 SC9         1 TEMP              0 ****  ****    0 ROOT
