@<TRIPOS>MOLECULE
SC9
   38    41     1     0     0
SMALL
bcc


@<TRIPOS>ATOM
      1 C01         1.5830   -4.0000   -0.1670 cc        1 SC9     -0.212100
      2 N02         1.5050   -2.6170   -0.0980 na        1 SC9      0.055700
      3 C03         0.1190   -2.2860   -0.0280 cc        1 SC9     -0.197600
      4 N04        -0.6490   -3.4160   -0.0520 nd        1 SC9     -0.268600
      5 C05         0.2420   -4.4650   -0.1360 cd        1 SC9     -0.000400
      6 C06         2.4550   -1.6150   -0.1030 cc        1 SC9     -0.240600
      7 C07         2.0270   -0.2920   -0.0440 cd        1 SC9      0.473800
      8 N08         0.7030    0.0970    0.0270 nd        1 SC9     -0.734000
      9 C09        -0.2420   -0.8610    0.0510 cc        1 SC9      0.722200
     10 N10        -1.5870   -0.5650    0.2210 nh        1 SC9     -0.842900
     11 C11        -2.0570    0.7950    0.0770 c3        1 SC9      0.257100
     12 C12        -3.5480    0.9010    0.1570 ca        1 SC9     -0.226600
     13 C13        -4.2700    0.3490    1.2220 ca        1 SC9     -0.078000
     14 C14        -5.6550    0.5160    1.2580 ca        1 SC9     -0.247300
     15 C15        -6.2710    1.2400    0.2210 ca        1 SC9      0.398200
     16 N16        -5.5940    1.7810   -0.8110 nb        1 SC9     -0.664000
     17 C17        -4.2600    1.6080   -0.8350 ca        1 SC9      0.407200
     18 C18         3.0530    0.7650   -0.0500 ca        1 SC9     -0.172500
     19 C19         3.0020    1.8480   -0.9560 ca        1 SC9      0.165900
     20 C20         4.0050    2.8400   -0.9230 ca        1 SC9     -0.174000
     21 C21         5.0390    2.7500    0.0000 ca        1 SC9     -0.096000
     22 C22         5.0930    1.6800    0.8960 ca        1 SC9     -0.149000
     23 C23         4.1070    0.6990    0.8700 ca        1 SC9     -0.094000
     24 F24         2.0170    1.9490   -1.8750 f         1 SC9     -0.125900
     25 H01         2.5270   -4.5350   -0.2310 h4        1 SC9      0.187000
     26 H05        -0.0970   -5.5010   -0.1720 h4        1 SC9      0.184000
     27 H06         3.5110   -1.9140   -0.1640 h4        1 SC9      0.174000
     28 HN10       -2.2290   -1.2890   -0.0170 hn        1 SC9      0.449800
     29 H111       -1.6020    1.4110    0.9090 h1        1 SC9      0.066700
     30 H112       -1.7000    1.2370   -0.9010 h1        1 SC9      0.066700
     31 H13        -3.7510   -0.2060    2.0180 ha        1 SC9      0.150000
     32 H14        -6.2540    0.0960    2.0760 ha        1 SC9      0.146000
     33 H15        -7.3650    1.3960    0.2110 h4        1 SC9      0.024100
     34 H17        -3.7330    2.0620   -1.6940 h4        1 SC9      0.026100
     35 H20         3.9520    3.6770   -1.6340 ha        1 SC9      0.151000
     36 H21         5.8170    3.5280    0.0240 ha        1 SC9      0.139000
     37 H22         5.9130    1.6150    1.6260 ha        1 SC9      0.139000
     38 H23         4.1440   -0.1390    1.5840 ha        1 SC9      0.140000
@<TRIPOS>BOND
     1    1    2 1   
     2    1    5 2   
     3    1   25 1   
     4    2    3 1   
     5    2    6 1   
     6    3    4 2   
     7    3    9 1   
     8    4    5 1   
     9    5   26 1   
    10    6    7 2   
    11    6   27 1   
    12    7    8 1   
    13    7   18 1   
    14    8    9 2   
    15    9   10 1   
    16   10   11 1   
    17   10   28 1   
    18   11   12 1   
    19   11   29 1   
    20   11   30 1   
    21   12   13 ar  
    22   12   17 ar  
    23   13   14 ar  
    24   13   31 1   
    25   14   15 ar  
    26   14   32 1   
    27   15   16 ar  
    28   15   33 1   
    29   16   17 ar  
    30   17   34 1   
    31   18   19 ar  
    32   18   23 ar  
    33   19   20 ar  
    34   19   24 1   
    35   20   21 ar  
    36   20   35 1   
    37   21   22 ar  
    38   21   36 1   
    39   22   23 ar  
    40   22   37 1   
    41   23   38 1   
@<TRIPOS>SUBSTRUCTURE
     1 SC9         1 TEMP              0 ****  ****    0 ROOT
