@<TRIPOS>MOLECULE
SC9
   38    41     1     0     0
SMALL
bcc


@<TRIPOS>ATOM
      1 C01        -0.0040    0.1370   -0.0260 cc        1 SC9     -0.212100
      2 N02         1.3810    0.0850   -0.0360 na        1 SC9      0.055700
      3 C03         1.8000    0.0180    1.3260 cc        1 SC9     -0.197600
      4 N04         0.7210    0.0260    2.1650 nd        1 SC9     -0.268600
      5 C05        -0.3840    0.0990    1.3420 cd        1 SC9     -0.000400
      6 C06         2.3210    0.1040   -1.0470 cc        1 SC9     -0.240600
      7 C07         3.6690    0.0610   -0.7040 cd        1 SC9      0.473800
      8 N08         4.1420   -0.0070    0.5920 nd        1 SC9     -0.734000
      9 C09         3.2470   -0.0440    1.5960 cc        1 SC9      0.722200
     10 N10         3.6290   -0.2120    2.9190 nh        1 SC9     -0.842900
     11 C11         5.0140   -0.0520    3.3030 c3        1 SC9      0.257100
     12 C12         5.2160   -0.1350    4.7830 ca        1 SC9     -0.226600
     13 C13         4.7250   -1.2090    5.5350 ca        1 SC9     -0.078000
     14 C14         4.9800   -1.2460    6.9060 ca        1 SC9     -0.247300
     15 C15         5.7260   -0.2010    7.4800 ca        1 SC9      0.398200
     16 N16         6.2100    0.8400    6.7730 nb        1 SC9     -0.664000
     17 C17         5.9520    0.8660    5.4530 ca        1 SC9      0.407200
     18 C18         4.6590    0.0810   -1.7950 ca        1 SC9     -0.172500
     19 C19         5.7310    1.0000   -1.8110 ca        1 SC9      0.165900
     20 C20         6.6580    0.9820   -2.8750 ca        1 SC9     -0.174000
     21 C21         6.5140    0.0580   -3.9030 ca        1 SC9     -0.096000
     22 C22         5.4540   -0.8500   -3.8920 ca        1 SC9     -0.149000
     23 C23         4.5370   -0.8380   -2.8450 ca        1 SC9     -0.094000
     24 F24         5.8830    1.9200   -0.8320 f         1 SC9     -0.125900
     25 H01        -0.6000    0.1960   -0.9340 h4        1 SC9      0.187000
     26 H05        -1.3960    0.1220    1.7460 h4        1 SC9      0.184000
     27 H06         1.9550    0.1630   -2.0820 h4        1 SC9      0.174000
     28 HN10        2.9440    0.0160    3.6070 hn        1 SC9      0.449800
     29 H111        5.4200    0.9320    2.9210 h1        1 SC9      0.066700
     30 H112        5.6100   -0.8750    2.8070 h1        1 SC9      0.066700
     31 H13         4.1490   -2.0110    5.0500 ha        1 SC9      0.150000
     32 H14         4.6100   -2.0710    7.5280 ha        1 SC9      0.146000
     33 H15         5.9520   -0.1920    8.5610 h4        1 SC9      0.024100
     34 H17         6.3600    1.7320    4.9010 h4        1 SC9      0.026100
     35 H20         7.4880    1.7020   -2.8740 ha        1 SC9      0.151000
     36 H21         7.2410    0.0450   -4.7290 ha        1 SC9      0.139000
     37 H22         5.3460   -1.5800   -4.7070 ha        1 SC9      0.139000
     38 H23         3.7080   -1.5620   -2.8300 ha        1 SC9      0.140000
@<TRIPOS>BOND
     1    1    2 1   
     2    1    5 2   
     3    1   25 1   
     4    2    3 1   
     5    2    6 1   
     6    3    4 2   
     7    3    9 1   
     8    4    5 1   
     9    5   26 1   
    10    6    7 2   
    11    6   27 1   
    12    7    8 1   
    13    7   18 1   
    14    8    9 2   
    15    9   10 1   
    16   10   11 1   
    17   10   28 1   
    18   11   12 1   
    19   11   29 1   
    20   11   30 1   
    21   12   13 ar  
    22   12   17 ar  
    23   13   14 ar  
    24   13   31 1   
    25   14   15 ar  
    26   14   32 1   
    27   15   16 ar  
    28   15   33 1   
    29   16   17 ar  
    30   17   34 1   
    31   18   19 ar  
    32   18   23 ar  
    33   19   20 ar  
    34   19   24 1   
    35   20   21 ar  
    36   20   35 1   
    37   21   22 ar  
    38   21   36 1   
    39   22   23 ar  
    40   22   37 1   
    41   23   38 1   
@<TRIPOS>SUBSTRUCTURE
     1 SC9         1 TEMP              0 ****  ****    0 ROOT
