@<TRIPOS>MOLECULE
SCB
   51    54     1     0     0
SMALL
bcc


@<TRIPOS>ATOM
      1 C1         -0.2940    0.3710    0.2570 c3        1 SCB      0.116700
      2 O1          1.0750    0.0250    0.1600 os        1 SCB     -0.409600
      3 C2          1.7470    0.0780    1.4140 c3        1 SCB      0.101400
      4 C3          3.2520   -0.0490    1.1320 c3        1 SCB      0.112000
      5 N1          3.8910    1.1600    0.6870 n         1 SCB     -0.395300
      6 C4          3.9750    2.2900    1.5210 c         1 SCB      0.706700
      7 O2          3.6140    2.2660    2.7100 o         1 SCB     -0.625500
      8 C5          4.5520    3.4670    0.8120 cc        1 SCB     -0.146600
      9 C6          4.7270    4.6370    1.4580 cf        1 SCB     -0.107800
     10 C7          5.2390    5.8460    0.9020 cd        1 SCB      0.239500
     11 C8          5.4940    7.0950    1.4610 cc        1 SCB     -0.207300
     12 C9          5.9910    7.9340    0.4080 cc        1 SCB     -0.300300
     13 C10         6.0160    7.1610   -0.7520 cd        1 SCB      0.385200
     14 O3          5.5600    5.8720   -0.4660 os        1 SCB     -0.340800
     15 C11         6.3940    7.4230   -2.1170 ca        1 SCB     -0.182500
     16 C12         6.8300    8.7070   -2.4880 ca        1 SCB     -0.121000
     17 C13         7.1770    8.9660   -3.8070 ca        1 SCB     -0.155000
     18 C14         7.1010    7.9460   -4.7690 ca        1 SCB      0.057400
     19 CL1         7.5200    8.3310   -6.3720 cl        1 SCB     -0.098400
     20 C15         6.6820    6.6590   -4.4170 ca        1 SCB     -0.099600
     21 C16         6.3240    6.4140   -3.0870 ca        1 SCB     -0.065000
     22 C17         6.5890    5.4920   -5.3980 c         1 SCB      0.914200
     23 O4          5.4340    5.0390   -5.6400 o         1 SCB     -0.812800
     24 O5          7.6570    5.0160   -5.8620 o         1 SCB     -0.812800
     25 S1          4.8810    3.0700   -0.8020 ss        1 SCB     -0.068800
     26 C18         4.3570    1.3830   -0.6390 cc        1 SCB      0.489800
     27 N2          4.4090    0.4430   -1.5320 nf        1 SCB     -0.596100
     28 C19         4.9220    0.6280   -2.8280 ca        1 SCB      0.126400
     29 C20         5.3540   -0.5340   -3.5130 ca        1 SCB     -0.135500
     30 C21         5.8780   -0.4340   -4.7960 ca        1 SCB     -0.121000
     31 C22         5.9870    0.8040   -5.4290 ca        1 SCB     -0.127000
     32 C23         5.5500    1.9570   -4.7780 ca        1 SCB     -0.121000
     33 C24         5.0150    1.8710   -3.4940 ca        1 SCB     -0.135500
     34 H11        -0.8340   -0.3390    0.9320 h1        1 SCB      0.029700
     35 H12A       -0.6790    0.2880   -0.7900 h1        1 SCB      0.029700
     36 H13A       -0.4150    1.4170    0.6360 h1        1 SCB      0.029700
     37 H21A        1.5070    1.0310    1.9550 h1        1 SCB      0.037700
     38 H22A        1.4190   -0.7950    2.0400 h1        1 SCB      0.037700
     39 H31         3.7400   -0.3500    2.1050 h1        1 SCB      0.077200
     40 H32         3.4070   -0.8630    0.3700 h1        1 SCB      0.077200
     41 H6          4.4510    4.7040    2.5300 ha        1 SCB      0.156000
     42 H8          5.3480    7.3870    2.4970 ha        1 SCB      0.152000
     43 H9          6.2880    8.9730    0.5040 ha        1 SCB      0.157000
     44 H12         6.8910    9.5050   -1.7350 ha        1 SCB      0.118000
     45 H13         7.5120    9.9720   -4.0970 ha        1 SCB      0.127000
     46 H16         5.9720    5.4060   -2.8130 ha        1 SCB      0.157000
     47 H20         5.2800   -1.5190   -3.0280 ha        1 SCB      0.138500
     48 H21         6.2150   -1.3450   -5.3130 ha        1 SCB      0.169500
     49 H22         6.4190    0.8780   -6.4370 ha        1 SCB      0.137000
     50 H23         5.6350    2.9530   -5.2710 ha        1 SCB      0.169500
     51 H24         4.6410    2.8040   -3.0350 ha        1 SCB      0.138500
@<TRIPOS>BOND
     1    1    2 1   
     2    1   34 1   
     3    1   35 1   
     4    1   36 1   
     5    2    3 1   
     6    3    4 1   
     7    3   37 1   
     8    3   38 1   
     9    4    5 1   
    10    4   39 1   
    11    4   40 1   
    12    5    6 1   
    13    5   26 1   
    14    6    7 2   
    15    6    8 1   
    16    8    9 2   
    17    8   25 1   
    18    9   10 1   
    19    9   41 1   
    20   10   11 2   
    21   10   14 1   
    22   11   12 1   
    23   11   42 1   
    24   12   13 2   
    25   12   43 1   
    26   13   14 1   
    27   13   15 1   
    28   15   16 ar  
    29   15   21 ar  
    30   16   17 ar  
    31   16   44 1   
    32   17   18 ar  
    33   17   45 1   
    34   18   19 1   
    35   18   20 ar  
    36   20   21 ar  
    37   20   22 1   
    38   21   46 1   
    39   22   23 1   
    40   22   24 1   
    41   25   26 1   
    42   26   27 2   
    43   27   28 1   
    44   28   29 ar  
    45   28   33 ar  
    46   29   30 ar  
    47   29   47 1   
    48   30   31 ar  
    49   30   48 1   
    50   31   32 ar  
    51   31   49 1   
    52   32   33 ar  
    53   32   50 1   
    54   33   51 1   
@<TRIPOS>SUBSTRUCTURE
     1 SCB         1 TEMP              0 ****  ****    0 ROOT
