@<TRIPOS>MOLECULE
SCB
   51    54     1     0     0
SMALL
bcc


@<TRIPOS>ATOM
      1 C1         -0.2550    0.3180    0.2790 c3        1 SCB      0.116700
      2 O1          1.1180   -0.0110    0.1820 os        1 SCB     -0.409600
      3 C2          1.7910    0.0580    1.4350 c3        1 SCB      0.101400
      4 C3          3.2970   -0.0520    1.1530 c3        1 SCB      0.112000
      5 N1          3.9210    1.1630    0.7010 n         1 SCB     -0.395300
      6 C4          3.9910    2.2990    1.5280 c         1 SCB      0.706700
      7 O2          3.6310    2.2770    2.7170 o         1 SCB     -0.625500
      8 C5          4.5520    3.4780    0.8110 cc        1 SCB     -0.146600
      9 C6          4.7130    4.6550    1.4510 cf        1 SCB     -0.107800
     10 C7          5.2090    5.8670    0.8870 cd        1 SCB      0.239500
     11 C8          5.4490    7.1230    1.4390 cc        1 SCB     -0.207300
     12 C9          5.9350    7.9610    0.3810 cc        1 SCB     -0.300300
     13 C10         5.9700    7.1810   -0.7740 cd        1 SCB      0.385200
     14 O3          5.5300    5.8890   -0.4800 os        1 SCB     -0.340800
     15 C11         6.3440    7.4410   -2.1410 ca        1 SCB     -0.182500
     16 C12         6.7630    8.7280   -2.5200 ca        1 SCB     -0.121000
     17 C13         7.1070    8.9830   -3.8410 ca        1 SCB     -0.155000
     18 C14         7.0440    7.9570   -4.7960 ca        1 SCB      0.057400
     19 Cl1         7.4590    8.3380   -6.4020 cl        1 SCB     -0.098400
     20 C15         6.6430    6.6670   -4.4370 ca        1 SCB     -0.099600
     21 C16         6.2870    6.4250   -3.1050 ca        1 SCB     -0.065000
     22 C17         6.5640    5.4920   -5.4100 c         1 SCB      0.914200
     23 O4          5.4160    5.0230   -5.6500 o         1 SCB     -0.812800
     24 O5          7.6380    5.0280   -5.8720 o         1 SCB     -0.812800
     25 S1          4.8860    3.0760   -0.8000 ss        1 SCB     -0.068800
     26 C18         4.3830    1.3830   -0.6270 cc        1 SCB      0.489800
     27 N2          4.4470    0.4400   -1.5140 nf        1 SCB     -0.596100
     28 C19         4.9570    0.6230   -2.8120 ca        1 SCB      0.126400
     29 C20         5.4030   -0.5380   -3.4900 ca        1 SCB     -0.135500
     30 C21         5.9260   -0.4390   -4.7740 ca        1 SCB     -0.121000
     31 C22         6.0190    0.7970   -5.4130 ca        1 SCB     -0.127000
     32 C23         5.5690    1.9480   -4.7690 ca        1 SCB     -0.121000
     33 C24         5.0350    1.8630   -3.4840 ca        1 SCB     -0.135500
     34 H11        -0.7850   -0.3950    0.9590 h1        1 SCB      0.029700
     35 H12A       -0.6390    0.2230   -0.7670 h1        1 SCB      0.029700
     36 H13A       -0.3880    1.3640    0.6510 h1        1 SCB      0.029700
     37 H21A        1.5390    1.0110    1.9710 h1        1 SCB      0.037700
     38 H22A        1.4750   -0.8150    2.0680 h1        1 SCB      0.037700
     39 H31         3.7900   -0.3410    2.1270 h1        1 SCB      0.077200
     40 H32         3.4620   -0.8680    0.3960 h1        1 SCB      0.077200
     41 H6          4.4360    4.7240    2.5220 ha        1 SCB      0.156000
     42 H8          5.2990    7.4190    2.4730 ha        1 SCB      0.152000
     43 H9          6.2190    9.0050    0.4700 ha        1 SCB      0.157000
     44 H12         6.8150    9.5310   -1.7710 ha        1 SCB      0.118000
     45 H13         7.4290    9.9920   -4.1360 ha        1 SCB      0.127000
     46 H16         5.9480    5.4140   -2.8250 ha        1 SCB      0.157000
     47 H20         5.3410   -1.5200   -2.9990 ha        1 SCB      0.138500
     48 H21         6.2740   -1.3490   -5.2850 ha        1 SCB      0.169500
     49 H22         6.4500    0.8710   -6.4230 ha        1 SCB      0.137000
     50 H23         5.6410    2.9420   -5.2690 ha        1 SCB      0.169500
     51 H24         4.6490    2.7940   -3.0310 ha        1 SCB      0.138500
@<TRIPOS>BOND
     1    1    2 1   
     2    1   34 1   
     3    1   35 1   
     4    1   36 1   
     5    2    3 1   
     6    3    4 1   
     7    3   37 1   
     8    3   38 1   
     9    4    5 1   
    10    4   39 1   
    11    4   40 1   
    12    5    6 1   
    13    5   26 1   
    14    6    7 2   
    15    6    8 1   
    16    8    9 2   
    17    8   25 1   
    18    9   10 1   
    19    9   41 1   
    20   10   11 2   
    21   10   14 1   
    22   11   12 1   
    23   11   42 1   
    24   12   13 2   
    25   12   43 1   
    26   13   14 1   
    27   13   15 1   
    28   15   16 ar  
    29   15   21 ar  
    30   16   17 ar  
    31   16   44 1   
    32   17   18 ar  
    33   17   45 1   
    34   18   19 1   
    35   18   20 ar  
    36   20   21 ar  
    37   20   22 1   
    38   21   46 1   
    39   22   23 1   
    40   22   24 1   
    41   25   26 1   
    42   26   27 2   
    43   27   28 1   
    44   28   29 ar  
    45   28   33 ar  
    46   29   30 ar  
    47   29   47 1   
    48   30   31 ar  
    49   30   48 1   
    50   31   32 ar  
    51   31   49 1   
    52   32   33 ar  
    53   32   50 1   
    54   33   51 1   
@<TRIPOS>SUBSTRUCTURE
     1 SCB         1 TEMP              0 ****  ****    0 ROOT
