@<TRIPOS>MOLECULE
SCB
   51    54     1     0     0
SMALL
bcc


@<TRIPOS>ATOM
      1 C1         -6.3340   -0.4260   -2.9270 c3        1 SCB      0.116700
      2 O1         -5.8710   -0.7480   -1.6290 os        1 SCB     -0.409600
      3 C2         -6.1980    0.2480   -0.6650 c3        1 SCB      0.101400
      4 C3         -5.4200   -0.0820    0.6170 c3        1 SCB      0.112000
      5 N1         -4.0370    0.3160    0.6090 n         1 SCB     -0.395300
      6 C4         -3.6680    1.6720    0.5370 c         1 SCB      0.706700
      7 O2         -4.5030    2.5900    0.5980 o         1 SCB     -0.625500
      8 C5         -2.1950    1.8440    0.4020 cc        1 SCB     -0.146600
      9 C6         -1.6530    3.0780    0.3380 cf        1 SCB     -0.107800
     10 C7         -0.2710    3.3910    0.1820 cd        1 SCB      0.239500
     11 C8          0.4110    4.6030    0.1340 cc        1 SCB     -0.207300
     12 C9          1.8000    4.2980   -0.0570 cc        1 SCB     -0.300300
     13 C10         1.9070    2.9090   -0.1190 cd        1 SCB      0.385200
     14 O3          0.6430    2.3340    0.0300 os        1 SCB     -0.340800
     15 C11         3.0110    2.0020   -0.3060 ca        1 SCB     -0.182500
     16 C12         4.3080    2.5080   -0.4980 ca        1 SCB     -0.121000
     17 C13         5.3690    1.6350   -0.6960 ca        1 SCB     -0.155000
     18 C14         5.1500    0.2490   -0.6980 ca        1 SCB      0.057400
     19 CL1         6.4880   -0.7680   -0.9660 cl        1 SCB     -0.098400
     20 C15         3.8700   -0.2750   -0.4950 ca        1 SCB     -0.099600
     21 C16         2.8070    0.6160   -0.3080 ca        1 SCB     -0.065000
     22 C17         3.5510   -1.7680   -0.4650 c         1 SCB      0.914200
     23 O4          2.8220   -2.2170   -1.3940 o         1 SCB     -0.812800
     24 O5          3.9800   -2.4500    0.5010 o         1 SCB     -0.812800
     25 S1         -1.4360    0.3310    0.3310 ss        1 SCB     -0.068800
     26 C18        -2.9410   -0.5880    0.5250 cc        1 SCB      0.489800
     27 N2         -3.0800   -1.8730    0.6300 nf        1 SCB     -0.596100
     28 C19        -2.0040   -2.7780    0.6120 ca        1 SCB      0.125400
     29 C20        -2.2320   -4.0490    1.1940 ca        1 SCB     -0.135500
     30 C21        -1.2160   -4.9970    1.2210 ca        1 SCB     -0.121000
     31 C22         0.0370   -4.7160    0.6760 ca        1 SCB     -0.127000
     32 C23         0.2740   -3.4780    0.0810 ca        1 SCB     -0.121000
     33 C24        -0.7380   -2.5200    0.0410 ca        1 SCB     -0.135500
     34 H11        -6.0040   -1.2870   -3.5620 h1        1 SCB      0.029700
     35 H12A       -7.4480   -0.3340   -2.9380 h1        1 SCB      0.029700
     36 H13A       -5.8720    0.5260   -3.2900 h1        1 SCB      0.029700
     37 H21A       -5.9460    1.2720   -1.0490 h1        1 SCB      0.037700
     38 H22A       -7.2990    0.1970   -0.4460 h1        1 SCB      0.037700
     39 H31        -5.9250    0.4770    1.4580 h1        1 SCB      0.077200
     40 H32        -5.4950   -1.1890    0.8080 h1        1 SCB      0.077200
     41 H6         -2.3210    3.9600    0.4060 ha        1 SCB      0.156000
     42 H8         -0.0190    5.5960    0.2240 ha        1 SCB      0.152000
     43 H9          2.6080    5.0170   -0.1380 ha        1 SCB      0.157000
     44 H12         4.4800    3.5940   -0.4950 ha        1 SCB      0.118000
     45 H13         6.3820    2.0330   -0.8520 ha        1 SCB      0.127000
     46 H16         1.7920    0.2050   -0.1720 ha        1 SCB      0.157000
     47 H20        -3.2120   -4.2860    1.6330 ha        1 SCB      0.138500
     48 H21        -1.4060   -5.9770    1.6830 ha        1 SCB      0.169500
     49 H22         0.8420   -5.4640    0.7150 ha        1 SCB      0.137000
     50 H23         1.2720   -3.2400   -0.3550 ha        1 SCB      0.169500
     51 H24        -0.5190   -1.5700   -0.4800 ha        1 SCB      0.138500
@<TRIPOS>BOND
     1    1    2 1   
     2    1   34 1   
     3    1   35 1   
     4    1   36 1   
     5    2    3 1   
     6    3    4 1   
     7    3   37 1   
     8    3   38 1   
     9    4    5 1   
    10    4   39 1   
    11    4   40 1   
    12    5    6 1   
    13    5   26 1   
    14    6    7 2   
    15    6    8 1   
    16    8    9 2   
    17    8   25 1   
    18    9   10 1   
    19    9   41 1   
    20   10   11 2   
    21   10   14 1   
    22   11   12 1   
    23   11   42 1   
    24   12   13 2   
    25   12   43 1   
    26   13   14 1   
    27   13   15 1   
    28   15   16 ar  
    29   15   21 ar  
    30   16   17 ar  
    31   16   44 1   
    32   17   18 ar  
    33   17   45 1   
    34   18   19 1   
    35   18   20 ar  
    36   20   21 ar  
    37   20   22 1   
    38   21   46 1   
    39   22   23 1   
    40   22   24 1   
    41   25   26 1   
    42   26   27 2   
    43   27   28 1   
    44   28   29 ar  
    45   28   33 ar  
    46   29   30 ar  
    47   29   47 1   
    48   30   31 ar  
    49   30   48 1   
    50   31   32 ar  
    51   31   49 1   
    52   32   33 ar  
    53   32   50 1   
    54   33   51 1   
@<TRIPOS>SUBSTRUCTURE
     1 SCB         1 TEMP              0 ****  ****    0 ROOT
