@<TRIPOS>MOLECULE
SCC
    9     8     1     0     0
SMALL
bcc


@<TRIPOS>ATOM
      1 S           2.7220    0.4060   -0.1540 sh        1 SCC     -0.383900
      2 C1          1.8020   -0.8960    0.6220 c3        1 SCC      0.012700
      3 C2          0.4480   -0.3470    0.9620 c3        1 SCC     -0.088100
      4 H11         1.7110   -1.7680   -0.0700 h1        1 SCC      0.057700
      5 H12         2.3290   -1.2430    1.5430 h1        1 SCC      0.057700
      6 H21         0.5350    0.5210    1.6610 hc        1 SCC      0.048033
      7 H22        -0.0850   -0.0060    0.0410 hc        1 SCC      0.048033
      8 H23        -0.1710   -1.1360    1.4560 hc        1 SCC      0.048033
      9 HS1         3.8520   -0.2380   -0.3780 hs        1 SCC      0.198800
@<TRIPOS>BOND
     1    1    2 1   
     2    1    9 1   
     3    2    3 1   
     4    2    4 1   
     5    2    5 1   
     6    3    6 1   
     7    3    7 1   
     8    3    8 1   
@<TRIPOS>SUBSTRUCTURE
     1 SCC         1 TEMP              0 ****  ****    0 ROOT
