@<TRIPOS>MOLECULE
SCE
   31    23     1     0     0
SMALL
bcc


@<TRIPOS>ATOM
      1 C01        -3.0290   -0.2830   -2.4220 c1        1 SCE     -0.130000
      2 N02        -1.6760   -0.2060   -2.4190 n2        1 SCE     -0.016000
      3 C03        -1.2650   -0.1420   -1.1390 c1        1 SCE      0.046000
      4 N04        -2.3760   -0.1800   -0.3350 n1        1 SCE     -0.129000
      5 C05        -3.4550   -0.2670   -1.1240 c1        1 SCE     -0.140000
      6 C06        -0.7630   -0.1870   -3.4290 c1        1 SCE     -0.166000
      7 C07         0.5970   -0.1030   -3.1380 c1        1 SCE     -0.065000
      8 N08         1.0120   -0.0380   -1.8500 n1        1 SCE     -0.181000
      9 C09         0.1080   -0.0570   -0.8460 c1        1 SCE      0.046000
     10 N10         0.6590   -0.1360    0.4970 n2        1 SCE     -0.293000
     11 C11         1.8490    0.6180    0.8380 c3        1 SCE      0.008000
     12 C12         2.1980    0.3860    2.3220 c1        1 SCE     -0.062000
     13 C13         3.1660   -0.5190    2.6640 c1        1 SCE     -0.121500
     14 C14         3.5100   -0.6990    4.0020 c1        1 SCE     -0.121500
     15 N15         2.8820    0.0270    4.9720 n1        1 SCE     -0.181000
     16 C16         1.9120    0.9340    4.6300 c1        1 SCE     -0.065000
     17 C17         1.5680    1.1150    3.2960 c1        1 SCE     -0.170000
     18 C18        -4.1700   -0.4070   -3.3790 c2        1 SCE     -0.145000
     19 H05        -4.3810   -0.2630   -0.8290 DU        1 SCE      0.183000
     20 H06        -1.0620   -0.2330   -4.3600 ha        1 SCE      0.171000
     21 H07         1.2550   -0.0890   -3.8670 ha        1 SCE      0.167000
     22 HN10        0.2800   -0.6890    1.1120 hn        1 SCE      0.249000
     23 H111        2.5950    0.3210    0.2760 h1        1 SCE      0.106000
     24 H112        1.6860    1.5700    0.6870 h1        1 SCE      0.106000
     25 H13         3.6110   -1.0330    1.9770 ha        1 SCE      0.154000
     26 H14         4.2010   -1.3460    4.2460 ha        1 SCE      0.154000
     27 H16         1.4620    1.4550    5.3260 ha        1 SCE      0.167000
     28 H17         0.8860    1.7530    3.0560 ha        1 SCE      0.155000
     29 H181       -4.4030   -1.3570   -3.4900 ha        1 SCE      0.091333
     30 H182       -3.9100   -0.0280   -4.2490 ha        1 SCE      0.091333
     31 H183       -4.9480    0.0830   -3.0270 ha        1 SCE      0.091333
@<TRIPOS>BOND
     1    1    2 1   
     2    1    5 1   
     3    2    6 1   
     4    3    9 1   
     5    4    5 1   
     6    6   20 1   
     7    7    8 1   
     8    7   21 1   
     9   10   11 1   
    10   10   22 1   
    11   11   12 1   
    12   11   23 1   
    13   11   24 1   
    14   12   17 1   
    15   13   14 1   
    16   13   25 1   
    17   14   26 1   
    18   15   16 1   
    19   16   27 1   
    20   17   28 1   
    21   18   29 1   
    22   18   30 1   
    23   18   31 1   
@<TRIPOS>SUBSTRUCTURE
     1 SCE         1 TEMP              0 ****  ****    0 ROOT
