@<TRIPOS>MOLECULE
SCE
   31    33     1     0     0
SMALL
bcc


@<TRIPOS>ATOM
      1 C01        -0.0330   -0.2370   -0.0730 cc        1 SCE     -0.161300
      2 N02         1.3490   -0.0650   -0.0820 na        1 SCE      0.059700
      3 C03         1.7800   -0.1110    1.2770 cc        1 SCE     -0.200600
      4 N04         0.7180   -0.3030    2.1170 nd        1 SCE     -0.269600
      5 C05        -0.3870   -0.3810    1.3010 cd        1 SCE      0.000600
      6 C06         2.2740    0.1370   -1.0900 cc        1 SCE     -0.255600
      7 C07         3.6020    0.2910   -0.7340 cd        1 SCE      0.406200
      8 N08         4.0920    0.2610    0.5440 nd        1 SCE     -0.754000
      9 C09         3.2190    0.0470    1.5510 cc        1 SCE      0.724200
     10 N10         3.6240   -0.0920    2.8670 nh        1 SCE     -0.848900
     11 C11         4.9710    0.2490    3.2610 c3        1 SCE      0.252100
     12 C12         5.1960    0.1420    4.7400 ca        1 SCE     -0.069300
     13 C13         4.7720   -0.9770    5.4670 ca        1 SCE     -0.236300
     14 C14         5.0520   -1.0270    6.8450 ca        1 SCE      0.394200
     15 N15         5.7120   -0.0580    7.5080 nb        1 SCE     -0.660000
     16 C16         6.1150    1.0110    6.7930 ca        1 SCE      0.394200
     17 C17         5.8790    1.1600    5.4150 ca        1 SCE     -0.236300
     18 C18        -0.8970   -0.2580   -1.2590 c3        1 SCE     -0.022900
     19 H05        -1.3890   -0.5340    1.7030 h4        1 SCE      0.183000
     20 H06         1.8980    0.1630   -2.1220 h4        1 SCE      0.171000
     21 H07         4.3700    0.4590   -1.5090 h4        1 SCE      0.035100
     22 HN10        2.9160   -0.0320    3.5650 hn        1 SCE      0.453800
     23 H111        5.2290    1.2950    2.9160 h1        1 SCE      0.066700
     24 H112        5.6810   -0.4600    2.7380 h1        1 SCE      0.066700
     25 H13         4.2390   -1.8040    4.9790 ha        1 SCE      0.151000
     26 H14         4.7320   -1.8930    7.4520 h4        1 SCE      0.024600
     27 H16         6.6540    1.7920    7.3600 h4        1 SCE      0.024600
     28 H17         6.2290    2.0570    4.8860 ha        1 SCE      0.151000
     29 H181       -1.9580   -0.4070   -0.9390 hc        1 SCE      0.052033
     30 H182       -0.8270    0.7060   -1.8250 hc        1 SCE      0.052033
     31 H183       -0.6110   -1.0910   -1.9500 hc        1 SCE      0.052033
@<TRIPOS>BOND
     1    1    2 1   
     2    1    5 2   
     3    1   18 1   
     4    2    3 1   
     5    2    6 1   
     6    3    4 2   
     7    3    9 1   
     8    4    5 1   
     9    5   19 1   
    10    6    7 2   
    11    6   20 1   
    12    7    8 1   
    13    7   21 1   
    14    8    9 2   
    15    9   10 1   
    16   10   11 1   
    17   10   22 1   
    18   11   12 1   
    19   11   23 1   
    20   11   24 1   
    21   12   13 ar  
    22   12   17 ar  
    23   13   14 ar  
    24   13   25 1   
    25   14   15 ar  
    26   14   26 1   
    27   15   16 ar  
    28   16   17 ar  
    29   16   27 1   
    30   17   28 1   
    31   18   29 1   
    32   18   30 1   
    33   18   31 1   
@<TRIPOS>SUBSTRUCTURE
     1 SCE         1 TEMP              0 ****  ****    0 ROOT
