@<TRIPOS>MOLECULE
SCE
   31    33     1     0     0
SMALL
bcc


@<TRIPOS>ATOM
      1 C01        -0.0290   -0.2330   -0.0780 cc        1 SCE     -0.161300
      2 N02         1.3530   -0.0610   -0.0850 na        1 SCE      0.059700
      3 C03         1.7820   -0.1100    1.2750 cc        1 SCE     -0.200600
      4 N04         0.7190   -0.3030    2.1130 nd        1 SCE     -0.269600
      5 C05        -0.3850   -0.3790    1.2950 cd        1 SCE      0.000600
      6 C06         2.2800    0.1420   -1.0910 cc        1 SCE     -0.255600
      7 C07         3.6070    0.2960   -0.7330 cd        1 SCE      0.406200
      8 N08         4.0950    0.2640    0.5470 nd        1 SCE     -0.754000
      9 C09         3.2200    0.0480    1.5510 cc        1 SCE      0.724200
     10 N10         3.6230   -0.0930    2.8680 nu        1 SCE     -0.848900
     11 C11         4.9690    0.2470    3.2640 c3        1 SCE      0.252100
     12 C12         5.1910    0.1380    4.7440 ca        1 SCE     -0.069300
     13 C13         4.7660   -0.9810    5.4690 ca        1 SCE     -0.236300
     14 C14         5.0430   -1.0330    6.8470 ca        1 SCE      0.394200
     15 N15         5.7030   -0.0650    7.5120 nb        1 SCE     -0.660000
     16 C16         6.1090    1.0040    6.8000 ca        1 SCE      0.394200
     17 C17         5.8760    1.1540    5.4210 ca        1 SCE     -0.236300
     18 C18        -0.8910   -0.2520   -1.2660 c3        1 SCE     -0.022900
     19 H05        -1.3870   -0.5330    1.6950 h4        1 SCE      0.183000
     20 H06         1.9050    0.1710   -2.1240 h4        1 SCE      0.171000
     21 H07         4.3770    0.4650   -1.5060 h4        1 SCE      0.035100
     22 HN10        2.9130   -0.0340    3.5650 hn        1 SCE      0.453800
     23 H111        5.2280    1.2930    2.9210 h1        1 SCE      0.066700
     24 H112        5.6800   -0.4610    2.7420 h1        1 SCE      0.066700
     25 H13         4.2320   -1.8070    4.9790 ha        1 SCE      0.151000
     26 H14         4.7210   -1.8990    7.4530 h4        1 SCE      0.024600
     27 H16         6.6480    1.7830    7.3680 h4        1 SCE      0.024600
     28 H17         6.2270    2.0510    4.8940 ha        1 SCE      0.151000
     29 H181       -0.8200    0.7130   -1.8300 hc        1 SCE      0.052033
     30 H182       -0.6040   -1.0840   -1.9580 hc        1 SCE      0.052033
     31 H183       -1.9520   -0.4020   -0.9480 hc        1 SCE      0.052033
@<TRIPOS>BOND
     1    1    2 1   
     2    1    5 2   
     3    1   18 1   
     4    2    3 1   
     5    2    6 1   
     6    3    4 2   
     7    3    9 1   
     8    4    5 1   
     9    5   19 1   
    10    6    7 2   
    11    6   20 1   
    12    7    8 1   
    13    7   21 1   
    14    8    9 2   
    15    9   10 1   
    16   10   11 1   
    17   10   22 1   
    18   11   12 1   
    19   11   23 1   
    20   11   24 1   
    21   12   13 ar  
    22   12   17 ar  
    23   13   14 ar  
    24   13   25 1   
    25   14   15 ar  
    26   14   26 1   
    27   15   16 ar  
    28   16   17 ar  
    29   16   27 1   
    30   17   28 1   
    31   18   29 1   
    32   18   30 1   
    33   18   31 1   
@<TRIPOS>SUBSTRUCTURE
     1 SCE         1 TEMP              0 ****  ****    0 ROOT
