@<TRIPOS>MOLECULE
SCE
   31    33     1     0     0
SMALL
bcc


@<TRIPOS>ATOM
      1 C01         4.0050    0.9830   -0.1800 cc        1 SCE     -0.161300
      2 N02         3.1870   -0.1360   -0.0460 na        1 SCE      0.059700
      3 C03         1.8390    0.3300   -0.0900 cc        1 SCE     -0.200600
      4 N04         1.8000    1.6890   -0.2450 nd        1 SCE     -0.269600
      5 C05         3.1150    2.0910   -0.3000 cd        1 SCE      0.000600
      6 C06         3.4430   -1.4840    0.1200 cc        1 SCE     -0.255600
      7 C07         2.3650   -2.3420    0.2420 cd        1 SCE      0.406200
      8 N08         1.0460   -1.9720    0.2120 nd        1 SCE     -0.754000
      9 C09         0.7610   -0.6650    0.0320 cc        1 SCE      0.724200
     10 N10        -0.5360   -0.2020   -0.1040 nh        1 SCE     -0.848900
     11 C11        -1.6580   -1.0570    0.2040 c3        1 SCE      0.252100
     12 C12        -2.9790   -0.3520    0.1070 ca        1 SCE     -0.069300
     13 C13        -3.3010    0.4550   -0.9910 ca        1 SCE     -0.236300
     14 C14        -4.5730    1.0530   -1.0340 ca        1 SCE      0.394200
     15 N15        -5.5070    0.8900   -0.0760 nb        1 SCE     -0.660000
     16 C16        -5.1830    0.1090    0.9720 ca        1 SCE      0.394200
     17 C17        -3.9370   -0.5290    1.1120 ca        1 SCE     -0.236300
     18 C18         5.4730    0.9700   -0.1900 c3        1 SCE     -0.022900
     19 H05         3.3900    3.1380   -0.4230 h4        1 SCE      0.183000
     20 H06         4.4960   -1.7990    0.1460 h4        1 SCE      0.171000
     21 H07         2.5270   -3.4260    0.3810 h4        1 SCE      0.035100
     22 HN10       -0.6740    0.7810   -0.0170 hn        1 SCE      0.453800
     23 H111       -1.6570   -1.9180   -0.5290 h1        1 SCE      0.066700
     24 H112       -1.5430   -1.4990    1.2390 h1        1 SCE      0.066700
     25 H13        -2.5850    0.6170   -1.8080 ha        1 SCE      0.151000
     26 H14        -4.8630    1.6980   -1.8830 h4        1 SCE      0.024600
     27 H16        -5.9650   -0.0090    1.7430 h4        1 SCE      0.024600
     28 H17        -3.7290   -1.1510    1.9920 ha        1 SCE      0.151000
     29 H181        5.8630    0.3510   -1.0380 hc        1 SCE      0.052033
     30 H182        5.8490    2.0160   -0.3090 hc        1 SCE      0.052033
     31 H183        5.8770    0.5500    0.7660 hc        1 SCE      0.052033
@<TRIPOS>BOND
     1    1    2 1   
     2    1    5 2   
     3    1   18 1   
     4    2    3 1   
     5    2    6 1   
     6    3    4 2   
     7    3    9 1   
     8    4    5 1   
     9    5   19 1   
    10    6    7 2   
    11    6   20 1   
    12    7    8 1   
    13    7   21 1   
    14    8    9 2   
    15    9   10 1   
    16   10   11 1   
    17   10   22 1   
    18   11   12 1   
    19   11   23 1   
    20   11   24 1   
    21   12   13 ar  
    22   12   17 ar  
    23   13   14 ar  
    24   13   25 1   
    25   14   15 ar  
    26   14   26 1   
    27   15   16 ar  
    28   16   17 ar  
    29   16   27 1   
    30   17   28 1   
    31   18   29 1   
    32   18   30 1   
    33   18   31 1   
@<TRIPOS>SUBSTRUCTURE
     1 SCE         1 TEMP              0 ****  ****    0 ROOT
