@<TRIPOS>MOLECULE
SCE
   32    34     1     0     0
SMALL
bcc


@<TRIPOS>ATOM
      1 C01        -0.0660   -0.0600   -0.0940 cc        1 SCE     -0.106300
      2 N02         1.3310   -0.0000   -0.1020 na        1 SCE      0.034700
      3 C03         1.7380    0.0080    1.2820 cc        1 SCE     -0.186600
      4 N04         0.6610   -0.0430    2.1120 nd        1 SCE     -0.269600
      5 C05        -0.4410   -0.0850    1.2810 cd        1 SCE      0.049600
      6 C06         2.2900    0.0470   -1.0820 cc        1 SCE     -0.097600
      7 C07         3.6320    0.1020   -0.7120 cd        1 SCE      0.338200
      8 N08         4.0790    0.1140    0.5840 nd        1 SCE     -0.595000
      9 C09         3.1610    0.0680    1.5480 cc        1 SCE      0.492200
     10 N10         3.5240    0.0790    2.9770 n4        1 SCE     -0.734700
     11 C11         4.9990    0.0630    3.2620 c3        1 SCE      0.175100
     12 C12         5.2370    0.0360    4.7340 ca        1 SCE     -0.145300
     13 C13         5.1800   -1.1740    5.4380 ca        1 SCE     -0.224300
     14 C14         5.4540   -1.1540    6.8190 ca        1 SCE      0.416700
     15 N15         5.7670   -0.0330    7.4960 nb        1 SCE     -0.615000
     16 C16         5.8210    1.1210    6.8050 ca        1 SCE      0.416700
     17 C17         5.5620    1.2100    5.4220 ca        1 SCE     -0.224300
     18 C18        -0.9210   -0.0880   -1.2880 c3        1 SCE     -0.047900
     19 H05        -1.4590   -0.1300    1.6810 h4        1 SCE      0.215000
     20 H06         1.9520    0.0390   -2.1350 h4        1 SCE      0.208000
     21 H07         4.4320    0.1420   -1.4760 h4        1 SCE      0.079100
     22 HN10        3.0850   -0.7450    3.4160 hn        1 SCE      0.471300
     23 H111        5.4580    0.9810    2.7930 hx        1 SCE      0.123200
     24 H112        5.4410   -0.8520    2.7690 hx        1 SCE      0.123200
     25 H13         4.9510   -2.1220    4.9340 ha        1 SCE      0.153000
     26 H14         5.4260   -2.0870    7.4150 h4        1 SCE      0.051600
     27 H16         6.0890    2.0220    7.3890 h4        1 SCE      0.051600
     28 H17         5.6350    2.1790    4.9090 ha        1 SCE      0.153000
     29 H181       -0.7750    0.8320   -1.9100 hc        1 SCE      0.075700
     30 H182       -0.6980   -0.9850   -1.9220 hc        1 SCE      0.075700
     31 H183       -1.9930   -0.1360   -0.9700 hc        1 SCE      0.075700
     32 H102        3.1030    0.9210    3.3960 hn        1 SCE      0.471300
@<TRIPOS>BOND
     1    1    2 1   
     2    1    5 2   
     3    1   18 1   
     4    2    3 1   
     5    2    6 1   
     6    3    4 2   
     7    3    9 1   
     8    4    5 1   
     9    5   19 1   
    10    6    7 2   
    11    6   20 1   
    12    7    8 1   
    13    7   21 1   
    14    8    9 2   
    15    9   10 1   
    16   10   11 1   
    17   10   22 1   
    18   10   32 1   
    19   11   12 1   
    20   11   23 1   
    21   11   24 1   
    22   12   13 ar  
    23   12   17 ar  
    24   13   14 ar  
    25   13   25 1   
    26   14   15 ar  
    27   14   26 1   
    28   15   16 ar  
    29   16   17 ar  
    30   16   27 1   
    31   17   28 1   
    32   18   29 1   
    33   18   30 1   
    34   18   31 1   
@<TRIPOS>SUBSTRUCTURE
     1 SCE         1 TEMP              0 ****  ****    0 ROOT
