@<TRIPOS>MOLECULE
SCF
   39    42     1     0     0
SMALL
bcc


@<TRIPOS>ATOM
      1 C01        -0.1060   -0.4350   -0.0840 cc        1 SCF     -0.244600
      2 C02         1.3020   -0.3160   -0.1200 cd        1 SCF      0.376500
      3 N03         1.6930   -0.2540    1.2920 na        1 SCF      0.000200
      4 N04         0.6380   -0.3230    2.1150 nd        1 SCF     -0.590100
      5 C05        -0.4570   -0.4340    1.3110 cc        1 SCF      0.417500
      6 N06         2.2190   -0.2590   -1.1370 nd        1 SCF     -0.549000
      7 C07         3.4990   -0.1410   -0.8090 cc        1 SCF      0.509800
      8 C08         3.9690   -0.0760    0.5690 cc        1 SCF     -0.209300
      9 C09         3.0500   -0.1250    1.6000 cd        1 SCF      0.065300
     10 N10         3.4110   -0.0460    3.0290 n4        1 SCF     -0.640400
     11 C11         4.5340   -0.0640   -1.8520 ca        1 SCF     -0.234500
     12 C12         4.8820    0.1250    3.2820 c3        1 SCF      0.173100
     13 C13         5.1460    0.2150    4.7470 ca        1 SCF     -0.150300
     14 C14         5.4030   -0.9410    5.4920 ca        1 SCF     -0.222800
     15 C15         5.6890   -0.7980    6.8640 ca        1 SCF      0.419200
     16 N16         5.7240    0.3920    7.4930 nb        1 SCF     -0.610000
     17 C17         5.4760    1.4950    6.7610 ca        1 SCF      0.419200
     18 C18         5.1800    1.4610    5.3840 ca        1 SCF     -0.222800
     19 C19         5.6160   -0.9550   -1.8180 ca        1 SCF     -0.089000
     20 C20         6.5950   -0.9160   -2.8030 ca        1 SCF     -0.139000
     21 C21         6.5080    0.0160   -3.8420 ca        1 SCF     -0.068000
     22 C22         5.4480    0.9110   -3.8970 ca        1 SCF     -0.161000
     23 C23         4.4480    0.8760   -2.9030 ca        1 SCF      0.181900
     24 F24         3.4290    1.7610   -2.9590 f         1 SCF     -0.117900
     25 H01        -0.7760   -0.5090   -0.9390 ha        1 SCF      0.212000
     26 H05        -1.4630   -0.5090    1.7380 h4        1 SCF      0.083800
     27 H08         5.0520    0.0220    0.7330 ha        1 SCF      0.182000
     28 HN10        2.9060    0.7480    3.4550 hn        1 SCF      0.473800
     29 H121        5.4180   -0.7620    2.8340 hx        1 SCF      0.115200
     30 H122        5.2180    1.0670    2.7570 hx        1 SCF      0.115200
     31 H14         5.4040   -1.9380    5.0300 ha        1 SCF      0.154000
     32 H15         5.9040   -1.6840    7.4940 h4        1 SCF      0.054600
     33 H17         5.5200    2.4580    7.3080 h4        1 SCF      0.054600
     34 H18         5.0010    2.3960    4.8360 ha        1 SCF      0.154000
     35 H19         5.6770   -1.7030   -1.0130 ha        1 SCF      0.133000
     36 H20         7.4360   -1.6270   -2.7720 ha        1 SCF      0.155000
     37 H21         7.2840    0.0390   -4.6250 ha        1 SCF      0.159000
     38 H22         5.3680    1.6480   -4.7120 ha        1 SCF      0.170000
     39 H102        3.0880   -0.9060    3.5010 hn        1 SCF      0.473800
@<TRIPOS>BOND
     1    1    2 2   
     2    1    5 1   
     3    1   25 1   
     4    2    3 1   
     5    2    6 1   
     6    3    4 1   
     7    3    9 1   
     8    4    5 2   
     9    5   26 1   
    10    6    7 2   
    11    7    8 1   
    12    7   11 1   
    13    8    9 2   
    14    8   27 1   
    15    9   10 1   
    16   10   12 1   
    17   10   28 1   
    18   10   39 1   
    19   11   19 ar  
    20   11   23 ar  
    21   12   13 1   
    22   12   29 1   
    23   12   30 1   
    24   13   14 ar  
    25   13   18 ar  
    26   14   15 ar  
    27   14   31 1   
    28   15   16 ar  
    29   15   32 1   
    30   16   17 ar  
    31   17   18 ar  
    32   17   33 1   
    33   18   34 1   
    34   19   20 ar  
    35   19   35 1   
    36   20   21 ar  
    37   20   36 1   
    38   21   22 ar  
    39   21   37 1   
    40   22   23 ar  
    41   22   38 1   
    42   23   24 1   
@<TRIPOS>SUBSTRUCTURE
     1 SCF         1 TEMP              0 ****  ****    0 ROOT
