@<TRIPOS>MOLECULE
SCF
   38    41     1     0     0
SMALL
bcc


@<TRIPOS>ATOM
      1 C01         1.4620    3.7540   -0.4050 cc        1 SCF     -0.316600
      2 C02         1.3870    2.3420   -0.3260 cd        1 SCF      0.391500
      3 N03        -0.0330    2.0400   -0.4280 na        1 SCF      0.004200
      4 N04        -0.7730    3.1530   -0.5650 nd        1 SCF     -0.583100
      5 C05         0.1030    4.1940   -0.5500 cc        1 SCF      0.383500
      6 N06         2.3540    1.3770   -0.1780 nd        1 SCF     -0.643000
      7 C07         1.9330    0.1140   -0.1490 cc        1 SCF      0.528800
      8 C08         0.5530   -0.2730   -0.2640 cc        1 SCF     -0.378300
      9 C09        -0.4490    0.6950   -0.4100 cd        1 SCF      0.280300
     10 N10        -1.7940    0.3680   -0.6030 nh        1 SCF     -0.738600
     11 C11         2.9150   -0.9780   -0.0040 ca        1 SCF     -0.189500
     12 C12        -2.2690   -0.8840   -0.0510 c3        1 SCF      0.238100
     13 C13        -3.7490   -0.9020    0.1880 ca        1 SCF     -0.075300
     14 C14        -4.6490   -0.5400   -0.8210 ca        1 SCF     -0.233800
     15 C15        -6.0270   -0.6130   -0.5470 ca        1 SCF      0.396200
     16 N16        -6.5320   -1.0150    0.6350 nb        1 SCF     -0.655000
     17 C17        -5.6520   -1.3610    1.5950 ca        1 SCF      0.396200
     18 C18        -4.2560   -1.3190    1.4230 ca        1 SCF     -0.233800
     19 C19         2.9070   -2.0290   -0.9300 ca        1 SCF     -0.087000
     20 C20         3.8220   -3.0720   -0.8300 ca        1 SCF     -0.151000
     21 C21         4.7620   -3.0810    0.2020 ca        1 SCF     -0.093000
     22 C22         4.7890   -2.0530    1.1360 ca        1 SCF     -0.174000
     23 C23         3.8660   -0.9910    1.0390 ca        1 SCF      0.166900
     24 F24         3.9010   -0.0090    1.9660 f         1 SCF     -0.123900
     25 H01         2.3580    4.3610   -0.3630 ha        1 SCF      0.182000
     26 H05        -0.2490    5.2240   -0.6420 h4        1 SCF      0.053800
     27 H08         0.3010   -1.3400   -0.2450 ha        1 SCF      0.160000
     28 HN10       -2.4540    1.1190   -0.5790 hn        1 SCF      0.443800
     29 H121       -2.0180   -1.6980   -0.7960 h1        1 SCF      0.060700
     30 H122       -1.7290   -1.1300    0.9120 h1        1 SCF      0.060700
     31 H14        -4.2960   -0.2130   -1.8090 ha        1 SCF      0.150500
     32 H15        -6.7700   -0.3340   -1.3170 h4        1 SCF      0.027600
     33 H17        -6.0910   -1.6870    2.5550 h4        1 SCF      0.027600
     34 H18        -3.5880   -1.6080    2.2450 ha        1 SCF      0.150500
     35 H19         2.1700   -2.0170   -1.7490 ha        1 SCF      0.143000
     36 H20         3.8070   -3.8880   -1.5680 ha        1 SCF      0.140000
     37 H21         5.4870   -3.9060    0.2780 ha        1 SCF      0.140000
     38 H22         5.5250   -2.0500    1.9530 ha        1 SCF      0.152000
@<TRIPOS>BOND
     1    1    2 2   
     2    1    5 1   
     3    1   25 1   
     4    2    3 1   
     5    2    6 1   
     6    3    4 1   
     7    3    9 1   
     8    4    5 2   
     9    5   26 1   
    10    6    7 2   
    11    7    8 1   
    12    7   11 1   
    13    8    9 2   
    14    8   27 1   
    15    9   10 1   
    16   10   12 1   
    17   10   28 1   
    18   11   19 ar  
    19   11   23 ar  
    20   12   13 1   
    21   12   29 1   
    22   12   30 1   
    23   13   14 ar  
    24   13   18 ar  
    25   14   15 ar  
    26   14   31 1   
    27   15   16 ar  
    28   15   32 1   
    29   16   17 ar  
    30   17   18 ar  
    31   17   33 1   
    32   18   34 1   
    33   19   20 ar  
    34   19   35 1   
    35   20   21 ar  
    36   20   36 1   
    37   21   22 ar  
    38   21   37 1   
    39   22   23 ar  
    40   22   38 1   
    41   23   24 1   
@<TRIPOS>SUBSTRUCTURE
     1 SCF         1 TEMP              0 ****  ****    0 ROOT
