@<TRIPOS>MOLECULE
SCF
   38    41     1     0     0
SMALL
bcc


@<TRIPOS>ATOM
      1 C01        -0.0700   -0.2970   -0.0140 cc        1 SCF     -0.317600
      2 C02         1.3400   -0.1730   -0.0670 cd        1 SCF      0.392500
      3 N03         1.7450    0.0300    1.3160 na        1 SCF      0.003200
      4 N04         0.6920    0.0420    2.1510 nd        1 SCF     -0.583100
      5 C05        -0.4080   -0.1570    1.3740 cc        1 SCF      0.383500
      6 N06         2.2300   -0.2260   -1.1120 nd        1 SCF     -0.645000
      7 C07         3.5160   -0.0600   -0.8070 cc        1 SCF      0.529800
      8 C08         4.0000    0.1590    0.5280 cc        1 SCF     -0.382300
      9 C09         3.1100    0.2230    1.6080 cd        1 SCF      0.285300
     10 N10         3.5140    0.5280    2.9080 nh        1 SCF     -0.743600
     11 C11         4.5300   -0.1110   -1.8780 ca        1 SCF     -0.188500
     12 C12         4.8850    0.2520    3.2790 c3        1 SCF      0.243100
     13 C13         5.0910    0.1820    4.7620 ca        1 SCF     -0.075300
     14 C14         5.7740   -0.9020    5.3250 ca        1 SCF     -0.233800
     15 C15         5.9850   -0.9110    6.7160 ca        1 SCF      0.396700
     16 N16         5.5580    0.0640    7.5410 nb        1 SCF     -0.655000
     17 C17         4.8990    1.0980    6.9840 ca        1 SCF      0.396700
     18 C18         4.6420    1.2050    5.6050 ca        1 SCF     -0.233800
     19 C19         5.6280   -0.9690   -1.7370 ca        1 SCF     -0.088000
     20 C20         6.6020   -1.0480   -2.7270 ca        1 SCF     -0.151000
     21 C21         6.4930   -0.2660   -3.8790 ca        1 SCF     -0.093000
     22 C22         5.4160    0.5960   -4.0430 ca        1 SCF     -0.174000
     23 C23         4.4230    0.6790   -3.0430 ca        1 SCF      0.168900
     24 F24         3.3920    1.5340   -3.2180 f         1 SCF     -0.121900
     25 H01        -0.7390   -0.4600   -0.8500 ha        1 SCF      0.182000
     26 H05        -1.4060   -0.1960    1.8160 h4        1 SCF      0.052800
     27 H08         5.0760    0.3090    0.6810 ha        1 SCF      0.160000
     28 HN10        2.8410    0.4210    3.6390 hn        1 SCF      0.446800
     29 H121        5.2420   -0.7090    2.8030 h1        1 SCF      0.059200
     30 H122        5.5250    1.0910    2.8690 h1        1 SCF      0.059200
     31 H14         6.1420   -1.7290    4.7040 ha        1 SCF      0.150500
     32 H15         6.5220   -1.7480    7.1990 h4        1 SCF      0.027600
     33 H17         4.5590    1.8850    7.6820 h4        1 SCF      0.027600
     34 H18         4.1070    2.0780    5.2050 ha        1 SCF      0.150500
     35 H19         5.7100   -1.5900   -0.8310 ha        1 SCF      0.140000
     36 H20         7.4560   -1.7300   -2.6040 ha        1 SCF      0.139000
     37 H21         7.2620   -0.3320   -4.6630 ha        1 SCF      0.140000
     38 H22         5.3200    1.2170   -4.9450 ha        1 SCF      0.152000
@<TRIPOS>BOND
     1    1    2 2   
     2    1    5 1   
     3    1   25 1   
     4    2    3 1   
     5    2    6 1   
     6    3    4 1   
     7    3    9 1   
     8    4    5 2   
     9    5   26 1   
    10    6    7 2   
    11    7    8 1   
    12    7   11 1   
    13    8    9 2   
    14    8   27 1   
    15    9   10 1   
    16   10   12 1   
    17   10   28 1   
    18   11   19 ar  
    19   11   23 ar  
    20   12   13 1   
    21   12   29 1   
    22   12   30 1   
    23   13   14 ar  
    24   13   18 ar  
    25   14   15 ar  
    26   14   31 1   
    27   15   16 ar  
    28   15   32 1   
    29   16   17 ar  
    30   17   18 ar  
    31   17   33 1   
    32   18   34 1   
    33   19   20 ar  
    34   19   35 1   
    35   20   21 ar  
    36   20   36 1   
    37   21   22 ar  
    38   21   37 1   
    39   22   23 ar  
    40   22   38 1   
    41   23   24 1   
@<TRIPOS>SUBSTRUCTURE
     1 SCF         1 TEMP              0 ****  ****    0 ROOT
