@<TRIPOS>MOLECULE
SCF
   38    26     1     0     0
SMALL
bcc


@<TRIPOS>ATOM
      1 C01        -3.7570    0.2480   -1.1940 c1        1 SCF     -0.233000
      2 C02        -2.3810    0.2510   -1.2190 c1        1 SCF     -0.039000
      3 N03        -1.9370    0.1290    0.0580 n1        1 SCF     -0.104000
      4 N04        -3.0530    0.0500    0.8950 n1        1 SCF     -0.119500
      5 C05        -4.1610    0.1230    0.1240 c1        1 SCF     -0.039000
      6 N06        -1.4830    0.2350   -2.2680 n1        1 SCF     -0.119500
      7 C07        -0.1840    0.1010   -2.0310 c1        1 SCF      0.098000
      8 C08         0.2710   -0.0230   -0.7340 c1        1 SCF     -0.329000
      9 C09        -0.6150   -0.0080    0.3030 c1        1 SCF      0.231000
     10 N10         0.0700    0.2250    1.5510 n2        1 SCF     -0.295000
     11 C11         0.3190    0.1600   -3.3080 c1        1 SCF      0.025500
     12 C12        -0.1970   -0.6270    2.6940 c3        1 SCF     -0.004000
     13 C13         0.7350   -0.2540    3.8330 c1        1 SCF     -0.062000
     14 C14         0.3290    0.6520    4.7840 c1        1 SCF     -0.122667
     15 C15         1.1520    0.9380    5.8620 c1        1 SCF     -0.122667
     16 N16         2.3580    0.3250    5.9780 n1        1 SCF     -0.132000
     17 C17         2.7640   -0.5780    5.0310 c1        1 SCF     -0.067000
     18 C18         1.9460   -0.8680    3.9530 c1        1 SCF     -0.185000
     19 C19         0.5770    1.2860   -4.0660 c1        1 SCF     -0.122667
     20 C20         1.1310    1.1590   -5.3340 c1        1 SCF     -0.122667
     21 C21         1.4250   -0.1000   -5.8400 c1        1 SCF     -0.122667
     22 C22         1.1650   -1.2330   -5.0780 c1        1 SCF     -0.122667
     23 C23         0.6120   -1.1040   -3.8130 c1        1 SCF      0.025500
     24 F24         0.5060   -2.1920   -3.0110 f         1 SCF     -0.089000
     25 H01        -4.3510    0.3230   -1.9780 DU        1 SCF      0.182000
     26 H05        -5.0780    0.1280    0.4420 DU        1 SCF      0.182000
     27 H08         1.2280   -0.1220   -0.5580 ha        1 SCF      0.158000
     28 HN10        0.7220    0.8800    1.6050 hn        1 SCF      0.224000
     29 H121       -1.1230   -0.5080    2.9790 h1        1 SCF      0.115500
     30 H122       -0.0490   -1.5690    2.4430 h1        1 SCF      0.115500
     31 H14        -0.5370    1.0920    4.7010 ha        1 SCF      0.148500
     32 H15         0.8570    1.5980    6.5570 ha        1 SCF      0.148500
     33 H17         3.6320   -1.0180    5.1160 ha        1 SCF      0.163000
     34 H18         2.2410   -1.5230    3.2670 ha        1 SCF      0.143000
     35 H19         0.3730    2.1600   -3.7150 ha        1 SCF      0.148500
     36 H20         1.3130    1.9550   -5.8690 ha        1 SCF      0.148500
     37 H21         1.8150   -0.1910   -6.7350 ha        1 SCF      0.148500
     38 H22         1.3660   -2.1000   -5.4250 ha        1 SCF      0.148500
@<TRIPOS>BOND
     1    1    2 1   
     2    1    5 1   
     3    2    6 1   
     4    3    9 1   
     5    4    5 1   
     6    7    8 1   
     7    8   27 1   
     8   10   12 1   
     9   10   28 1   
    10   11   23 1   
    11   12   13 1   
    12   12   29 1   
    13   12   30 1   
    14   13   18 1   
    15   14   15 1   
    16   14   31 1   
    17   15   32 1   
    18   16   17 1   
    19   17   33 1   
    20   18   34 1   
    21   19   20 1   
    22   19   35 1   
    23   20   36 1   
    24   21   22 1   
    25   21   37 1   
    26   22   38 1   
@<TRIPOS>SUBSTRUCTURE
     1 SCF         1 TEMP              0 ****  ****    0 ROOT
