@<TRIPOS>MOLECULE
SCG
   51    52     1     0     0
SMALL
bcc


@<TRIPOS>ATOM
      1 O16         0.7370    0.4050   -0.8540 o         1 SCG     -0.528100
      2 C10         1.3090   -0.4470   -0.1730 c         1 SCG      0.567900
      3 C9          1.9780   -0.1320    1.1290 c3        1 SCG     -0.203400
      4 C1          3.0620   -1.1410    1.4710 c3        1 SCG      0.018500
      5 C6          4.2320   -1.0220    0.4810 c3        1 SCG     -0.050500
      6 C7          4.7090    0.3800    0.3120 c2        1 SCG     -0.184200
      7 C8          4.8750    0.9660   -0.8710 c2        1 SCG     -0.192000
      8 C5          5.4150   -1.8820    0.9460 c3        1 SCG      0.331900
      9 O4          5.8150   -1.6530    2.2990 os        1 SCG     -0.342900
     10 C3          4.8510   -1.2790    3.1870 c2        1 SCG      0.126100
     11 C2          3.5560   -1.0300    2.8740 ce        1 SCG     -0.272400
     12 C12         2.6510   -0.7270    3.9860 c         1 SCG      0.654300
     13 O14         1.3650   -1.1800    3.8310 os        1 SCG     -0.439900
     14 C15         0.4670   -0.9250    4.9120 c3        1 SCG      0.125700
     15 O13         2.9270   -0.1580    5.0480 o         1 SCG     -0.551000
     16 O11         5.0000   -3.2380    0.9350 os        1 SCG     -0.435600
     17 C17         6.0580   -4.1790    0.9440 c3        1 SCG      0.305900
     18 O22         6.6430   -3.9930   -0.3380 os        1 SCG     -0.438600
     19 C21         7.6890   -4.9290   -0.6110 c3        1 SCG      0.149100
     20 C23         8.2320   -4.5730   -1.9960 c3        1 SCG      0.134400
     21 O24         9.1950   -3.5490   -1.8080 oh        1 SCG     -0.598800
     22 C20         7.1170   -6.3570   -0.5990 c3        1 SCG      0.118100
     23 O25         8.1950   -7.2450   -0.8310 oh        1 SCG     -0.594800
     24 C19         6.4710   -6.6430    0.7690 c3        1 SCG      0.109100
     25 O26         5.8780   -7.9260    0.6720 oh        1 SCG     -0.605800
     26 C18         5.4140   -5.5720    1.0750 c3        1 SCG      0.089100
     27 O27         4.9790   -5.8000    2.4030 oh        1 SCG     -0.601800
     28 H10         1.3400   -1.5160   -0.4870 h4        1 SCG     -0.006800
     29 H91         1.1780   -0.1450    1.9210 hc        1 SCG      0.091200
     30 H92         2.4030    0.9070    1.1030 hc        1 SCG      0.091200
     31 H1          2.6320   -2.1820    1.3560 hc        1 SCG      0.072700
     32 H6          3.8880   -1.4380   -0.5090 hc        1 SCG      0.082700
     33 H7          4.9270    0.9070    1.2560 ha        1 SCG      0.135000
     34 H81         4.6640    0.4640   -1.8250 ha        1 SCG      0.119000
     35 H82         5.2310    2.0010   -0.9620 ha        1 SCG      0.119000
     36 H5          6.3500   -1.7130    0.3410 h2        1 SCG      0.119700
     37 H3          5.2820   -1.1990    4.2030 h4        1 SCG      0.188000
     38 H151        0.3720    0.1750    5.0780 h1        1 SCG      0.052700
     39 H152       -0.4960   -1.3730    4.5640 h1        1 SCG      0.052700
     40 H153        0.8380   -1.4210    5.8410 h1        1 SCG      0.052700
     41 H17         6.7980   -3.9690    1.7640 h2        1 SCG      0.073700
     42 H21         8.5020   -4.8270    0.1610 h1        1 SCG      0.079700
     43 H231        7.4020   -4.2110   -2.6590 h1        1 SCG      0.048700
     44 H232        8.7160   -5.4840   -2.4420 h1        1 SCG      0.048700
     45 H24         9.5200   -3.3150   -2.6850 ho        1 SCG      0.405000
     46 H20         6.3440   -6.4750   -1.4090 h1        1 SCG      0.062700
     47 H25         7.8440   -8.1390   -0.7080 ho        1 SCG      0.427000
     48 H19         7.2540   -6.6490    1.5770 h1        1 SCG      0.066700
     49 H26         5.4170   -8.0800    1.5080 ho        1 SCG      0.428000
     50 H18         4.5480   -5.6600    0.3620 h1        1 SCG      0.075700
     51 H27         4.3210   -5.1200    2.5990 ho        1 SCG      0.425000
@<TRIPOS>BOND
     1    1    2 2   
     2    2    3 1   
     3    2   28 1   
     4    3    4 1   
     5    3   29 1   
     6    3   30 1   
     7    4    5 1   
     8    4   11 1   
     9    4   31 1   
    10    5    6 1   
    11    5    8 1   
    12    5   32 1   
    13    6    7 2   
    14    6   33 1   
    15    7   34 1   
    16    7   35 1   
    17    8    9 1   
    18    8   16 1   
    19    8   36 1   
    20    9   10 1   
    21   10   11 2   
    22   10   37 1   
    23   11   12 1   
    24   12   13 1   
    25   12   15 2   
    26   13   14 1   
    27   14   38 1   
    28   14   39 1   
    29   14   40 1   
    30   16   17 1   
    31   17   18 1   
    32   17   26 1   
    33   17   41 1   
    34   18   19 1   
    35   19   20 1   
    36   19   22 1   
    37   19   42 1   
    38   20   21 1   
    39   20   43 1   
    40   20   44 1   
    41   21   45 1   
    42   22   23 1   
    43   22   24 1   
    44   22   46 1   
    45   23   47 1   
    46   24   25 1   
    47   24   26 1   
    48   24   48 1   
    49   25   49 1   
    50   26   27 1   
    51   26   50 1   
    52   27   51 1   
@<TRIPOS>SUBSTRUCTURE
     1 SCG         1 TEMP              0 ****  ****    0 ROOT
