@<TRIPOS>MOLECULE
SCG
   51    52     1     0     0
SMALL
bcc


@<TRIPOS>ATOM
      1 O16         0.7440    0.4080   -0.8470 o         1 SCG     -0.528100
      2 C10         1.3140   -0.4470   -0.1680 c         1 SCG      0.567900
      3 C9          1.9820   -0.1350    1.1360 c3        1 SCG     -0.203400
      4 C1          3.0650   -1.1470    1.4760 c3        1 SCG      0.018500
      5 C6          4.2360   -1.0270    0.4870 c3        1 SCG     -0.050500
      6 C7          4.7140    0.3750    0.3220 c2        1 SCG     -0.184200
      7 C8          4.8820    0.9640   -0.8590 c2        1 SCG     -0.192000
      8 C5          5.4170   -1.8900    0.9510 c3        1 SCG      0.331900
      9 O4          5.8160   -1.6640    2.3040 os        1 SCG     -0.342900
     10 C3          4.8520   -1.2910    3.1930 c2        1 SCG      0.126100
     11 C2          3.5570   -1.0400    2.8800 ce        1 SCG     -0.272400
     12 C12         2.6520   -0.7380    3.9920 c         1 SCG      0.654300
     13 O14         1.3660   -1.1890    3.8350 os        1 SCG     -0.439900
     14 C15         0.4670   -0.9340    4.9160 c3        1 SCG      0.125700
     15 O13         2.9290   -0.1720    5.0560 o         1 SCG     -0.551000
     16 O11         5.0000   -3.2450    0.9360 os        1 SCG     -0.435600
     17 C17         6.0570   -4.1870    0.9450 c3        1 SCG      0.305900
     18 O22         6.6440   -3.9990   -0.3360 os        1 SCG     -0.438600
     19 C21         7.6900   -4.9350   -0.6100 c3        1 SCG      0.149100
     20 C23         8.2350   -4.5760   -1.9940 c3        1 SCG      0.134400
     21 O24         9.1990   -3.5540   -1.8010 oh        1 SCG     -0.598800
     22 C20         7.1160   -6.3630   -0.6020 c3        1 SCG      0.118100
     23 O25         8.1930   -7.2520   -0.8350 oh        1 SCG     -0.594800
     24 C19         6.4670   -6.6510    0.7640 c3        1 SCG      0.109100
     25 O26         5.8730   -7.9330    0.6630 oh        1 SCG     -0.605800
     26 C18         5.4110   -5.5800    1.0710 c3        1 SCG      0.089100
     27 O27         4.9730   -5.8110    2.3970 oh        1 SCG     -0.601800
     28 H10         1.3430   -1.5140   -0.4840 h4        1 SCG     -0.006800
     29 H91         2.4080    0.9030    1.1130 hc        1 SCG      0.091200
     30 H92         1.1810   -0.1500    1.9270 hc        1 SCG      0.091200
     31 H1          2.6330   -2.1860    1.3580 hc        1 SCG      0.072700
     32 H6          3.8910   -1.4400   -0.5040 hc        1 SCG      0.082700
     33 H7          4.9330    0.8990    1.2680 ha        1 SCG      0.135000
     34 H81         4.6700    0.4640   -1.8140 ha        1 SCG      0.119000
     35 H82         5.2390    1.9990   -0.9470 ha        1 SCG      0.119000
     36 H5          6.3530   -1.7200    0.3470 h2        1 SCG      0.119700
     37 H3          5.2820   -1.2140    4.2090 h4        1 SCG      0.188000
     38 H151        0.3740    0.1650    5.0850 h1        1 SCG      0.052700
     39 H152       -0.4970   -1.3800    4.5660 h1        1 SCG      0.052700
     40 H153        0.8360   -1.4330    5.8440 h1        1 SCG      0.052700
     41 H17         6.7960   -3.9800    1.7660 h2        1 SCG      0.073700
     42 H21         8.5010   -4.8370    0.1630 h1        1 SCG      0.079700
     43 H231        8.7190   -5.4870   -2.4400 h1        1 SCG      0.048700
     44 H232        7.4070   -4.2120   -2.6560 h1        1 SCG      0.048700
     45 H24         9.5260   -3.3180   -2.6770 ho        1 SCG      0.405000
     46 H20         6.3440   -6.4780   -1.4140 h1        1 SCG      0.062700
     47 H25         7.8420   -8.1450   -0.7140 ho        1 SCG      0.427000
     48 H19         7.2490   -6.6610    1.5730 h1        1 SCG      0.066700
     49 H26         5.4100   -8.0890    1.4970 ho        1 SCG      0.428000
     50 H18         4.5460   -5.6650    0.3560 h1        1 SCG      0.075700
     51 H27         4.3160   -5.1300    2.5940 ho        1 SCG      0.425000
@<TRIPOS>BOND
     1    1    2 2   
     2    2    3 1   
     3    2   28 1   
     4    3    4 1   
     5    3   29 1   
     6    3   30 1   
     7    4    5 1   
     8    4   11 1   
     9    4   31 1   
    10    5    6 1   
    11    5    8 1   
    12    5   32 1   
    13    6    7 2   
    14    6   33 1   
    15    7   34 1   
    16    7   35 1   
    17    8    9 1   
    18    8   16 1   
    19    8   36 1   
    20    9   10 1   
    21   10   11 2   
    22   10   37 1   
    23   11   12 1   
    24   12   13 1   
    25   12   15 2   
    26   13   14 1   
    27   14   38 1   
    28   14   39 1   
    29   14   40 1   
    30   16   17 1   
    31   17   18 1   
    32   17   26 1   
    33   17   41 1   
    34   18   19 1   
    35   19   20 1   
    36   19   22 1   
    37   19   42 1   
    38   20   21 1   
    39   20   43 1   
    40   20   44 1   
    41   21   45 1   
    42   22   23 1   
    43   22   24 1   
    44   22   46 1   
    45   23   47 1   
    46   24   25 1   
    47   24   26 1   
    48   24   48 1   
    49   25   49 1   
    50   26   27 1   
    51   26   50 1   
    52   27   51 1   
@<TRIPOS>SUBSTRUCTURE
     1 SCG         1 TEMP              0 ****  ****    0 ROOT
