@<TRIPOS>MOLECULE
SCG
   51    52     1     0     0
SMALL
bcc


@<TRIPOS>ATOM
      1 O16        -4.2930   -2.1890    2.6800 o         1 SCG     -0.528100
      2 C10        -3.5450   -1.3410    2.1940 c         1 SCG      0.567900
      3 C9         -3.7260   -0.7930    0.8110 c3        1 SCG     -0.203400
      4 C1         -2.4270   -0.2480    0.2410 c3        1 SCG      0.018500
      5 C6         -1.4290   -1.3920   -0.0030 c3        1 SCG     -0.050500
      6 C7         -2.0240   -2.5270   -0.7650 c2        1 SCG     -0.184200
      7 C8         -1.9480   -3.7970   -0.3780 c2        1 SCG     -0.192000
      8 C5         -0.2060   -0.8790   -0.7740 c3        1 SCG      0.331900
      9 O4         -0.5210   -0.1610   -1.9690 os        1 SCG     -0.342900
     10 C3         -1.6890    0.5420   -1.9940 c2        1 SCG      0.126100
     11 C2         -2.6150    0.5520   -1.0040 ce        1 SCG     -0.272400
     12 C12        -3.7650    1.4430   -1.1800 c         1 SCG      0.654300
     13 O14        -4.2530    1.9990   -0.0240 os        1 SCG     -0.439900
     14 C15        -5.3560    2.8960   -0.1670 c3        1 SCG      0.125700
     15 O13        -4.3030    1.7770   -2.2410 o         1 SCG     -0.551000
     16 O11         0.4530    0.0780    0.0390 os        1 SCG     -0.435600
     17 C17         1.7910    0.3480   -0.3360 c3        1 SCG      0.305900
     18 O22         2.4480   -0.8730   -0.0210 os        1 SCG     -0.438600
     19 C21         3.8640   -0.8070   -0.2160 c3        1 SCG      0.149100
     20 C23         4.4080   -2.1950    0.1250 c3        1 SCG      0.134400
     21 O24         4.2820   -2.9830   -1.0470 oh        1 SCG     -0.598800
     22 C20         4.4610    0.2600    0.7190 c3        1 SCG      0.118100
     23 O25         5.8520    0.3160    0.4600 oh        1 SCG     -0.594800
     24 C19         3.8060    1.6230    0.4330 c3        1 SCG      0.109100
     25 O26         4.3240    2.5260    1.3930 oh        1 SCG     -0.605800
     26 C18         2.2810    1.5010    0.5630 c3        1 SCG      0.089100
     27 O27         1.7370    2.7350    0.1340 oh        1 SCG     -0.601800
     28 H10        -2.6950   -0.9160    2.7760 h4        1 SCG     -0.006800
     29 H91        -4.4900    0.0300    0.8820 hc        1 SCG      0.091200
     30 H92        -4.1490   -1.5840    0.1360 hc        1 SCG      0.091200
     31 H1         -1.9620    0.4430    1.0080 hc        1 SCG      0.072700
     32 H6         -1.0640   -1.7480    1.0020 hc        1 SCG      0.082700
     33 H7         -2.5350   -2.2340   -1.6980 ha        1 SCG      0.135000
     34 H81        -1.4450   -4.1140    0.5470 ha        1 SCG      0.119000
     35 H82        -2.3940   -4.6120   -0.9640 ha        1 SCG      0.119000
     36 H5          0.4820   -1.7050   -1.1110 h2        1 SCG      0.119700
     37 H3         -1.7760    1.0990   -2.9460 h4        1 SCG      0.188000
     38 H151       -5.0610    3.7640   -0.8040 h1        1 SCG      0.052700
     39 H152       -6.2230    2.3630   -0.6260 h1        1 SCG      0.052700
     40 H153       -5.5740    3.2110    0.8820 h1        1 SCG      0.052700
     41 H17         1.8790    0.5890   -1.4300 h2        1 SCG      0.073700
     42 H21         4.0890   -0.5550   -1.2890 h1        1 SCG      0.079700
     43 H231        5.4890   -2.0990    0.4150 h1        1 SCG      0.048700
     44 H232        3.8200   -2.6490    0.9660 h1        1 SCG      0.048700
     45 H24         4.6090   -3.8620   -0.8220 ho        1 SCG      0.405000
     46 H20         4.2850   -0.0210    1.7950 h1        1 SCG      0.062700
     47 H25         6.1940    1.0640    0.9680 ho        1 SCG      0.427000
     48 H19         4.0750    1.9760   -0.6010 h1        1 SCG      0.066700
     49 H26         3.8660    3.3670    1.2570 ho        1 SCG      0.428000
     50 H18         1.9930    1.2990    1.6310 h1        1 SCG      0.075700
     51 H27         0.7770    2.6540    0.2060 ho        1 SCG      0.425000
@<TRIPOS>BOND
     1    1    2 2   
     2    2    3 1   
     3    2   28 1   
     4    3    4 1   
     5    3   29 1   
     6    3   30 1   
     7    4    5 1   
     8    4   11 1   
     9    4   31 1   
    10    5    6 1   
    11    5    8 1   
    12    5   32 1   
    13    6    7 2   
    14    6   33 1   
    15    7   34 1   
    16    7   35 1   
    17    8    9 1   
    18    8   16 1   
    19    8   36 1   
    20    9   10 1   
    21   10   11 2   
    22   10   37 1   
    23   11   12 1   
    24   12   13 1   
    25   12   15 2   
    26   13   14 1   
    27   14   38 1   
    28   14   39 1   
    29   14   40 1   
    30   16   17 1   
    31   17   18 1   
    32   17   26 1   
    33   17   41 1   
    34   18   19 1   
    35   19   20 1   
    36   19   22 1   
    37   19   42 1   
    38   20   21 1   
    39   20   43 1   
    40   20   44 1   
    41   21   45 1   
    42   22   23 1   
    43   22   24 1   
    44   22   46 1   
    45   23   47 1   
    46   24   25 1   
    47   24   26 1   
    48   24   48 1   
    49   25   49 1   
    50   26   27 1   
    51   26   50 1   
    52   27   51 1   
@<TRIPOS>SUBSTRUCTURE
     1 SCG         1 TEMP              0 ****  ****    0 ROOT
