@<TRIPOS>MOLECULE
SCH
   17    16     1     0     0
SMALL
bcc


@<TRIPOS>ATOM
      1 N           0.8510    1.2800    1.1120 n3        1 SCH     -0.881800
      2 CA          1.2260   -0.0200    0.5750 c3        1 SCH      0.012500
      3 CB          0.3050   -0.5180   -0.5210 c3        1 SCH      0.033700
      4 SG         -1.2690   -1.1630   -0.0240 ss        1 SCH     -0.229100
      5 SD         -2.6480    0.4110    0.2250 ss        1 SCH     -0.183100
      6 CE         -3.3900    0.5900   -1.3520 c3        1 SCH     -0.047000
      7 C           2.7000   -0.0920    0.0240 c         1 SCH      0.890600
      8 O           3.4610    0.8860    0.2610 o         1 SCH     -0.834300
      9 OXT         3.0320   -1.1330   -0.6070 o         1 SCH     -0.834300
     10 H           1.6170    1.5940    1.6860 hn        1 SCH      0.333300
     11 H2          0.7820    1.9350    0.3530 hn        1 SCH      0.333300
     12 HA          1.1830   -0.7490    1.4370 h1        1 SCH      0.060700
     13 HB2         0.1780    0.2460   -1.3230 h1        1 SCH      0.089200
     14 HB3         0.7870   -1.4350   -0.9720 h1        1 SCH      0.089200
     15 HE1        -2.6620    0.9280   -2.1230 h1        1 SCH      0.055700
     16 HE2        -3.8700   -0.3480   -1.7050 h1        1 SCH      0.055700
     17 HE3        -4.1720    1.3750   -1.2240 h1        1 SCH      0.055700
@<TRIPOS>BOND
     1    1    2 1   
     2    1   10 1   
     3    1   11 1   
     4    2    3 1   
     5    2    7 1   
     6    2   12 1   
     7    3    4 1   
     8    3   13 1   
     9    3   14 1   
    10    4    5 1   
    11    5    6 1   
    12    6   15 1   
    13    6   16 1   
    14    6   17 1   
    15    7    8 1   
    16    7    9 1   
@<TRIPOS>SUBSTRUCTURE
     1 SCH         1 TEMP              0 ****  ****    0 ROOT
