@<TRIPOS>MOLECULE
SCI
   26    25     1     0     0
SMALL
bcc


@<TRIPOS>ATOM
      1 N           1.8000    0.1690   -0.2660 nz        1 SCI     -0.829600
      2 CA          1.0590    0.9340    0.7950 c3        1 SCI     -0.002500
      3 CB          0.0840    0.0280    1.5490 c3        1 SCI     -0.096400
      4 CG         -0.9060    0.8000    2.4010 c3        1 SCI     -0.069400
      5 CD         -0.5650    0.7990    3.8990 c3        1 SCI      0.116800
      6 NE          0.5280    1.6800    4.1840 n2        1 SCI     -0.520900
      7 CZ          1.6630    1.3260    4.6600 c2        1 SCI      0.560100
      8 NH1         2.7410    2.3610    4.6350 nz        1 SCI     -0.823600
      9 S           2.2030   -0.1710    5.3620 sh        1 SCI     -0.293000
     10 C           2.1390    1.5080    1.7640 c         1 SCI      0.891600
     11 OT1         2.8930    0.6640    2.3400 o         1 SCI     -0.804300
     12 OT2         2.2050    2.7440    1.9400 o         1 SCI     -0.804300
     13 HN1         2.3000    0.8290   -0.8680 hn        1 SCI      0.457467
     14 HN2         2.4870   -0.4370    0.2050 hn        1 SCI      0.457467
     15 HA          0.5110    1.7820    0.2920 hx        1 SCI      0.118700
     16 HB1         0.6730   -0.6840    2.1890 hc        1 SCI      0.063700
     17 HB2        -0.5030   -0.5870    0.8120 hc        1 SCI      0.063700
     18 HG1        -1.0140    1.8530    2.0280 hc        1 SCI      0.082700
     19 HG2        -1.9140    0.3090    2.3150 hc        1 SCI      0.082700
     20 HD1        -1.4530    1.2090    4.4670 h1        1 SCI      0.089200
     21 HD2        -0.3810   -0.2610    4.2450 h1        1 SCI      0.089200
     22 HN11        3.3520    2.1200    3.8210 hn        1 SCI      0.479133
     23 HN12        2.3720    3.3060    4.4630 hn        1 SCI      0.479133
     24 HS          2.9140   -0.6360    4.3220 hs        1 SCI      0.274800
     25 HN3         1.1640   -0.3990   -0.8260 hn        1 SCI      0.457467
     26 HH13        3.2660    2.3250    5.5110 hn        1 SCI      0.479133
@<TRIPOS>BOND
     1    1    2 1   
     2    1   13 1   
     3    1   14 1   
     4    1   25 1   
     5    2    3 1   
     6    2   10 1   
     7    2   15 1   
     8    3    4 1   
     9    3   16 1   
    10    3   17 1   
    11    4    5 1   
    12    4   18 1   
    13    4   19 1   
    14    5    6 1   
    15    5   20 1   
    16    5   21 1   
    17    6    7 2   
    18    7    8 1   
    19    7    9 1   
    20    8   22 1   
    21    8   23 1   
    22    8   26 1   
    23    9   24 1   
    24   10   11 1   
    25   10   12 1   
@<TRIPOS>SUBSTRUCTURE
     1 SCI         1 TEMP              0 ****  ****    0 ROOT
