@<TRIPOS>MOLECULE
SCI
   24    23     1     0     0
SMALL
bcc


@<TRIPOS>ATOM
      1 N           0.5100    1.8080    2.2130 n3        1 SCI     -0.892800
      2 CA         -0.2930    0.6010    2.3600 c3        1 SCI      0.018500
      3 CB         -0.1400   -0.3760    1.1930 c3        1 SCI     -0.066400
      4 CG         -0.6520    0.2010   -0.1090 c3        1 SCI     -0.072400
      5 CD         -0.6080   -0.8730   -1.2010 c3        1 SCI      0.106800
      6 NE         -1.1500   -0.4610   -2.4640 n2        1 SCI     -0.616900
      7 CZ         -0.4190   -0.0220   -3.4340 c2        1 SCI      0.607100
      8 NH1        -0.9460    0.2730   -4.7280 nh        1 SCI     -0.883800
      9 S           1.3270    0.2240   -3.3270 sh        1 SCI     -0.358000
     10 C          -0.0410   -0.1870    3.6890 c         1 SCI      0.887600
     11 OT1         0.7740    0.3020    4.5240 o         1 SCI     -0.843800
     12 OT2        -0.6840   -1.2590    3.8630 o         1 SCI     -0.843800
     13 HN1         1.4550    1.5390    1.9990 hn        1 SCI      0.331300
     14 HN2         0.5440    2.2530    3.1160 hn        1 SCI      0.331300
     15 HA         -1.3700    0.9400    2.3960 h1        1 SCI      0.041700
     16 HB1         0.9350   -0.6740    1.0790 hc        1 SCI      0.048700
     17 HB2        -0.7190   -1.3010    1.4630 hc        1 SCI      0.048700
     18 HG1        -1.7040    0.5620    0.0280 hc        1 SCI      0.047200
     19 HG2        -0.0280    1.0800   -0.4120 hc        1 SCI      0.047200
     20 HD1         0.4590   -1.2390   -1.2970 h1        1 SCI      0.055200
     21 HD2        -1.2450   -1.7450   -0.8710 h1        1 SCI      0.055200
     22 HN11       -0.9670    1.2660   -4.8680 hn        1 SCI      0.372300
     23 HN12       -1.8650   -0.1040   -4.8700 hn        1 SCI      0.372300
     24 HS          1.6490    0.2450   -4.6100 hs        1 SCI      0.205800
@<TRIPOS>BOND
     1    1    2 1   
     2    1   13 1   
     3    1   14 1   
     4    2    3 1   
     5    2   10 1   
     6    2   15 1   
     7    3    4 1   
     8    3   16 1   
     9    3   17 1   
    10    4    5 1   
    11    4   18 1   
    12    4   19 1   
    13    5    6 1   
    14    5   20 1   
    15    5   21 1   
    16    6    7 2   
    17    7    8 1   
    18    7    9 1   
    19    8   22 1   
    20    8   23 1   
    21    9   24 1   
    22   10   11 1   
    23   10   12 1   
@<TRIPOS>SUBSTRUCTURE
     1 SCI         1 TEMP              0 ****  ****    0 ROOT
