@<TRIPOS>MOLECULE
SCI
   26    25     1     0     0
SMALL
bcc


@<TRIPOS>ATOM
      1 N           1.7880    0.2480   -0.2880 n4        1 SCI     -0.829600
      2 CA          1.0050    0.9310    0.7980 c3        1 SCI     -0.002500
      3 CB          0.1490   -0.0720    1.5760 c3        1 SCI     -0.096400
      4 CG         -0.8880    0.5940    2.4600 c3        1 SCI     -0.069400
      5 CD         -0.5040    0.6240    3.9470 c3        1 SCI      0.116800
      6 NE          0.5020    1.6090    4.2060 n2        1 SCI     -0.520900
      7 CZ          1.6800    1.3710    4.6460 c2        1 SCI      0.560100
      8 NH1         2.6470    2.5100    4.5960 n4        1 SCI     -0.823600
      9 S           2.3890   -0.0650    5.3240 sh        1 SCI     -0.293000
     10 C           2.0500    1.6080    1.7390 c         1 SCI      0.891600
     11 OT1         2.9020    0.8440    2.2870 o         1 SCI     -0.804300
     12 OT2         1.9950    2.8440    1.9200 o         1 SCI     -0.804300
     13 HN1         2.2000    0.9560   -0.9000 hn        1 SCI      0.457467
     14 HN2         2.5470   -0.2860    0.1590 hn        1 SCI      0.457467
     15 HA          0.3590    1.7200    0.3170 hx        1 SCI      0.118700
     16 HB1        -0.3930   -0.7410    0.8520 hc        1 SCI      0.063700
     17 HB2         0.8270   -0.7220    2.1940 hc        1 SCI      0.063700
     18 HG1        -1.8430    0.0030    2.4000 hc        1 SCI      0.082700
     19 HG2        -1.1140    1.6310    2.0960 hc        1 SCI      0.082700
     20 HD1        -1.4120    0.9400    4.5430 h1        1 SCI      0.089200
     21 HD2        -0.2040   -0.4140    4.2820 h1        1 SCI      0.089200
     22 HN11        2.1800    3.4130    4.4360 hn        1 SCI      0.479133
     23 HN12        3.1970    2.5270    5.4560 hn        1 SCI      0.479133
     24 HS          3.1130   -0.4540    4.2600 hs        1 SCI      0.274800
     25 HN3         1.1960   -0.3800   -0.8320 hn        1 SCI      0.457467
     26 HH13        3.2560    2.3320    3.7640 hn        1 SCI      0.479133
@<TRIPOS>BOND
     1    1    2 1   
     2    1   13 1   
     3    1   14 1   
     4    1   25 1   
     5    2    3 1   
     6    2   10 1   
     7    2   15 1   
     8    3    4 1   
     9    3   16 1   
    10    3   17 1   
    11    4    5 1   
    12    4   18 1   
    13    4   19 1   
    14    5    6 1   
    15    5   20 1   
    16    5   21 1   
    17    6    7 2   
    18    7    8 1   
    19    7    9 1   
    20    8   22 1   
    21    8   23 1   
    22    8   26 1   
    23    9   24 1   
    24   10   11 1   
    25   10   12 1   
@<TRIPOS>SUBSTRUCTURE
     1 SCI         1 TEMP              0 ****  ****    0 ROOT
