@<TRIPOS>MOLECULE
SCI
   26    25     1     0     0
SMALL
bcc


@<TRIPOS>ATOM
      1 N           1.7080    0.4440   -0.3430 n4        1 SCI     -0.829600
      2 CA          0.9110    0.9860    0.8090 c3        1 SCI     -0.002500
      3 CB          0.2180   -0.1410    1.5800 c3        1 SCI     -0.096400
      4 CG         -0.8410    0.3620    2.5420 c3        1 SCI     -0.069400
      5 CD         -0.3850    0.3760    4.0090 c3        1 SCI      0.116800
      6 NE          0.5130    1.4620    4.2650 n2        1 SCI     -0.520900
      7 CZ          1.7330    1.3460    4.6370 c2        1 SCI      0.560100
      8 NH1         2.5590    2.5910    4.5930 n4        1 SCI     -0.823600
      9 S           2.6370   -0.0240    5.2130 sh        1 SCI     -0.293000
     10 C           1.9190    1.7420    1.7300 c         1 SCI      0.891600
     11 OT1         2.8810    1.0610    2.2010 o         1 SCI     -0.804300
     12 OT2         1.7320    2.9550    1.9700 o         1 SCI     -0.804300
     13 HN1         1.1650   -0.2270   -0.8870 hn        1 SCI      0.457467
     14 HN2         2.0030    1.2200   -0.9410 hn        1 SCI      0.457467
     15 HA          0.1540    1.7130    0.3960 hx        1 SCI      0.118700
     16 HB1         0.9970   -0.7320    2.1350 hc        1 SCI      0.063700
     17 HB2        -0.2810   -0.8390    0.8530 hc        1 SCI      0.063700
     18 HG1        -1.7240   -0.3330    2.5010 hc        1 SCI      0.082700
     19 HG2        -1.2030    1.3800    2.2390 hc        1 SCI      0.082700
     20 HD1        -1.2900    0.5600    4.6620 h1        1 SCI      0.089200
     21 HD2         0.0500   -0.6310    4.2820 h1        1 SCI      0.089200
     22 HN11        3.1390    2.5200    3.7260 hn        1 SCI      0.479133
     23 HN12        3.1480    2.6380    5.4260 hn        1 SCI      0.479133
     24 HS          3.3440   -0.2810    4.0990 hs        1 SCI      0.274800
     25 HN3         2.5460   -0.0160    0.0420 hn        1 SCI      0.457467
     26 HH13        1.9830    3.4390    4.4990 hn        1 SCI      0.479133
@<TRIPOS>BOND
     1    1    2 1   
     2    1   13 1   
     3    1   14 1   
     4    1   25 1   
     5    2    3 1   
     6    2   10 1   
     7    2   15 1   
     8    3    4 1   
     9    3   16 1   
    10    3   17 1   
    11    4    5 1   
    12    4   18 1   
    13    4   19 1   
    14    5    6 1   
    15    5   20 1   
    16    5   21 1   
    17    6    7 2   
    18    7    8 1   
    19    7    9 1   
    20    8   22 1   
    21    8   23 1   
    22    8   26 1   
    23    9   24 1   
    24   10   11 1   
    25   10   12 1   
@<TRIPOS>SUBSTRUCTURE
     1 SCI         1 TEMP              0 ****  ****    0 ROOT
