@<TRIPOS>MOLECULE
SCJ
   39    42     1     0     0
SMALL
bcc


@<TRIPOS>ATOM
      1 C01        -0.1140   -0.2310   -0.1090 cc        1 SCJ     -0.211900
      2 C02         1.3040   -0.1660   -0.1300 cd        1 SCJ      0.406500
      3 N03         1.6860   -0.1350    1.2780 na        1 SCJ      0.004200
      4 N04         0.6240   -0.1730    2.0980 nd        1 SCJ     -0.588100
      5 C05        -0.4690   -0.2330    1.2920 cc        1 SCJ      0.447500
      6 N06         2.2240   -0.1390   -1.1450 nd        1 SCJ     -0.564000
      7 C07         3.5100   -0.0780   -0.8130 cc        1 SCJ      0.520800
      8 C08         3.9710   -0.0350    0.5690 cc        1 SCJ     -0.212300
      9 C09         3.0460   -0.0610    1.5950 cd        1 SCJ      0.069300
     10 N10         3.4010   -0.0140    3.0270 n4        1 SCJ     -0.645400
     11 C11         4.5480   -0.0400   -1.8560 ca        1 SCJ     -0.198500
     12 C12         4.8790    0.1130    3.2920 c3        1 SCJ      0.191100
     13 C13         5.1340    0.1650    4.7520 ca        1 SCJ     -0.327600
     14 C14         5.3140   -1.0270    5.4890 ca        1 SCJ      0.437200
     15 N15         5.5890   -1.0440    6.8040 nb        1 SCJ     -0.639000
     16 C16         5.7040    0.1410    7.4360 ca        1 SCJ      0.455200
     17 C17         5.5490    1.3830    6.7860 ca        1 SCJ     -0.233300
     18 C18         5.2590    1.3910    5.4240 ca        1 SCJ     -0.054000
     19 C19         4.3570    0.7240   -3.0150 ca        1 SCJ     -0.091000
     20 C20         5.3500    0.7560   -3.9940 ca        1 SCJ     -0.126000
     21 C21         6.5240    0.0210   -3.8300 ca        1 SCJ     -0.087000
     22 C22         6.7080   -0.7520   -2.6810 ca        1 SCJ     -0.126000
     23 C23         5.7260   -0.7850   -1.6950 ca        1 SCJ     -0.091000
     24 BR24       -1.2480   -0.3000   -1.5300 br        1 SCJ      0.068300
     25 H05        -1.4820   -0.2770    1.7120 h4        1 SCJ      0.090800
     26 H08         5.0550    0.0310    0.7440 ha        1 SCJ      0.184000
     27 HN10        3.0520   -0.8720    3.4830 hn        1 SCJ      0.472300
     28 H121        5.2400    1.0530    2.7830 hx        1 SCJ      0.112200
     29 H122        5.3870   -0.7820    2.8270 hx        1 SCJ      0.112200
     30 H14         5.2470   -2.0180    5.0030 h4        1 SCJ      0.032100
     31 H16         5.9360    0.0880    8.5190 h4        1 SCJ      0.057100
     32 H17         5.6610    2.3220    7.3490 ha        1 SCJ      0.175000
     33 H18         5.1450    2.3440    4.8840 ha        1 SCJ      0.150000
     34 H19         3.4280    1.2980   -3.1590 ha        1 SCJ      0.140000
     35 H20         5.1990    1.3590   -4.9040 ha        1 SCJ      0.152500
     36 H21         7.3030    0.0440   -4.6070 ha        1 SCJ      0.154000
     37 H22         7.6280   -1.3430   -2.5580 ha        1 SCJ      0.152500
     38 H23         5.8680   -1.4170   -0.8060 ha        1 SCJ      0.140000
     39 H102        2.9160    0.7860    3.4640 hn        1 SCJ      0.472300
@<TRIPOS>BOND
     1    1    2 2   
     2    1    5 1   
     3    1   24 1   
     4    2    3 1   
     5    2    6 1   
     6    3    4 1   
     7    3    9 1   
     8    4    5 2   
     9    5   25 1   
    10    6    7 2   
    11    7    8 1   
    12    7   11 1   
    13    8    9 2   
    14    8   26 1   
    15    9   10 1   
    16   10   12 1   
    17   10   27 1   
    18   10   39 1   
    19   11   19 ar  
    20   11   23 ar  
    21   12   13 1   
    22   12   28 1   
    23   12   29 1   
    24   13   14 ar  
    25   13   18 ar  
    26   14   15 ar  
    27   14   30 1   
    28   15   16 ar  
    29   16   17 ar  
    30   16   31 1   
    31   17   18 ar  
    32   17   32 1   
    33   18   33 1   
    34   19   20 ar  
    35   19   34 1   
    36   20   21 ar  
    37   20   35 1   
    38   21   22 ar  
    39   21   36 1   
    40   22   23 ar  
    41   22   37 1   
    42   23   38 1   
@<TRIPOS>SUBSTRUCTURE
     1 SCJ         1 TEMP              0 ****  ****    0 ROOT
