@<TRIPOS>MOLECULE
SCJ
   38    41     1     0     0
SMALL
bcc


@<TRIPOS>ATOM
      1 C01        -0.0560   -0.2340   -0.0020 cc        1 SCJ     -0.275900
      2 C02         1.3630   -0.1300   -0.0560 cd        1 SCJ      0.433500
      3 N03         1.7710    0.0360    1.3250 na        1 SCJ      0.004200
      4 N04         0.7190    0.0470    2.1670 nd        1 SCJ     -0.581100
      5 C05        -0.3850   -0.1180    1.3970 cc        1 SCJ      0.420500
      6 N06         2.2430   -0.1760   -1.1050 nd        1 SCJ     -0.659000
      7 C07         3.5380   -0.0400   -0.8050 cc        1 SCJ      0.544800
      8 C08         4.0250    0.1520    0.5300 cc        1 SCJ     -0.386300
      9 C09         3.1380    0.2060    1.6170 cd        1 SCJ      0.292300
     10 N10         3.5480    0.4790    2.9190 nh        1 SCJ     -0.745600
     11 C11         4.5390   -0.0800   -1.8890 ca        1 SCJ     -0.159500
     12 C12         4.9260    0.2190    3.2780 c3        1 SCJ      0.255100
     13 C13         5.1390    0.1540    4.7570 ca        1 SCJ     -0.236600
     14 C14         5.7470   -0.9780    5.3390 ca        1 SCJ      0.412200
     15 N15         6.0020   -1.0870    6.6560 nb        1 SCJ     -0.660000
     16 C16         5.6450   -0.0550    7.4460 ca        1 SCJ      0.405200
     17 C17         5.0300    1.1150    6.9610 ca        1 SCJ     -0.245300
     18 C18         4.7760    1.2160    5.5940 ca        1 SCJ     -0.076000
     19 C19         4.2950    0.5680   -3.1070 ca        1 SCJ     -0.096000
     20 C20         5.2560    0.5340   -4.1170 ca        1 SCJ     -0.137000
     21 C21         6.4550   -0.1510   -3.9230 ca        1 SCJ     -0.114000
     22 C22         6.6950   -0.8060   -2.7140 ca        1 SCJ     -0.137000
     23 C23         5.7420   -0.7730   -1.6990 ca        1 SCJ     -0.096000
     24 BR24       -1.2130   -0.4630   -1.3890 br        1 SCJ      0.000300
     25 H05        -1.3840   -0.1520    1.8380 h4        1 SCJ      0.062800
     26 H08         5.1020    0.2910    0.6870 ha        1 SCJ      0.163000
     27 HN10        2.8800    0.3620    3.6530 hn        1 SCJ      0.448800
     28 H121        5.5530    1.0620    2.8570 h1        1 SCJ      0.058200
     29 H122        5.2880   -0.7410    2.8010 h1        1 SCJ      0.058200
     30 H14         6.0490   -1.8420    4.7190 h4        1 SCJ      0.026100
     31 H16         5.8640   -0.1770    8.5220 h4        1 SCJ      0.028100
     32 H17         4.7590    1.9260    7.6490 ha        1 SCJ      0.150000
     33 H18         4.3020    2.1180    5.1760 ha        1 SCJ      0.150000
     34 H19         3.3450    1.1010   -3.2700 ha        1 SCJ      0.143000
     35 H20         5.0630    1.0460   -5.0710 ha        1 SCJ      0.135500
     36 H21         7.2100   -0.1780   -4.7220 ha        1 SCJ      0.134000
     37 H22         7.6360   -1.3540   -2.5630 ha        1 SCJ      0.135500
     38 H23         5.9290   -1.3010   -0.7520 ha        1 SCJ      0.143000
@<TRIPOS>BOND
     1    1    2 2   
     2    1    5 1   
     3    1   24 1   
     4    2    3 1   
     5    2    6 1   
     6    3    4 1   
     7    3    9 1   
     8    4    5 2   
     9    5   25 1   
    10    6    7 2   
    11    7    8 1   
    12    7   11 1   
    13    8    9 2   
    14    8   26 1   
    15    9   10 1   
    16   10   12 1   
    17   10   27 1   
    18   11   19 ar  
    19   11   23 ar  
    20   12   13 1   
    21   12   28 1   
    22   12   29 1   
    23   13   14 ar  
    24   13   18 ar  
    25   14   15 ar  
    26   14   30 1   
    27   15   16 ar  
    28   16   17 ar  
    29   16   31 1   
    30   17   18 ar  
    31   17   32 1   
    32   18   33 1   
    33   19   20 ar  
    34   19   34 1   
    35   20   21 ar  
    36   20   35 1   
    37   21   22 ar  
    38   21   36 1   
    39   22   23 ar  
    40   22   37 1   
    41   23   38 1   
@<TRIPOS>SUBSTRUCTURE
     1 SCJ         1 TEMP              0 ****  ****    0 ROOT
