@<TRIPOS>MOLECULE
SCJ
   38    41     1     0     0
SMALL
bcc


@<TRIPOS>ATOM
      1 C01         2.0990    2.1570   -0.2310 cc        1 SCJ     -0.275900
      2 C02         1.4540    0.8930   -0.1250 cd        1 SCJ      0.433500
      3 N03         0.0490    1.2120    0.0410 na        1 SCJ      0.004200
      4 N04        -0.1720    2.5410    0.0490 nd        1 SCJ     -0.581100
      5 C05         1.0390    3.1270   -0.1160 cc        1 SCJ      0.420500
      6 N06         1.9390   -0.3870   -0.1690 nd        1 SCJ     -0.659000
      7 C07         1.0450   -1.3710   -0.0320 cc        1 SCJ      0.544800
      8 C08        -0.3580   -1.1430    0.1600 cc        1 SCJ     -0.386300
      9 C09        -0.8740    0.1610    0.2110 cd        1 SCJ      0.292300
     10 N10        -2.2100    0.4400    0.4840 nh        1 SCJ     -0.745600
     11 C11         1.5020   -2.7730   -0.0700 ca        1 SCJ     -0.159500
     12 C12        -3.1960   -0.5890    0.2260 c3        1 SCJ      0.255100
     13 C13        -4.5910   -0.0520    0.1620 ca        1 SCJ     -0.236600
     14 C14        -5.3970   -0.3000   -0.9680 ca        1 SCJ      0.412200
     15 N15        -6.6710    0.1200   -1.0760 nb        1 SCJ     -0.661000
     16 C16        -7.1850    0.8180   -0.0440 ca        1 SCJ      0.405200
     17 C17        -6.4610    1.1190    1.1240 ca        1 SCJ     -0.245300
     18 C18        -5.1430    0.6740    1.2250 ca        1 SCJ     -0.076000
     19 C19         2.6830   -3.1550    0.5790 ca        1 SCJ     -0.096000
     20 C20         3.0950   -4.4870    0.5470 ca        1 SCJ     -0.137000
     21 C21         2.3410   -5.4390   -0.1370 ca        1 SCJ     -0.114000
     22 C22         1.1700   -5.0590   -0.7940 ca        1 SCJ     -0.137000
     23 C23         0.7490   -3.7320   -0.7620 ca        1 SCJ     -0.096000
     24 BR24        3.8740    2.4900   -0.4600 br        1 SCJ      0.000300
     25 H05         1.1420    4.2150   -0.1520 h4        1 SCJ      0.062800
     26 H08        -1.0210   -2.0070    0.3000 ha        1 SCJ      0.163000
     27 HN10       -2.5250    1.3810    0.3650 hn        1 SCJ      0.448800
     28 H121       -2.9580   -1.1370   -0.7340 h1        1 SCJ      0.058200
     29 H122       -3.1340   -1.3390    1.0700 h1        1 SCJ      0.058200
     30 H14        -5.0040   -0.8670   -1.8320 h4        1 SCJ      0.026100
     31 H16        -8.2320    1.1510   -0.1650 h4        1 SCJ      0.028100
     32 H17        -6.9280    1.6920    1.9360 ha        1 SCJ      0.150000
     33 H18        -4.5460    0.8850    2.1250 ha        1 SCJ      0.150000
     34 H19         3.2890   -2.4050    1.1120 ha        1 SCJ      0.143000
     35 H20         4.0220   -4.7840    1.0600 ha        1 SCJ      0.135500
     36 H21         2.6700   -6.4890   -0.1630 ha        1 SCJ      0.134000
     37 H22         0.5780   -5.8070   -1.3410 ha        1 SCJ      0.135500
     38 H23        -0.1680   -3.4330   -1.2910 ha        1 SCJ      0.143000
@<TRIPOS>BOND
     1    1    2 2   
     2    1    5 1   
     3    1   24 1   
     4    2    3 1   
     5    2    6 1   
     6    3    4 1   
     7    3    9 1   
     8    4    5 2   
     9    5   25 1   
    10    6    7 2   
    11    7    8 1   
    12    7   11 1   
    13    8    9 2   
    14    8   26 1   
    15    9   10 1   
    16   10   12 1   
    17   10   27 1   
    18   11   19 ar  
    19   11   23 ar  
    20   12   13 1   
    21   12   28 1   
    22   12   29 1   
    23   13   14 ar  
    24   13   18 ar  
    25   14   15 ar  
    26   14   30 1   
    27   15   16 ar  
    28   16   17 ar  
    29   16   31 1   
    30   17   18 ar  
    31   17   32 1   
    32   18   33 1   
    33   19   20 ar  
    34   19   34 1   
    35   20   21 ar  
    36   20   35 1   
    37   21   22 ar  
    38   21   36 1   
    39   22   23 ar  
    40   22   37 1   
    41   23   38 1   
@<TRIPOS>SUBSTRUCTURE
     1 SCJ         1 TEMP              0 ****  ****    0 ROOT
