@<TRIPOS>MOLECULE
SCJ
   38    27     1     0     0
SMALL
bcc


@<TRIPOS>ATOM
      1 C01        -3.4930    0.1200   -1.1480 c1        1 SCJ     -0.315000
      2 C02        -2.1130    0.0470   -1.1930 c1        1 SCJ     -0.001000
      3 N03        -1.6540    0.0040    0.0810 n1        1 SCJ     -0.111000
      4 N04        -2.7510    0.0480    0.9340 n1        1 SCJ     -0.122000
      5 C05        -3.8740    0.1190    0.1730 c1        1 SCJ     -0.001000
      6 N06        -1.2250   -0.0170   -2.2500 n1        1 SCJ     -0.122000
      7 C07         0.0950   -0.1240   -2.0150 c1        1 SCJ      0.027500
      8 C08         0.5600   -0.1690   -0.7260 c1        1 SCJ     -0.214000
      9 C09        -0.3200   -0.1040    0.3200 c1        1 SCJ      0.233000
     10 N10        -0.1780    0.1720    1.7040 n2        1 SCJ     -0.299000
     11 C11         0.5110   -0.1900   -3.3400 c1        1 SCJ      0.027500
     12 C12         0.6340   -0.6650    2.5160 c3        1 SCJ      0.010000
     13 C13         0.9820    0.0590    3.7960 c1        1 SCJ     -0.166000
     14 C14         2.2000    0.7090    3.9130 c1        1 SCJ     -0.052000
     15 N15         2.5590    1.2760    5.0990 n1        1 SCJ     -0.134000
     16 C16         1.7220    1.2050    6.1710 c1        1 SCJ     -0.118667
     17 C17         0.5030    0.5550    6.0560 c1        1 SCJ     -0.118667
     18 C18         0.1420   -0.0130    4.8700 c1        1 SCJ     -0.075000
     19 C19         0.6910   -1.4580   -3.8710 c1        1 SCJ     -0.118667
     20 C20         0.9400   -1.6140   -5.2260 c1        1 SCJ     -0.118667
     21 C21         1.0080   -0.5010   -6.0510 c1        1 SCJ     -0.118667
     22 C22         0.8270    0.7670   -5.5200 c1        1 SCJ     -0.118667
     23 C23         0.5780    0.9230   -4.1640 c1        1 SCJ     -0.214000
     24 BR24       -4.2300    0.0510   -2.9090 br        1 SCJ      0.126000
     25 H05        -4.7920    0.1390    0.5050 DU        1 SCJ      0.192000
     26 H08         1.5180   -0.2460   -0.5550 ha        1 SCJ      0.149500
     27 HN10       -0.6270    0.8720    2.0770 hn        1 SCJ      0.244000
     28 H121        0.1440   -1.4870    2.7290 h1        1 SCJ      0.097500
     29 H122        1.4560   -0.8900    2.0340 h1        1 SCJ      0.097500
     30 H14         2.8010    0.7610    3.1460 ha        1 SCJ      0.170000
     31 H16         1.9810    1.6110    7.0200 ha        1 SCJ      0.145333
     32 H17        -0.0970    0.5040    6.8240 ha        1 SCJ      0.145333
     33 H18        -0.7160   -0.4700    4.7890 ha        1 SCJ      0.143000
     34 H19         0.6440   -2.2410   -3.2900 ha        1 SCJ      0.145333
     35 H20         1.0670   -2.5070   -5.6000 ha        1 SCJ      0.145333
     36 H21         1.1830   -0.6110   -7.0050 ha        1 SCJ      0.145333
     37 H22         0.8750    1.5510   -6.1010 ha        1 SCJ      0.145333
     38 H23         0.4510    1.8150   -3.7910 ha        1 SCJ      0.149500
@<TRIPOS>BOND
     1    1    2 1   
     2    1    5 1   
     3    2    6 1   
     4    3    9 1   
     5    4    5 1   
     6    7    8 1   
     7    8   26 1   
     8   10   12 1   
     9   10   27 1   
    10   11   23 1   
    11   12   13 1   
    12   12   28 1   
    13   12   29 1   
    14   13   18 1   
    15   14   15 1   
    16   14   30 1   
    17   16   17 1   
    18   16   31 1   
    19   17   32 1   
    20   18   33 1   
    21   19   20 1   
    22   19   34 1   
    23   20   35 1   
    24   21   22 1   
    25   21   36 1   
    26   22   37 1   
    27   23   38 1   
@<TRIPOS>SUBSTRUCTURE
     1 SCJ         1 TEMP              0 ****  ****    0 ROOT
