@<TRIPOS>MOLECULE
SCK
   50    49     1     0     0
SMALL
bcc


@<TRIPOS>ATOM
      1 O13        -1.8210   -1.6530    0.0690 o         1 SCK     -0.511000
      2 C12        -1.7950   -0.5730   -0.5170 c         1 SCK      0.636100
      3 O14        -2.9770   -0.1210   -1.0700 os        1 SCK     -0.457900
      4 C15        -4.0640   -1.0400   -1.1520 c3        1 SCK      0.116400
      5 C16        -4.9740   -0.9330    0.0710 c3        1 SCK      0.084800
      6 N17        -5.9160    0.2420    0.1020 n4        1 SCK     -0.601800
      7 C20        -6.9170    0.1420   -1.0020 c3        1 SCK      0.088433
      8 C19        -5.1650    1.5240   -0.0210 c3        1 SCK      0.088433
      9 C18        -6.6430    0.2230    1.4120 c3        1 SCK      0.088433
     10 C11        -0.6620    0.3830   -0.7090 c3        1 SCK     -0.129400
     11 C6          0.6610   -0.3610   -0.7240 c3        1 SCK     -0.129400
     12 C5          1.7950    0.5880   -0.4980 c         1 SCK      0.636100
     13 O7          1.8220    1.6460    0.1270 o         1 SCK     -0.511000
     14 O4          2.9760    0.1570   -1.0690 os        1 SCK     -0.457900
     15 C3          4.0630    1.0780   -1.1190 c3        1 SCK      0.116400
     16 C2          4.9750    0.9260    0.0980 c3        1 SCK      0.084800
     17 N1          5.9170   -0.2490    0.0860 n4        1 SCK     -0.601800
     18 C8          6.9160   -0.1090   -1.0160 c3        1 SCK      0.088433
     19 C9          6.6450   -0.2780    1.3940 c3        1 SCK      0.088433
     20 C10         5.1650   -1.5260   -0.0830 c3        1 SCK      0.088433
     21 H151       -3.6900   -2.1010   -1.2030 h1        1 SCK      0.106200
     22 H152       -4.5780   -0.7700   -2.1140 h1        1 SCK      0.106200
     23 H161       -4.3270   -0.8760    0.9940 hx        1 SCK      0.114200
     24 H162       -5.6060   -1.8670    0.1260 hx        1 SCK      0.114200
     25 H201       -6.3990    0.2350   -1.9930 hx        1 SCK      0.104478
     26 H202       -7.4460   -0.8460   -0.9410 hx        1 SCK      0.104478
     27 H203       -7.6650    0.9740   -0.8990 hx        1 SCK      0.104478
     28 H191       -5.8860    2.3830    0.0280 hx        1 SCK      0.104478
     29 H192       -4.4250    1.6000    0.8180 hx        1 SCK      0.104478
     30 H193       -4.6160    1.5430   -1.0020 hx        1 SCK      0.104478
     31 H181       -7.2170   -0.7370    1.5070 hx        1 SCK      0.104478
     32 H182       -5.9030    0.3060    2.2510 hx        1 SCK      0.104478
     33 H183       -7.3540    1.0910    1.4520 hx        1 SCK      0.104478
     34 H111       -0.8060    0.9540   -1.6660 hc        1 SCK      0.108700
     35 H112       -0.6830    1.1260    0.1370 hc        1 SCK      0.108700
     36 H61         0.6840   -1.1340    0.0950 hc        1 SCK      0.108700
     37 H62         0.8050   -0.8960   -1.7010 hc        1 SCK      0.108700
     38 H31         4.5760    0.8440   -2.0910 h1        1 SCK      0.106200
     39 H32         3.6890    2.1400   -1.1300 h1        1 SCK      0.106200
     40 H21         5.6070    1.8570    0.1870 hx        1 SCK      0.114200
     41 H22         4.3290    0.8360    1.0200 hx        1 SCK      0.114200
     42 H81         7.4450    0.8760   -0.9190 hx        1 SCK      0.104478
     43 H82         7.6650   -0.9440   -0.9440 hx        1 SCK      0.104478
     44 H83         6.3970   -0.1660   -2.0090 hx        1 SCK      0.104478
     45 H91         5.9070   -0.3920    2.2310 hx        1 SCK      0.104478
     46 H92         7.3570   -1.1470    1.4020 hx        1 SCK      0.104478
     47 H93         7.2200    0.6780    1.5230 hx        1 SCK      0.104478
     48 H101        4.6150   -1.5090   -1.0630 hx        1 SCK      0.104478
     49 H102        5.8860   -2.3860   -0.0660 hx        1 SCK      0.104478
     50 H103        4.4260   -1.6330    0.7540 hx        1 SCK      0.104478
@<TRIPOS>BOND
     1    1    2 2   
     2    2    3 1   
     3    2   10 1   
     4    3    4 1   
     5    4    5 1   
     6    4   21 1   
     7    4   22 1   
     8    5    6 1   
     9    5   23 1   
    10    5   24 1   
    11    6    7 1   
    12    6    8 1   
    13    6    9 1   
    14    7   25 1   
    15    7   26 1   
    16    7   27 1   
    17    8   28 1   
    18    8   29 1   
    19    8   30 1   
    20    9   31 1   
    21    9   32 1   
    22    9   33 1   
    23   10   11 1   
    24   10   34 1   
    25   10   35 1   
    26   11   12 1   
    27   11   36 1   
    28   11   37 1   
    29   12   13 2   
    30   12   14 1   
    31   14   15 1   
    32   15   16 1   
    33   15   38 1   
    34   15   39 1   
    35   16   17 1   
    36   16   40 1   
    37   16   41 1   
    38   17   18 1   
    39   17   19 1   
    40   17   20 1   
    41   18   42 1   
    42   18   43 1   
    43   18   44 1   
    44   19   45 1   
    45   19   46 1   
    46   19   47 1   
    47   20   48 1   
    48   20   49 1   
    49   20   50 1   
@<TRIPOS>SUBSTRUCTURE
     1 SCK         1 TEMP              0 ****  ****    0 ROOT
