@<TRIPOS>MOLECULE
SCK
   50    49     1     0     0
SMALL
bcc


@<TRIPOS>ATOM
      1 O13         0.1960    0.5940    0.2230 o         1 SCK     -0.511000
      2 C12         1.2520    1.1760   -0.0170 c         1 SCK      0.636100
      3 O14         1.9270    1.7340    1.0510 os        1 SCK     -0.457900
      4 C15         1.2390    1.8240    2.2970 c3        1 SCK      0.116400
      5 C16         1.5220    0.6060    3.1760 c3        1 SCK      0.084800
      6 N17         2.8580    0.5790    3.8690 n4        1 SCK     -0.601800
      7 C20         2.9570    1.6900    4.8620 c3        1 SCK      0.088433
      8 C19         3.9690    0.6950    2.8800 c3        1 SCK      0.088433
      9 C18         2.9820   -0.7260    4.5940 c3        1 SCK      0.088433
     10 C11         1.9690    1.3600   -1.3160 c3        1 SCK     -0.129400
     11 C6          0.9820    1.3710   -2.4690 c3        1 SCK     -0.129400
     12 C5          1.6900    1.1340   -3.7640 c         1 SCK      0.636100
     13 O7          2.7190    0.5030   -3.9930 o         1 SCK     -0.511000
     14 O4          1.0400    1.7020   -4.8410 os        1 SCK     -0.457900
     15 C3          1.7310    1.7410   -6.0880 c3        1 SCK      0.116400
     16 C2          1.3930    0.5220   -6.9470 c3        1 SCK      0.084800
     17 N1          0.0570    0.5430   -7.6410 n4        1 SCK     -0.601800
     18 C8          0.0080    1.6410   -8.6530 c3        1 SCK      0.088433
     19 C9         -0.1260   -0.7670   -8.3430 c3        1 SCK      0.088433
     20 C10        -1.0470    0.7260   -6.6540 c3        1 SCK      0.088433
     21 H151        0.1240    1.8730    2.1370 h1        1 SCK      0.106200
     22 H152        1.6030    2.7880    2.7420 h1        1 SCK      0.106200
     23 H161        1.4510   -0.3210    2.5350 hx        1 SCK      0.114200
     24 H162        0.7300    0.5560    3.9780 hx        1 SCK      0.114200
     25 H201        2.0910    1.6340    5.5750 hx        1 SCK      0.104478
     26 H202        3.9190    1.5900    5.4340 hx        1 SCK      0.104478
     27 H203        2.9470    2.6780    4.3300 hx        1 SCK      0.104478
     28 H191        4.9520    0.6490    3.4190 hx        1 SCK      0.104478
     29 H192        3.8800    1.6730    2.3330 hx        1 SCK      0.104478
     30 H193        3.8980   -0.1490    2.1450 hx        1 SCK      0.104478
     31 H181        2.9180   -1.5710    3.8580 hx        1 SCK      0.104478
     32 H182        3.9730   -0.7630    5.1220 hx        1 SCK      0.104478
     33 H183        2.1530   -0.8160    5.3460 hx        1 SCK      0.104478
     34 H111        2.7000    0.5110   -1.4350 hc        1 SCK      0.108700
     35 H112        2.5600    2.3140   -1.2900 hc        1 SCK      0.108700
     36 H61         0.4330    2.3500   -2.5110 hc        1 SCK      0.108700
     37 H62         0.2150    0.5560   -2.3350 hc        1 SCK      0.108700
     38 H31         1.4100    2.7130   -6.5500 h1        1 SCK      0.106200
     39 H32         2.8460    1.7430   -5.9290 h1        1 SCK      0.106200
     40 H21         2.1820    0.4230   -7.7480 hx        1 SCK      0.114200
     41 H22         1.4230   -0.3960   -6.2910 hx        1 SCK      0.114200
     42 H81         0.0620    2.6360   -8.1370 hx        1 SCK      0.104478
     43 H82        -0.9570    1.5740   -9.2240 hx        1 SCK      0.104478
     44 H83         0.8700    1.5340   -9.3640 hx        1 SCK      0.104478
     45 H91         0.6980   -0.9070   -9.0930 hx        1 SCK      0.104478
     46 H92        -0.0990   -1.6010   -7.5930 hx        1 SCK      0.104478
     47 H93        -1.1170   -0.7690   -8.8710 hx        1 SCK      0.104478
     48 H101       -1.0140   -0.1080   -5.9050 hx        1 SCK      0.104478
     49 H102       -0.9140    1.7080   -6.1230 hx        1 SCK      0.104478
     50 H103       -2.0320    0.7150   -7.1930 hx        1 SCK      0.104478
@<TRIPOS>BOND
     1    1    2 2   
     2    2    3 1   
     3    2   10 1   
     4    3    4 1   
     5    4    5 1   
     6    4   21 1   
     7    4   22 1   
     8    5    6 1   
     9    5   23 1   
    10    5   24 1   
    11    6    7 1   
    12    6    8 1   
    13    6    9 1   
    14    7   25 1   
    15    7   26 1   
    16    7   27 1   
    17    8   28 1   
    18    8   29 1   
    19    8   30 1   
    20    9   31 1   
    21    9   32 1   
    22    9   33 1   
    23   10   11 1   
    24   10   34 1   
    25   10   35 1   
    26   11   12 1   
    27   11   36 1   
    28   11   37 1   
    29   12   13 2   
    30   12   14 1   
    31   14   15 1   
    32   15   16 1   
    33   15   38 1   
    34   15   39 1   
    35   16   17 1   
    36   16   40 1   
    37   16   41 1   
    38   17   18 1   
    39   17   19 1   
    40   17   20 1   
    41   18   42 1   
    42   18   43 1   
    43   18   44 1   
    44   19   45 1   
    45   19   46 1   
    46   19   47 1   
    47   20   48 1   
    48   20   49 1   
    49   20   50 1   
@<TRIPOS>SUBSTRUCTURE
     1 SCK         1 TEMP              0 ****  ****    0 ROOT
