@<TRIPOS>MOLECULE
SCK
   50    49     1     0     0
SMALL
bcc


@<TRIPOS>ATOM
      1 O13         0.1940    0.5800    0.2190 o         1 SCK     -0.511000
      2 C12         1.2470    1.1690   -0.0160 c         1 SCK      0.636100
      3 O14         1.9160    1.7260    1.0550 os        1 SCK     -0.457900
      4 C15         1.2250    1.8070    2.3000 c3        1 SCK      0.116400
      5 C16         1.5120    0.5870    3.1740 c3        1 SCK      0.084800
      6 N17         2.8470    0.5630    3.8710 n4        1 SCK     -0.601800
      7 C20         2.9370    1.6690    4.8700 c3        1 SCK      0.088433
      8 C19         3.9590    0.6910    2.8850 c3        1 SCK      0.088433
      9 C18         2.9760   -0.7450    4.5890 c3        1 SCK      0.088433
     10 C11         1.9650    1.3620   -1.3130 c3        1 SCK     -0.129400
     11 C6          0.9800    1.3730   -2.4680 c3        1 SCK     -0.129400
     12 C5          1.6920    1.1460   -3.7630 c         1 SCK      0.636100
     13 O7          2.7260    0.5230   -3.9930 o         1 SCK     -0.511000
     14 O4          1.0400    1.7140   -4.8390 os        1 SCK     -0.457900
     15 C3          1.7320    1.7630   -6.0840 c3        1 SCK      0.116400
     16 C2          1.4070    0.5450   -6.9480 c3        1 SCK      0.084800
     17 N1          0.0730    0.5570   -7.6450 n4        1 SCK     -0.601800
     18 C8          0.0170    1.6570   -8.6540 c3        1 SCK      0.088433
     19 C9         -0.0980   -0.7530   -8.3510 c3        1 SCK      0.088433
     20 C10        -1.0360    0.7280   -6.6600 c3        1 SCK      0.088433
     21 H151        0.1110    1.8510    2.1380 h1        1 SCK      0.106200
     22 H152        1.5840    2.7710    2.7500 h1        1 SCK      0.106200
     23 H161        0.7180    0.5280    3.9750 hx        1 SCK      0.114200
     24 H162        1.4470   -0.3380    2.5290 hx        1 SCK      0.114200
     25 H201        3.8980    1.5720    5.4430 hx        1 SCK      0.104478
     26 H202        2.9230    2.6590    4.3430 hx        1 SCK      0.104478
     27 H203        2.0710    1.6040    5.5810 hx        1 SCK      0.104478
     28 H191        4.9420    0.6460    3.4260 hx        1 SCK      0.104478
     29 H192        3.8670    1.6700    2.3420 hx        1 SCK      0.104478
     30 H193        3.8940   -0.1500    2.1450 hx        1 SCK      0.104478
     31 H181        3.9660   -0.7800    5.1190 hx        1 SCK      0.104478
     32 H182        2.1460   -0.8440    5.3380 hx        1 SCK      0.104478
     33 H183        2.9190   -1.5860    3.8480 hx        1 SCK      0.104478
     34 H111        2.5500    2.3210   -1.2820 hc        1 SCK      0.108700
     35 H112        2.7010    0.5180   -1.4350 hc        1 SCK      0.108700
     36 H61         0.2180    0.5530   -2.3390 hc        1 SCK      0.108700
     37 H62         0.4250    2.3490   -2.5060 hc        1 SCK      0.108700
     38 H31         1.4030    2.7340   -6.5430 h1        1 SCK      0.106200
     39 H32         2.8480    1.7740   -5.9230 h1        1 SCK      0.106200
     40 H21         1.4430   -0.3760   -6.2950 hx        1 SCK      0.114200
     41 H22         2.1990    0.4550   -7.7470 hx        1 SCK      0.114200
     42 H81         0.8810    1.5580   -9.3630 hx        1 SCK      0.104478
     43 H82         0.0620    2.6510   -8.1350 hx        1 SCK      0.104478
     44 H83        -0.9470    1.5850   -9.2260 hx        1 SCK      0.104478
     45 H91        -0.0670   -1.5890   -7.6030 hx        1 SCK      0.104478
     46 H92        -1.0880   -0.7610   -8.8810 hx        1 SCK      0.104478
     47 H93         0.7290   -0.8830   -9.0990 hx        1 SCK      0.104478
     48 H101       -2.0190    0.7100   -7.2020 hx        1 SCK      0.104478
     49 H102       -0.9970   -0.1080   -5.9130 hx        1 SCK      0.104478
     50 H103       -0.9120    1.7090   -6.1260 hx        1 SCK      0.104478
@<TRIPOS>BOND
     1    1    2 2   
     2    2    3 1   
     3    2   10 1   
     4    3    4 1   
     5    4    5 1   
     6    4   21 1   
     7    4   22 1   
     8    5    6 1   
     9    5   23 1   
    10    5   24 1   
    11    6    7 1   
    12    6    8 1   
    13    6    9 1   
    14    7   25 1   
    15    7   26 1   
    16    7   27 1   
    17    8   28 1   
    18    8   29 1   
    19    8   30 1   
    20    9   31 1   
    21    9   32 1   
    22    9   33 1   
    23   10   11 1   
    24   10   34 1   
    25   10   35 1   
    26   11   12 1   
    27   11   36 1   
    28   11   37 1   
    29   12   13 2   
    30   12   14 1   
    31   14   15 1   
    32   15   16 1   
    33   15   38 1   
    34   15   39 1   
    35   16   17 1   
    36   16   40 1   
    37   16   41 1   
    38   17   18 1   
    39   17   19 1   
    40   17   20 1   
    41   18   42 1   
    42   18   43 1   
    43   18   44 1   
    44   19   45 1   
    45   19   46 1   
    46   19   47 1   
    47   20   48 1   
    48   20   49 1   
    49   20   50 1   
@<TRIPOS>SUBSTRUCTURE
     1 SCK         1 TEMP              0 ****  ****    0 ROOT
