@<TRIPOS>MOLECULE
SCK
   50    49     1     0     0
SMALL
bcc


@<TRIPOS>ATOM
      1 O13         0.2030    0.5520    0.2210 o         1 SCK     -0.511000
      2 C12         1.2460    1.1580   -0.0140 c         1 SCK      0.636100
      3 O14         1.9090    1.7210    1.0580 os        1 SCK     -0.457900
      4 C15         1.2190    1.7860    2.3040 c3        1 SCK      0.116400
      5 C16         1.5250    0.5660    3.1720 c3        1 SCK      0.084800
      6 N17         2.8610    0.5580    3.8670 n4        1 SCK     -0.601800
      7 C20         2.9380    1.6620    4.8700 c3        1 SCK      0.088433
      8 C19         3.9700    0.7060    2.8800 c3        1 SCK      0.088433
      9 C18         3.0110   -0.7510    4.5790 c3        1 SCK      0.088433
     10 C11         1.9580    1.3690   -1.3120 c3        1 SCK     -0.129400
     11 C6          0.9700    1.3680   -2.4640 c3        1 SCK     -0.129400
     12 C5          1.6830    1.1600   -3.7620 c         1 SCK      0.636100
     13 O7          2.7270    0.5550   -3.9970 o         1 SCK     -0.511000
     14 O4          1.0190    1.7220   -4.8340 os        1 SCK     -0.457900
     15 C3          1.7090    1.7890   -6.0800 c3        1 SCK      0.116400
     16 C2          1.4040    0.5690   -6.9490 c3        1 SCK      0.084800
     17 N1          0.0680    0.5600   -7.6430 n4        1 SCK     -0.601800
     18 C8         -0.0100    1.6630   -8.6460 c3        1 SCK      0.088433
     19 C9         -0.0790   -0.7490   -8.3570 c3        1 SCK      0.088433
     20 C10        -1.0410    0.7050   -6.6560 c3        1 SCK      0.088433
     21 H151        0.1040    1.8150    2.1450 h1        1 SCK      0.106200
     22 H152        1.5640    2.7530    2.7590 h1        1 SCK      0.106200
     23 H161        0.7340    0.4920    3.9740 hx        1 SCK      0.114200
     24 H162        1.4730   -0.3570    2.5230 hx        1 SCK      0.114200
     25 H201        3.9010    1.5760    5.4420 hx        1 SCK      0.104478
     26 H202        2.9090    2.6540    4.3480 hx        1 SCK      0.104478
     27 H203        2.0730    1.5810    5.5820 hx        1 SCK      0.104478
     28 H191        4.9540    0.6750    3.4190 hx        1 SCK      0.104478
     29 H192        3.8620    1.6870    2.3410 hx        1 SCK      0.104478
     30 H193        3.9170   -0.1320    2.1360 hx        1 SCK      0.104478
     31 H181        4.0020   -0.7730    5.1070 hx        1 SCK      0.104478
     32 H182        2.1840   -0.8640    5.3290 hx        1 SCK      0.104478
     33 H183        2.9640   -1.5890    3.8340 hx        1 SCK      0.104478
     34 H111        2.5280    2.3360   -1.2780 hc        1 SCK      0.108700
     35 H112        2.7070    0.5370   -1.4380 hc        1 SCK      0.108700
     36 H61         0.2230    0.5350   -2.3380 hc        1 SCK      0.108700
     37 H62         0.3990    2.3340   -2.4970 hc        1 SCK      0.108700
     38 H31         1.3610    2.7560   -6.5340 h1        1 SCK      0.106200
     39 H32         2.8240    1.8200   -5.9210 h1        1 SCK      0.106200
     40 H21         1.4580   -0.3540   -6.3010 hx        1 SCK      0.114200
     41 H22         2.1960    0.4970   -7.7510 hx        1 SCK      0.114200
     42 H81         0.8550    1.5850   -9.3580 hx        1 SCK      0.104478
     43 H82         0.0170    2.6550   -8.1230 hx        1 SCK      0.104478
     44 H83        -0.9730    1.5760   -9.2180 hx        1 SCK      0.104478
     45 H91        -0.0310   -1.5880   -7.6130 hx        1 SCK      0.104478
     46 H92        -1.0700   -0.7730   -8.8840 hx        1 SCK      0.104478
     47 H93         0.7480   -0.8610   -9.1070 hx        1 SCK      0.104478
     48 H101       -2.0250    0.6720   -7.1960 hx        1 SCK      0.104478
     49 H102       -0.9860   -0.1340   -5.9130 hx        1 SCK      0.104478
     50 H103       -0.9350    1.6850   -6.1170 hx        1 SCK      0.104478
@<TRIPOS>BOND
     1    1    2 2   
     2    2    3 1   
     3    2   10 1   
     4    3    4 1   
     5    4    5 1   
     6    4   21 1   
     7    4   22 1   
     8    5    6 1   
     9    5   23 1   
    10    5   24 1   
    11    6    7 1   
    12    6    8 1   
    13    6    9 1   
    14    7   25 1   
    15    7   26 1   
    16    7   27 1   
    17    8   28 1   
    18    8   29 1   
    19    8   30 1   
    20    9   31 1   
    21    9   32 1   
    22    9   33 1   
    23   10   11 1   
    24   10   34 1   
    25   10   35 1   
    26   11   12 1   
    27   11   36 1   
    28   11   37 1   
    29   12   13 2   
    30   12   14 1   
    31   14   15 1   
    32   15   16 1   
    33   15   38 1   
    34   15   39 1   
    35   16   17 1   
    36   16   40 1   
    37   16   41 1   
    38   17   18 1   
    39   17   19 1   
    40   17   20 1   
    41   18   42 1   
    42   18   43 1   
    43   18   44 1   
    44   19   45 1   
    45   19   46 1   
    46   19   47 1   
    47   20   48 1   
    48   20   49 1   
    49   20   50 1   
@<TRIPOS>SUBSTRUCTURE
     1 SCK         1 TEMP              0 ****  ****    0 ROOT
