@<TRIPOS>MOLECULE
SCL
   24    24     1     0     0
SMALL
bcc


@<TRIPOS>ATOM
      1 C1         -0.4510    0.3660    0.4330 ca        1 SCL     -0.238600
      2 C2          0.4410   -0.7240    0.5270 ca        1 SCL      0.184100
      3 C3          1.4900   -0.7110    1.4600 ca        1 SCL     -0.206000
      4 C4          1.6590    0.3880    2.2960 ca        1 SCL     -0.010000
      5 C5          0.7820    1.4770    2.2140 ca        1 SCL     -0.153000
      6 C6         -0.2610    1.4660    1.3010 ca        1 SCL     -0.017000
      7 C7         -1.6010    0.4600   -0.4580 c         1 SCL      0.592700
      8 C8         -3.6830   -0.6670   -2.8970 c         1 SCL      0.665100
      9 C9         -4.4150    0.0930   -3.9310 c3        1 SCL     -0.151100
     10 N1         -1.5880   -0.4800   -1.6760 n4        1 SCL     -0.439300
     11 O1          0.2520   -1.7930   -0.3160 oh        1 SCL     -0.557100
     12 O2         -2.5710    1.1960   -0.3810 o         1 SCL     -0.408100
     13 O3         -2.4170   -0.0310   -2.6500 os        1 SCL     -0.285400
     14 O4         -3.9020   -1.6750   -2.2490 o         1 SCL     -0.458000
     15 H3          2.1740   -1.5720    1.5270 ha        1 SCL      0.168000
     16 H4          2.4850    0.3990    3.0280 ha        1 SCL      0.173000
     17 H5          0.9190    2.3450    2.8810 ha        1 SCL      0.176000
     18 H6         -0.9600    2.3200    1.2430 ha        1 SCL      0.175000
     19 H91        -5.3430    0.5200   -3.4650 hc        1 SCL      0.115033
     20 H92        -3.7960    0.9270   -4.3490 hc        1 SCL      0.115033
     21 H93        -4.7050   -0.6100   -4.7550 hc        1 SCL      0.115033
     22 HN1        -1.8490   -1.4400   -1.3650 hn        1 SCL      0.484300
     23 HO1         0.8780   -2.4990   -0.0810 ho        1 SCL      0.475000
     24 H12        -0.6340   -0.5120   -2.0830 hn        1 SCL      0.484300
@<TRIPOS>BOND
     1    1    2 ar  
     2    1    6 ar  
     3    1    7 1   
     4    2    3 ar  
     5    2   11 1   
     6    3    4 ar  
     7    3   15 1   
     8    4    5 ar  
     9    4   16 1   
    10    5    6 ar  
    11    5   17 1   
    12    6   18 1   
    13    7   10 1   
    14    7   12 2   
    15    8    9 1   
    16    8   13 1   
    17    8   14 2   
    18    9   19 1   
    19    9   20 1   
    20    9   21 1   
    21   10   13 1   
    22   10   22 1   
    23   10   24 1   
    24   11   23 1   
@<TRIPOS>SUBSTRUCTURE
     1 SCL         1 TEMP              0 ****  ****    0 ROOT
