@<TRIPOS>MOLECULE
SCL
   24    24     1     0     0
SMALL
bcc


@<TRIPOS>ATOM
      1 C1         -0.4730   -0.4220    0.4500 ca        1 SCL     -0.238600
      2 C2          0.4590    0.6360    0.5180 ca        1 SCL      0.184100
      3 C3          1.5010    0.6130    1.4580 ca        1 SCL     -0.206000
      4 C4          1.6230   -0.4650    2.3280 ca        1 SCL     -0.010000
      5 C5          0.7080   -1.5230    2.2730 ca        1 SCL     -0.153000
      6 C6         -0.3290   -1.5020    1.3520 ca        1 SCL     -0.017000
      7 C7         -1.6200   -0.5010   -0.4460 c         1 SCL      0.592700
      8 C8         -3.6420    0.6260   -2.9360 c         1 SCL      0.665100
      9 C9         -4.3960   -0.1390   -3.9510 c3        1 SCL     -0.151100
     10 N1         -1.5640    0.4000   -1.6920 ny        1 SCL     -0.439300
     11 O1          0.3140    1.6850   -0.3590 oh        1 SCL     -0.557100
     12 O2         -2.6180   -1.1970   -0.3530 o         1 SCL     -0.407100
     13 O3         -2.4030   -0.0490   -2.6580 os        1 SCL     -0.285400
     14 O4         -3.8260    1.6620   -2.3220 o         1 SCL     -0.458000
     15 H3          2.2160    1.4500    1.5040 ha        1 SCL      0.168000
     16 H4          2.4440   -0.4840    3.0660 ha        1 SCL      0.173000
     17 H5          0.8080   -2.3740    2.9670 ha        1 SCL      0.176000
     18 H6         -1.0590   -2.3300    1.3160 ha        1 SCL      0.175000
     19 H91        -3.8070   -1.0090   -4.3360 hc        1 SCL      0.115033
     20 H92        -4.6510    0.5480   -4.7990 hc        1 SCL      0.115033
     21 H93        -5.3430   -0.5130   -3.4790 hc        1 SCL      0.115033
     22 HN1        -1.7900    1.3780   -1.4130 hn        1 SCL      0.484300
     23 HO1         0.9640    2.3750   -0.1400 ho        1 SCL      0.475000
     24 H12        -0.6070    0.3830   -2.0930 hn        1 SCL      0.484300
@<TRIPOS>BOND
     1    1    2 ar  
     2    1    6 ar  
     3    1    7 1   
     4    2    3 ar  
     5    2   11 1   
     6    3    4 ar  
     7    3   15 1   
     8    4    5 ar  
     9    4   16 1   
    10    5    6 ar  
    11    5   17 1   
    12    6   18 1   
    13    7   10 1   
    14    7   12 2   
    15    8    9 1   
    16    8   13 1   
    17    8   14 2   
    18    9   19 1   
    19    9   20 1   
    20    9   21 1   
    21   10   13 1   
    22   10   22 1   
    23   10   24 1   
    24   11   23 1   
@<TRIPOS>SUBSTRUCTURE
     1 SCL         1 TEMP              0 ****  ****    0 ROOT
