@<TRIPOS>MOLECULE
SCL
   23    23     1     0     0
SMALL
bcc


@<TRIPOS>ATOM
      1 C1          0.1720   -0.0400   -1.1420 ca        1 SCL     -0.236600
      2 C2         -0.6840   -0.0550   -2.2610 ca        1 SCL      0.201100
      3 C3         -0.1470   -0.0370   -3.5680 ca        1 SCL     -0.173000
      4 C4          1.2250    0.0210   -3.7460 ca        1 SCL     -0.067000
      5 C5          2.0810    0.0670   -2.6390 ca        1 SCL     -0.176000
      6 C6          1.5580    0.0350   -1.3530 ca        1 SCL     -0.059000
      7 C7         -0.3870   -0.0780    0.2280 c         1 SCL      0.626700
      8 C8          0.2020    0.1370    3.3280 c         1 SCL      0.611100
      9 C9         -0.5720    0.0530    4.5910 c3        1 SCL     -0.150100
     10 N1          0.2990   -0.9030    1.1810 n         1 SCL     -0.300400
     11 O1         -2.0480   -0.1060   -2.2030 oh        1 SCL     -0.496100
     12 O2         -1.4640    0.4680    0.5290 o         1 SCL     -0.570100
     13 O3         -0.1910   -0.8550    2.4180 os        1 SCL     -0.254200
     14 O4          1.1090    0.9000    3.0010 o         1 SCL     -0.529000
     15 H3         -0.8390   -0.0640   -4.4230 ha        1 SCL      0.158000
     16 H4          1.6450    0.0390   -4.7630 ha        1 SCL      0.140000
     17 H5          3.1680    0.1300   -2.7890 ha        1 SCL      0.141000
     18 H6          2.2490    0.0930   -0.4980 ha        1 SCL      0.134000
     19 H91         0.1100    0.2440    5.4550 hc        1 SCL      0.084700
     20 H92        -1.3710    0.8360    4.5690 hc        1 SCL      0.084700
     21 H93        -1.0500   -0.9510    4.6990 hc        1 SCL      0.084700
     22 HN1         1.3050   -0.7640    1.1590 hn        1 SCL      0.289500
     23 HO1        -2.3450   -0.0170   -1.2810 ho        1 SCL      0.455000
@<TRIPOS>BOND
     1    1    2 ar  
     2    1    6 ar  
     3    1    7 1   
     4    2    3 ar  
     5    2   11 1   
     6    3    4 ar  
     7    3   15 1   
     8    4    5 ar  
     9    4   16 1   
    10    5    6 ar  
    11    5   17 1   
    12    6   18 1   
    13    7   10 1   
    14    7   12 2   
    15    8    9 1   
    16    8   13 1   
    17    8   14 2   
    18    9   19 1   
    19    9   20 1   
    20    9   21 1   
    21   10   13 1   
    22   10   22 1   
    23   11   23 1   
@<TRIPOS>SUBSTRUCTURE
     1 SCL         1 TEMP              0 ****  ****    0 ROOT
