@<TRIPOS>MOLECULE
SCL
   24    24     1     0     0
SMALL
bcc


@<TRIPOS>ATOM
      1 C1         -0.4850   -0.3220    0.4900 ca        1 SCL     -0.238600
      2 C2          0.5830    0.5880    0.3430 ca        1 SCL      0.184100
      3 C3          1.6560    0.5850    1.2490 ca        1 SCL     -0.206000
      4 C4          1.6720   -0.3270    2.2990 ca        1 SCL     -0.010000
      5 C5          0.6200   -1.2360    2.4580 ca        1 SCL     -0.153000
      6 C6         -0.4460   -1.2330    1.5720 ca        1 SCL     -0.017000
      7 C7         -1.6730   -0.3960   -0.3510 c         1 SCL      0.592700
      8 C8         -3.6370    0.5440   -2.9630 c         1 SCL      0.665100
      9 C9         -4.5340   -0.2750   -3.8040 c3        1 SCL     -0.151100
     10 N1         -1.5530    0.2500   -1.7420 n4        1 SCL     -0.439300
     11 O1          0.5420    1.4740   -0.7080 oh        1 SCL     -0.557100
     12 O2         -2.7510   -0.9140   -0.1100 o         1 SCL     -0.407100
     13 O3         -2.4900   -0.2410   -2.5910 os        1 SCL     -0.285400
     14 O4         -3.6490    1.6890   -2.5470 o         1 SCL     -0.458000
     15 H3          2.4790    1.3070    1.1250 ha        1 SCL      0.168000
     16 H4          2.5160   -0.3300    3.0100 ha        1 SCL      0.173000
     17 H5          0.6360   -1.9560    3.2940 ha        1 SCL      0.176000
     18 H6         -1.2840   -1.9420    1.7040 ha        1 SCL      0.175000
     19 H91        -4.7320    0.2770   -4.7590 hc        1 SCL      0.115033
     20 H92        -5.5010   -0.4180   -3.2520 hc        1 SCL      0.115033
     21 H93        -4.0890   -1.2760   -4.0330 hc        1 SCL      0.115033
     22 HN1        -1.6310    1.2840   -1.6430 hn        1 SCL      0.484300
     23 HO1         1.2880    2.0920   -0.6330 ho        1 SCL      0.475000
     24 H12        -0.6270    0.0250   -2.1540 hn        1 SCL      0.484300
@<TRIPOS>BOND
     1    1    2 ar  
     2    1    6 ar  
     3    1    7 1   
     4    2    3 ar  
     5    2   11 1   
     6    3    4 ar  
     7    3   15 1   
     8    4    5 ar  
     9    4   16 1   
    10    5    6 ar  
    11    5   17 1   
    12    6   18 1   
    13    7   10 1   
    14    7   12 2   
    15    8    9 1   
    16    8   13 1   
    17    8   14 2   
    18    9   19 1   
    19    9   20 1   
    20    9   21 1   
    21   10   13 1   
    22   10   22 1   
    23   10   24 1   
    24   11   23 1   
@<TRIPOS>SUBSTRUCTURE
     1 SCL         1 TEMP              0 ****  ****    0 ROOT
