@<TRIPOS>MOLECULE
SCM
   49    51     1     0     0
SMALL
bcc


@<TRIPOS>ATOM
      1 O1          0.0420    0.2200   -0.1750 os        1 SCM     -0.440600
      2 C2          1.4790    0.1130   -0.1370 c3        1 SCM      0.154100
      3 C2M         1.8320   -1.1000   -0.9730 c3        1 SCM     -0.099100
      4 C3          1.9490   -0.0450    1.3050 c3        1 SCM     -0.207400
      5 C4          1.3640    0.9680    2.2280 c         1 SCM      0.567100
      6 O4          1.9370    1.4700    3.1910 o         1 SCM     -0.464100
      7 C5         -0.0900    1.4090    1.9520 c3        1 SCM      0.191600
      8 O5         -0.4140    2.6620    2.4730 oh        1 SCM     -0.592800
      9 C6         -0.4280    1.4010    0.4350 c3        1 SCM      0.338900
     10 O1B        -0.9190    0.5080    2.7150 os        1 SCM     -0.463600
     11 O2B        -1.8180    1.3560    0.1670 os        1 SCM     -0.376600
     12 C7         -2.3020    0.6300    2.3960 c3        1 SCM      0.095100
     13 C8         -3.0520   -0.4270    3.2340 c3        1 SCM      0.115500
     14 N8         -2.7800   -0.1870    4.6940 ny        1 SCM     -0.757000
     15 C8M        -3.0080   -1.3740    5.5470 c3        1 SCM      0.074100
     16 C9         -4.5710   -0.3900    2.9050 c3        1 SCM      0.113100
     17 O9         -5.0940    0.8600    3.3110 oh        1 SCM     -0.593800
     18 C10        -4.7890   -0.5530    1.3760 c3        1 SCM      0.104500
     19 N10        -6.2430   -0.4600    1.0010 ny        1 SCM     -0.757000
     20 C1M        -7.0100   -1.6960    1.2740 c3        1 SCM      0.074100
     21 C11        -3.9890    0.5090    0.5650 c3        1 SCM      0.142100
     22 O11        -4.2570    0.2330   -0.7930 oh        1 SCM     -0.620800
     23 C12        -2.5060    0.3490    0.9050 c3        1 SCM      0.089100
     24 H2          1.9220    1.0450   -0.5900 h1        1 SCM      0.073700
     25 H2M1        1.4690   -0.9590   -2.0200 hc        1 SCM      0.067033
     26 H2M2        1.3610   -2.0210   -0.5550 hc        1 SCM      0.067033
     27 H2M3        2.9420   -1.2260   -0.9840 hc        1 SCM      0.067033
     28 H31         3.0720    0.0180    1.3370 hc        1 SCM      0.111200
     29 H32         1.6560   -1.0610    1.6910 hc        1 SCM      0.111200
     30 HO5         0.2140    2.8860    3.1810 ho        1 SCM      0.458000
     31 H6         -0.0650    2.3430   -0.0680 h2        1 SCM      0.141700
     32 H7         -2.6540    1.6740    2.6460 h1        1 SCM      0.117700
     33 H8         -2.6480   -1.4550    2.9810 hx        1 SCM      0.132700
     34 HN8        -3.3620    0.6010    5.0110 hn        1 SCM      0.479300
     35 H8M1       -2.3240   -2.2080    5.2300 hx        1 SCM      0.115367
     36 H8M2       -4.0750   -1.7070    5.4650 hx        1 SCM      0.115367
     37 H8M3       -2.7820   -1.1020    6.6170 hx        1 SCM      0.115367
     38 H9         -5.0770   -1.2450    3.4370 h1        1 SCM      0.075700
     39 HO9        -5.7920    0.7120    3.9660 ho        1 SCM      0.446000
     40 H10        -4.4290   -1.5810    1.0660 hx        1 SCM      0.133700
     41 HN1        -6.6610    0.3390    1.4950 hn        1 SCM      0.480800
     42 H1M1       -6.9730   -1.9380    2.3690 hx        1 SCM      0.115700
     43 H1M2       -6.5800   -2.5500    0.6810 hx        1 SCM      0.115700
     44 H1M3       -8.0810   -1.5360    0.9620 hx        1 SCM      0.115700
     45 H11        -4.3350    1.5520    0.8220 h1        1 SCM      0.100700
     46 HO1        -3.5950    0.7010   -1.3320 ho        1 SCM      0.487000
     47 H12        -2.1130   -0.6620    0.6100 h1        1 SCM      0.106700
     48 H82        -1.7860    0.1010    4.7720 hn        1 SCM      0.479300
     49 H102       -6.2810   -0.2610   -0.0190 hn        1 SCM      0.480800
@<TRIPOS>BOND
     1    1    2 1   
     2    1    9 1   
     3    2    3 1   
     4    2    4 1   
     5    2   24 1   
     6    3   25 1   
     7    3   26 1   
     8    3   27 1   
     9    4    5 1   
    10    4   28 1   
    11    4   29 1   
    12    5    6 2   
    13    5    7 1   
    14    7    8 1   
    15    7    9 1   
    16    7   10 1   
    17    8   30 1   
    18    9   11 1   
    19    9   31 1   
    20   10   12 1   
    21   11   23 1   
    22   12   13 1   
    23   12   23 1   
    24   12   32 1   
    25   13   14 1   
    26   13   16 1   
    27   13   33 1   
    28   14   15 1   
    29   14   34 1   
    30   14   48 1   
    31   15   35 1   
    32   15   36 1   
    33   15   37 1   
    34   16   17 1   
    35   16   18 1   
    36   16   38 1   
    37   17   39 1   
    38   18   19 1   
    39   18   21 1   
    40   18   40 1   
    41   19   20 1   
    42   19   41 1   
    43   19   49 1   
    44   20   42 1   
    45   20   43 1   
    46   20   44 1   
    47   21   22 1   
    48   21   23 1   
    49   21   45 1   
    50   22   46 1   
    51   23   47 1   
@<TRIPOS>SUBSTRUCTURE
     1 SCM         1 TEMP              0 ****  ****    0 ROOT
