@<TRIPOS>MOLECULE
SCM
   49    51     1     0     0
SMALL
bcc


@<TRIPOS>ATOM
      1 O1          0.0430    0.2200   -0.1740 os        1 SCM     -0.440600
      2 C2          1.4800    0.1150   -0.1330 c3        1 SCM      0.154100
      3 C2M         1.8360   -1.1000   -0.9670 c3        1 SCM     -0.099100
      4 C3          1.9490   -0.0410    1.3090 c3        1 SCM     -0.207400
      5 C4          1.3620    0.9730    2.2300 c         1 SCM      0.567100
      6 O4          1.9330    1.4760    3.1930 o         1 SCM     -0.464100
      7 C5         -0.0930    1.4120    1.9510 c3        1 SCM      0.191600
      8 O5         -0.4180    2.6660    2.4700 oh        1 SCM     -0.592800
      9 C6         -0.4290    1.4010    0.4340 c3        1 SCM      0.338900
     10 O1B        -0.9210    0.5120    2.7150 os        1 SCM     -0.463600
     11 O2B        -1.8190    1.3540    0.1650 os        1 SCM     -0.376600
     12 C7         -2.3040    0.6320    2.3950 c3        1 SCM      0.095100
     13 C8         -3.0540   -0.4250    3.2340 c3        1 SCM      0.115500
     14 N8         -2.7840   -0.1820    4.6940 n4        1 SCM     -0.757000
     15 C8M        -3.0110   -1.3670    5.5490 c3        1 SCM      0.074100
     16 C9         -4.5720   -0.3900    2.9020 c3        1 SCM      0.113100
     17 O9         -5.0980    0.8600    3.3060 oh        1 SCM     -0.593800
     18 C10        -4.7880   -0.5560    1.3740 c3        1 SCM      0.104500
     19 N10        -6.2420   -0.4660    0.9970 n4        1 SCM     -0.757000
     20 C1M        -7.0080   -1.7020    1.2720 c3        1 SCM      0.074100
     21 C11        -3.9890    0.5050    0.5620 c3        1 SCM      0.142100
     22 O11        -4.2550    0.2260   -0.7960 oh        1 SCM     -0.620800
     23 C12        -2.5060    0.3480    0.9040 c3        1 SCM      0.089100
     24 H2          1.9230    1.0460   -0.5870 h1        1 SCM      0.073700
     25 H2M1        1.3650   -2.0210   -0.5480 hc        1 SCM      0.067033
     26 H2M2        2.9460   -1.2250   -0.9770 hc        1 SCM      0.067033
     27 H2M3        1.4750   -0.9600   -2.0150 hc        1 SCM      0.067033
     28 H31         1.6570   -1.0560    1.6970 hc        1 SCM      0.111200
     29 H32         3.0720    0.0230    1.3420 hc        1 SCM      0.111200
     30 HO5         0.2090    2.8910    3.1790 ho        1 SCM      0.458000
     31 H6         -0.0660    2.3420   -0.0700 h2        1 SCM      0.141700
     32 H7         -2.6570    1.6760    2.6420 h1        1 SCM      0.117700
     33 H8         -2.6490   -1.4530    2.9830 hx        1 SCM      0.132700
     34 HN8        -3.3670    0.6060    5.0080 hn        1 SCM      0.479300
     35 H8M1       -4.0780   -1.7020    5.4660 hx        1 SCM      0.115367
     36 H8M2       -2.7880   -1.0930    6.6190 hx        1 SCM      0.115367
     37 H8M3       -2.3260   -2.2010    5.2340 hx        1 SCM      0.115367
     38 H9         -5.0790   -1.2460    3.4360 h1        1 SCM      0.075700
     39 HO9        -5.7970    0.7120    3.9610 ho        1 SCM      0.446000
     40 H10        -4.4270   -1.5850    1.0660 hx        1 SCM      0.133700
     41 HN1        -6.2790   -0.2690   -0.0230 hn        1 SCM      0.480800
     42 H1M1       -6.9720   -1.9420    2.3670 hx        1 SCM      0.115700
     43 H1M2       -6.5760   -2.5570    0.6810 hx        1 SCM      0.115700
     44 H1M3       -8.0790   -1.5440    0.9580 hx        1 SCM      0.115700
     45 H11        -4.3370    1.5480    0.8170 h1        1 SCM      0.100700
     46 HO1        -3.5930    0.6940   -1.3350 ho        1 SCM      0.487000
     47 H12        -2.1110   -0.6640    0.6110 h1        1 SCM      0.106700
     48 H82        -1.7900    0.1070    4.7720 hn        1 SCM      0.479300
     49 H102       -6.6610    0.3340    1.4890 hn        1 SCM      0.480800
@<TRIPOS>BOND
     1    1    2 1   
     2    1    9 1   
     3    2    3 1   
     4    2    4 1   
     5    2   24 1   
     6    3   25 1   
     7    3   26 1   
     8    3   27 1   
     9    4    5 1   
    10    4   28 1   
    11    4   29 1   
    12    5    6 2   
    13    5    7 1   
    14    7    8 1   
    15    7    9 1   
    16    7   10 1   
    17    8   30 1   
    18    9   11 1   
    19    9   31 1   
    20   10   12 1   
    21   11   23 1   
    22   12   13 1   
    23   12   23 1   
    24   12   32 1   
    25   13   14 1   
    26   13   16 1   
    27   13   33 1   
    28   14   15 1   
    29   14   34 1   
    30   14   48 1   
    31   15   35 1   
    32   15   36 1   
    33   15   37 1   
    34   16   17 1   
    35   16   18 1   
    36   16   38 1   
    37   17   39 1   
    38   18   19 1   
    39   18   21 1   
    40   18   40 1   
    41   19   20 1   
    42   19   41 1   
    43   19   49 1   
    44   20   42 1   
    45   20   43 1   
    46   20   44 1   
    47   21   22 1   
    48   21   23 1   
    49   21   45 1   
    50   22   46 1   
    51   23   47 1   
@<TRIPOS>SUBSTRUCTURE
     1 SCM         1 TEMP              0 ****  ****    0 ROOT
