@<TRIPOS>MOLECULE
SCM
   49    51     1     0     0
SMALL
bcc


@<TRIPOS>ATOM
      1 O1          0.0410    0.2180   -0.1820 os        1 SCM     -0.440600
      2 C2          1.4780    0.1180   -0.1440 c3        1 SCM      0.154100
      3 C2M         1.8350   -1.0990   -0.9740 c3        1 SCM     -0.099100
      4 C3          1.9500   -0.0310    1.2980 c3        1 SCM     -0.207400
      5 C4          1.3620    0.9840    2.2160 c         1 SCM      0.567100
      6 O4          1.9330    1.4930    3.1770 o         1 SCM     -0.464100
      7 C5         -0.0950    1.4180    1.9390 c3        1 SCM      0.191600
      8 O5         -0.4240    2.6720    2.4540 oh        1 SCM     -0.592800
      9 C6         -0.4340    1.4000    0.4220 c3        1 SCM      0.338900
     10 O1B        -0.9190    0.5180    2.7070 os        1 SCM     -0.463600
     11 O2B        -1.8240    1.3490    0.1550 os        1 SCM     -0.376600
     12 C7         -2.3030    0.6330    2.3890 c3        1 SCM      0.095100
     13 C8         -3.0480   -0.4240    3.2330 c3        1 SCM      0.115500
     14 N8         -2.7760   -0.1750    4.6920 n4        1 SCM     -0.757000
     15 C8M        -2.9980   -1.3580    5.5510 c3        1 SCM      0.074100
     16 C9         -4.5670   -0.3940    2.9050 c3        1 SCM      0.113100
     17 O9         -5.0960    0.8560    3.3050 oh        1 SCM     -0.593800
     18 C10        -4.7860   -0.5660    1.3770 c3        1 SCM      0.104500
     19 N10        -6.2410   -0.4810    1.0030 n4        1 SCM     -0.757000
     20 C1M        -7.0020   -1.7180    1.2830 c3        1 SCM      0.074100
     21 C11        -3.9910    0.4950    0.5600 c3        1 SCM      0.142100
     22 O11        -4.2590    0.2110   -0.7970 oh        1 SCM     -0.620800
     23 C12        -2.5070    0.3430    0.9000 c3        1 SCM      0.089100
     24 H2          1.9170    1.0490   -0.6020 h1        1 SCM      0.073700
     25 H2M1        1.4710   -0.9650   -2.0220 hc        1 SCM      0.067033
     26 H2M2        1.3690   -2.0190   -0.5510 hc        1 SCM      0.067033
     27 H2M3        2.9460   -1.2200   -0.9860 hc        1 SCM      0.067033
     28 H31         1.6610   -1.0460    1.6900 hc        1 SCM      0.111200
     29 H32         3.0730    0.0360    1.3290 hc        1 SCM      0.111200
     30 HO5         0.2050    2.9020    3.1600 ho        1 SCM      0.458000
     31 H6         -0.0740    2.3410   -0.0850 h2        1 SCM      0.141700
     32 H7         -2.6590    1.6760    2.6340 h1        1 SCM      0.117700
     33 H8         -2.6400   -1.4510    2.9850 hx        1 SCM      0.132700
     34 HN8        -1.7820    0.1170    4.7670 hn        1 SCM      0.479300
     35 H8M1       -2.3110   -2.1920    5.2380 hx        1 SCM      0.115367
     36 H8M2       -2.7730   -1.0800    6.6200 hx        1 SCM      0.115367
     37 H8M3       -4.0640   -1.6960    5.4720 hx        1 SCM      0.115367
     38 H9         -5.0700   -1.2490    3.4420 h1        1 SCM      0.075700
     39 HO9        -5.7920    0.7080    3.9620 ho        1 SCM      0.446000
     40 H10        -4.4220   -1.5940    1.0720 hx        1 SCM      0.133700
     41 HN1        -6.6610    0.3190    1.4940 hn        1 SCM      0.480800
     42 H1M1       -6.5690   -2.5740    0.6940 hx        1 SCM      0.115700
     43 H1M2       -8.0740   -1.5650    0.9710 hx        1 SCM      0.115700
     44 H1M3       -6.9640   -1.9550    2.3790 hx        1 SCM      0.115700
     45 H11        -4.3410    1.5380    0.8120 h1        1 SCM      0.100700
     46 HO1        -3.5990    0.6780   -1.3390 ho        1 SCM      0.487000
     47 H12        -2.1100   -0.6690    0.6090 h1        1 SCM      0.106700
     48 H82        -3.3600    0.6120    5.0050 hn        1 SCM      0.479300
     49 H102       -6.2800   -0.2870   -0.0180 hn        1 SCM      0.480800
@<TRIPOS>BOND
     1    1    2 1   
     2    1    9 1   
     3    2    3 1   
     4    2    4 1   
     5    2   24 1   
     6    3   25 1   
     7    3   26 1   
     8    3   27 1   
     9    4    5 1   
    10    4   28 1   
    11    4   29 1   
    12    5    6 2   
    13    5    7 1   
    14    7    8 1   
    15    7    9 1   
    16    7   10 1   
    17    8   30 1   
    18    9   11 1   
    19    9   31 1   
    20   10   12 1   
    21   11   23 1   
    22   12   13 1   
    23   12   23 1   
    24   12   32 1   
    25   13   14 1   
    26   13   16 1   
    27   13   33 1   
    28   14   15 1   
    29   14   34 1   
    30   14   48 1   
    31   15   35 1   
    32   15   36 1   
    33   15   37 1   
    34   16   17 1   
    35   16   18 1   
    36   16   38 1   
    37   17   39 1   
    38   18   19 1   
    39   18   21 1   
    40   18   40 1   
    41   19   20 1   
    42   19   41 1   
    43   19   49 1   
    44   20   42 1   
    45   20   43 1   
    46   20   44 1   
    47   21   22 1   
    48   21   23 1   
    49   21   45 1   
    50   22   46 1   
    51   23   47 1   
@<TRIPOS>SUBSTRUCTURE
     1 SCM         1 TEMP              0 ****  ****    0 ROOT
