@<TRIPOS>MOLECULE
SCM
   47    49     1     0     0
SMALL
bcc


@<TRIPOS>ATOM
      1 O1          2.1060    1.5810   -0.4060 os        1 SCM     -0.432600
      2 C2          3.4250    1.2900   -0.8770 c3        1 SCM      0.154100
      3 C2M         3.6720    2.2200   -2.0490 c3        1 SCM     -0.094100
      4 C3          3.5240   -0.1720   -1.3010 c3        1 SCM     -0.211400
      5 C4          3.1020   -1.0850   -0.1980 c         1 SCM      0.567100
      6 O4          3.6940   -2.1170    0.1170 o         1 SCM     -0.501100
      7 C5          1.8350   -0.6680    0.5670 c3        1 SCM      0.195600
      8 O5          1.7800   -1.2520    1.8440 oh        1 SCM     -0.596800
      9 C6          1.7590    0.8700    0.7720 c3        1 SCM      0.341900
     10 O1B         0.7440   -1.2200   -0.1550 os        1 SCM     -0.431600
     11 O2B         0.4600    1.3440    1.0300 os        1 SCM     -0.396600
     12 C7         -0.5300   -0.7280    0.2810 c3        1 SCM      0.083100
     13 C8         -1.6270   -1.3410   -0.6230 c3        1 SCM      0.200500
     14 N8         -1.6980   -2.7860   -0.6660 n3        1 SCM     -0.823200
     15 C8M        -0.6280   -3.4480   -1.3610 c3        1 SCM      0.159100
     16 C9         -2.9850   -0.7580   -0.1350 c3        1 SCM      0.148100
     17 O9         -3.1500   -1.1560    1.2160 oh        1 SCM     -0.606800
     18 C10        -2.9960    0.7870   -0.2860 c3        1 SCM      0.142500
     19 N10        -4.3110    1.3270    0.0490 n3        1 SCM     -0.829200
     20 C1M        -5.2000    1.4330   -1.0790 c3        1 SCM      0.149100
     21 C11        -1.8760    1.3820    0.6030 c3        1 SCM      0.146100
     22 O11        -1.8930    2.7880    0.4250 oh        1 SCM     -0.608800
     23 C12        -0.5340    0.7960    0.1500 c3        1 SCM      0.077100
     24 H2          4.1630    1.4970   -0.0500 h1        1 SCM      0.047700
     25 H2M1        3.5880    3.2820   -1.7140 hc        1 SCM      0.053033
     26 H2M2        4.6950    2.0390   -2.4550 hc        1 SCM      0.053033
     27 H2M3        2.9190    2.0430   -2.8530 hc        1 SCM      0.053033
     28 H31         2.8380   -0.3590   -2.1720 hc        1 SCM      0.092700
     29 H32         4.5720   -0.4040   -1.6230 hc        1 SCM      0.092700
     30 HO5         1.9520   -2.2000    1.7390 ho        1 SCM      0.436000
     31 H6          2.3840    1.1850    1.6540 h2        1 SCM      0.103700
     32 H7         -0.6870   -1.0290    1.3550 h1        1 SCM      0.093700
     33 H8         -1.4540   -0.9760   -1.6770 h1        1 SCM      0.067700
     34 HN8        -1.8230   -3.1540    0.2590 hn        1 SCM      0.378800
     35 H8M1       -0.5440   -3.0330   -2.4000 h1        1 SCM      0.034033
     36 H8M2        0.3760   -3.3440   -0.8630 h1        1 SCM      0.034033
     37 H8M3       -0.8830   -4.5390   -1.4270 h1        1 SCM      0.034033
     38 H9         -3.8170   -1.1910   -0.7610 h1        1 SCM      0.061700
     39 HO9        -4.0090   -0.8210    1.5050 ho        1 SCM      0.423000
     40 H10        -2.7280    1.0190   -1.3620 h1        1 SCM      0.047700
     41 HN1        -4.2070    2.2170    0.5010 hn        1 SCM      0.383800
     42 H1M1       -4.8220    2.1090   -1.8950 h1        1 SCM      0.032700
     43 H1M2       -5.3630    0.4130   -1.5180 h1        1 SCM      0.032700
     44 H1M3       -6.1840    1.8300   -0.7140 h1        1 SCM      0.032700
     45 H11        -2.0560    1.1300    1.6860 h1        1 SCM      0.073700
     46 HO1        -1.1170    3.1350    0.8850 ho        1 SCM      0.426000
     47 H12        -0.2950    1.1130   -0.9020 h1        1 SCM      0.080700
@<TRIPOS>BOND
     1    1    2 1   
     2    1    9 1   
     3    2    3 1   
     4    2    4 1   
     5    2   24 1   
     6    3   25 1   
     7    3   26 1   
     8    3   27 1   
     9    4    5 1   
    10    4   28 1   
    11    4   29 1   
    12    5    6 2   
    13    5    7 1   
    14    7    8 1   
    15    7    9 1   
    16    7   10 1   
    17    8   30 1   
    18    9   11 1   
    19    9   31 1   
    20   10   12 1   
    21   11   23 1   
    22   12   13 1   
    23   12   23 1   
    24   12   32 1   
    25   13   14 1   
    26   13   16 1   
    27   13   33 1   
    28   14   15 1   
    29   14   34 1   
    30   15   35 1   
    31   15   36 1   
    32   15   37 1   
    33   16   17 1   
    34   16   18 1   
    35   16   38 1   
    36   17   39 1   
    37   18   19 1   
    38   18   21 1   
    39   18   40 1   
    40   19   20 1   
    41   19   41 1   
    42   20   42 1   
    43   20   43 1   
    44   20   44 1   
    45   21   22 1   
    46   21   23 1   
    47   21   45 1   
    48   22   46 1   
    49   23   47 1   
@<TRIPOS>SUBSTRUCTURE
     1 SCM         1 TEMP              0 ****  ****    0 ROOT
