@<TRIPOS>MOLECULE
SCN
    3     2     1     0     0
SMALL
bcc


@<TRIPOS>ATOM
      1 S          -0.9420    0.0000    0.0000 s         1 SCN     -0.845100
      2 C           0.6320   -0.0000   -0.0000 c1        1 SCN      0.492900
      3 N           1.8110   -0.0000   -0.0000 n1        1 SCN     -0.647800
@<TRIPOS>BOND
     1    1    2 1   
     2    2    3 3   
@<TRIPOS>SUBSTRUCTURE
     1 SCN         1 TEMP              0 ****  ****    0 ROOT
