@<TRIPOS>MOLECULE
SCP
   36    37     1     0     0
SMALL
bcc


@<TRIPOS>ATOM
      1 N1          3.7490    0.0860    1.1160 nb        1 SCP     -0.683000
      2 C2          4.0780   -0.0520   -0.1940 ca        1 SCP      0.330600
      3 C2A         5.4980    0.1110   -0.6240 c3        1 SCP     -0.116400
      4 C3          3.0970   -0.3540   -1.1690 ca        1 SCP     -0.004200
      5 O3          3.5230   -0.4360   -2.4820 oh        1 SCP     -0.535100
      6 C4          1.7560   -0.5750   -0.7900 ca        1 SCP     -0.119300
      7 C4A         0.7200   -0.9410   -1.8160 c3        1 SCP      0.201100
      8 C5          1.4230   -0.4200    0.5590 ca        1 SCP     -0.118600
      9 C6          2.4640   -0.0730    1.4570 ca        1 SCP      0.379200
     10 C5A         0.0310   -0.6150    1.1210 c3        1 SCP      0.263700
     11 O4P        -0.3290    0.4060    1.9610 os        1 SCP     -0.555200
     12 P          -1.6790    1.3340    1.3930 p5        1 SCP      1.340900
     13 O1P        -2.7790    0.2950    1.3650 o         1 SCP     -0.916500
     14 O2P        -1.7640    2.4430    2.3860 o         1 SCP     -0.916500
     15 O3P        -1.2370    1.6320   -0.0200 o         1 SCP     -0.916500
     16 N          -0.0620    0.2000   -2.2590 n3        1 SCP     -0.835200
     17 CA         -1.4160   -0.0960   -2.6730 c3        1 SCP      0.081500
     18 C          -2.2670   -1.0320   -1.7570 c         1 SCP      0.627500
     19 O          -2.0210   -2.2320   -1.5590 o         1 SCP     -0.646500
     20 ND         -3.4350   -0.3400   -1.3120 n         1 SCP     -0.346400
     21 OG         -3.5700    0.7730   -2.0630 os        1 SCP     -0.292900
     22 CB         -2.3150    1.1660   -2.7000 c3        1 SCP      0.088400
     23 H2A1        5.9820   -0.8930   -0.7050 hc        1 SCP      0.029033
     24 H2A2        5.5270    0.5970   -1.6300 hc        1 SCP      0.029033
     25 H2A3        6.0840    0.7320    0.0960 hc        1 SCP      0.029033
     26 HO3         2.7750   -0.1630   -3.0360 ho        1 SCP      0.426000
     27 H4A1        1.2210   -1.3770   -2.7310 h1        1 SCP      0.037200
     28 H4A2        0.0960   -1.7780   -1.3810 h1        1 SCP      0.037200
     29 H6          2.2010    0.1100    2.5170 h4        1 SCP      0.042100
     30 H5A1       -0.7210   -0.7330    0.2870 h1        1 SCP      0.011200
     31 H5A2        0.0750   -1.5890    1.7000 h1        1 SCP      0.011200
     32 HN         -0.0910    0.9110   -1.5260 hn        1 SCP      0.459800
     33 HA         -1.3670   -0.5770   -3.6900 h1        1 SCP      0.031700
     34 HND        -3.3220   -0.0700   -0.2810 hn        1 SCP      0.402500
     35 HB1        -1.8950    2.0140   -2.0940 h1        1 SCP      0.073200
     36 HB2        -2.5910    1.4660   -3.7370 h1        1 SCP      0.073200
@<TRIPOS>BOND
     1    1    2 ar  
     2    1    9 ar  
     3    2    3 1   
     4    2    4 ar  
     5    3   23 1   
     6    3   24 1   
     7    3   25 1   
     8    4    5 1   
     9    4    6 ar  
    10    5   26 1   
    11    6    7 1   
    12    6    8 ar  
    13    7   16 1   
    14    7   27 1   
    15    7   28 1   
    16    8    9 ar  
    17    8   10 1   
    18    9   29 1   
    19   10   11 1   
    20   10   30 1   
    21   10   31 1   
    22   11   12 1   
    23   12   13 1   
    24   12   14 1   
    25   12   15 1   
    26   16   17 1   
    27   16   32 1   
    28   17   18 1   
    29   17   22 1   
    30   17   33 1   
    31   18   19 2   
    32   18   20 1   
    33   20   21 1   
    34   20   34 1   
    35   21   22 1   
    36   22   35 1   
    37   22   36 1   
@<TRIPOS>SUBSTRUCTURE
     1 SCP         1 TEMP              0 ****  ****    0 ROOT
