@<TRIPOS>MOLECULE
SCP
   37    38     1     0     0
SMALL
bcc


@<TRIPOS>ATOM
      1 N1         -0.0270    0.5480    0.0150 nb        1 SCP     -0.656000
      2 C2          1.3100    0.4560   -0.1840 ca        1 SCP      0.327600
      3 C2A         1.8600    0.5840   -1.5660 c3        1 SCP     -0.144400
      4 C3          2.2040    0.2240    0.8930 ca        1 SCP     -0.004200
      5 O3          3.5710    0.1820    0.7060 oh        1 SCP     -0.503100
      6 C4          1.7140    0.0890    2.2090 ca        1 SCP     -0.057300
      7 C4A         2.6660   -0.1390    3.3480 c3        1 SCP      0.207100
      8 C5          0.3320    0.2030    2.4010 ca        1 SCP     -0.151600
      9 C6         -0.4850    0.4260    1.2690 ca        1 SCP      0.381200
     10 C5A        -0.3080    0.1280    3.7580 c3        1 SCP      0.201700
     11 O4P        -0.4280   -1.1990    4.1650 os        1 SCP     -0.584200
     12 P          -1.8200   -1.6370    4.9600 p5        1 SCP      1.429800
     13 O1P        -1.9250   -3.0980    4.8560 o         1 SCP     -0.822500
     14 O2P        -1.2760   -1.1910    6.4440 oh        1 SCP     -0.796400
     15 O3P        -2.8430   -0.6130    4.6660 o         1 SCP     -0.822500
     16 N           2.5070   -1.4380    3.9810 n7        1 SCP     -0.815200
     17 CA          2.8830   -1.4790    5.3720 c3        1 SCP      0.085500
     18 C           2.0610   -0.5970    6.3550 c         1 SCP      0.611500
     19 O           1.9270    0.6290    6.2910 o         1 SCP     -0.592500
     20 ND          1.5790   -1.4060    7.4380 ns        1 SCP     -0.327400
     21 OG          1.9940   -2.6800    7.2670 os        1 SCP     -0.272900
     22 CB          2.7000   -2.8770    6.0050 c3        1 SCP      0.100400
     23 H2A1        2.6790    1.3450   -1.5750 hc        1 SCP      0.043700
     24 H2A2        1.0780    0.8960   -2.3000 hc        1 SCP      0.043700
     25 H2A3        2.2780   -0.4000   -1.8970 hc        1 SCP      0.043700
     26 HO3         3.7290   -0.1990   -0.1700 ho        1 SCP      0.411000
     27 H4A1        3.7280   -0.0960    2.9660 h1        1 SCP      0.059700
     28 H4A2        2.5340    0.7160    4.0780 h1        1 SCP      0.059700
     29 H6         -1.5830    0.5030    1.3900 h4        1 SCP      0.038100
     30 H5A1        0.3550    0.6810    4.4910 h1        1 SCP      0.055700
     31 H5A2       -1.3250    0.6180    3.7350 h1        1 SCP      0.055700
     32 HN         -1.6620   -0.3710    6.7320 ho        1 SCP      0.431000
     33 HA          3.9580   -1.1510    5.4520 h1        1 SCP      0.075700
     34 HND         0.5580   -1.3910    7.5100 hn        1 SCP      0.333500
     35 HB1         3.6770   -3.3440    6.2760 h1        1 SCP      0.067700
     36 HB2         2.0780   -3.5750    5.3930 h1        1 SCP      0.067700
     37 H2          1.5760   -1.8020    3.8490 hn        1 SCP      0.419800
@<TRIPOS>BOND
     1    1    2 ar  
     2    1    9 ar  
     3    2    3 1   
     4    2    4 ar  
     5    3   23 1   
     6    3   24 1   
     7    3   25 1   
     8    4    5 1   
     9    4    6 ar  
    10    5   26 1   
    11    6    7 1   
    12    6    8 ar  
    13    7   16 1   
    14    7   27 1   
    15    7   28 1   
    16    8    9 ar  
    17    8   10 1   
    18    9   29 1   
    19   10   11 1   
    20   10   30 1   
    21   10   31 1   
    22   11   12 1   
    23   12   13 1   
    24   12   14 1   
    25   12   15 1   
    26   14   32 1   
    27   16   17 1   
    28   16   37 1   
    29   17   18 1   
    30   17   22 1   
    31   17   33 1   
    32   18   19 2   
    33   18   20 1   
    34   20   21 1   
    35   20   34 1   
    36   21   22 1   
    37   22   35 1   
    38   22   36 1   
@<TRIPOS>SUBSTRUCTURE
     1 SCP         1 TEMP              0 ****  ****    0 ROOT
