@<TRIPOS>MOLECULE
SCP
   37    38     1     0     0
SMALL
bcc


@<TRIPOS>ATOM
      1 N1         -0.0170    0.6040    0.0300 nb        1 SCP     -0.656000
      2 C2          1.3160    0.4750   -0.1780 ca        1 SCP      0.327600
      3 C2A         1.8600    0.5970   -1.5630 c3        1 SCP     -0.144400
      4 C3          2.2100    0.2110    0.8910 ca        1 SCP     -0.004200
      5 O3          3.5740    0.1320    0.6940 oh        1 SCP     -0.503100
      6 C4          1.7260    0.0810    2.2090 ca        1 SCP     -0.057300
      7 C4A         2.6780   -0.1810    3.3400 c3        1 SCP      0.207100
      8 C5          0.3490    0.2330    2.4120 ca        1 SCP     -0.151600
      9 C6         -0.4690    0.4860    1.2860 ca        1 SCP      0.381200
     10 C5A        -0.2840    0.1670    3.7720 c3        1 SCP      0.201700
     11 O4P        -0.4390   -1.1580    4.1720 os        1 SCP     -0.584200
     12 P          -1.8370   -1.5620    4.9740 p5        1 SCP      1.429800
     13 O1P        -1.9840   -3.0180    4.8620 o         1 SCP     -0.822500
     14 O2P        -1.2710   -1.1400    6.4560 oh        1 SCP     -0.796400
     15 O3P        -2.8330   -0.5070    4.6930 o         1 SCP     -0.822500
     16 N           2.4870   -1.4780    3.9670 n3        1 SCP     -0.815200
     17 CA          2.8700   -1.5390    5.3550 c3        1 SCP      0.085500
     18 C           2.0800   -0.6400    6.3490 c         1 SCP      0.611500
     19 O           1.9810    0.5890    6.2930 o         1 SCP     -0.592500
     20 ND          1.5830   -1.4420    7.4300 n         1 SCP     -0.327400
     21 OG          1.9600   -2.7260    7.2480 os        1 SCP     -0.272900
     22 CB          2.6520   -2.9350    5.9800 c3        1 SCP      0.100400
     23 H2A1        2.2480   -0.3960   -1.9030 hc        1 SCP      0.043700
     24 H2A2        2.7000    1.3350   -1.5720 hc        1 SCP      0.043700
     25 H2A3        1.0820    0.9360   -2.2900 hc        1 SCP      0.043700
     26 HO3         3.7160   -0.2480   -0.1850 ho        1 SCP      0.411000
     27 H4A1        3.7380   -0.1660    2.9520 h1        1 SCP      0.059700
     28 H4A2        2.5750    0.6730    4.0770 h1        1 SCP      0.059700
     29 H6         -1.5640    0.5930    1.4150 h4        1 SCP      0.038100
     30 H5A1       -1.2870    0.6860    3.7590 h1        1 SCP      0.055700
     31 H5A2        0.3990    0.6970    4.5040 h1        1 SCP      0.055700
     32 HN          1.5440   -1.8150    3.8390 hn        1 SCP      0.419800
     33 HA          3.9550   -1.2420    5.4300 h1        1 SCP      0.075700
     34 HND         0.5630   -1.3990    7.5100 hn        1 SCP      0.333500
     35 HB1         3.6170   -3.4310    6.2420 h1        1 SCP      0.067700
     36 HB2         2.0060   -3.6120    5.3680 h1        1 SCP      0.067700
     37 H2         -1.6320   -0.3120    6.7530 ho        1 SCP      0.431000
@<TRIPOS>BOND
     1    1    2 ar  
     2    1    9 ar  
     3    2    3 1   
     4    2    4 ar  
     5    3   23 1   
     6    3   24 1   
     7    3   25 1   
     8    4    5 1   
     9    4    6 ar  
    10    5   26 1   
    11    6    7 1   
    12    6    8 ar  
    13    7   16 1   
    14    7   27 1   
    15    7   28 1   
    16    8    9 ar  
    17    8   10 1   
    18    9   29 1   
    19   10   11 1   
    20   10   30 1   
    21   10   31 1   
    22   11   12 1   
    23   12   13 1   
    24   12   14 1   
    25   12   15 1   
    26   14   37 1   
    27   16   17 1   
    28   16   32 1   
    29   17   18 1   
    30   17   22 1   
    31   17   33 1   
    32   18   19 2   
    33   18   20 1   
    34   20   21 1   
    35   20   34 1   
    36   21   22 1   
    37   22   35 1   
    38   22   36 1   
@<TRIPOS>SUBSTRUCTURE
     1 SCP         1 TEMP              0 ****  ****    0 ROOT
