@<TRIPOS>MOLECULE
SCQ
   38    27     1     0     0
SMALL
bcc


@<TRIPOS>ATOM
      1 C01        -3.1990   -0.3910   -1.3180 c1        1 SCQ     -0.323000
      2 C02        -1.8160   -0.3010   -1.2640 c1        1 SCQ      0.020000
      3 N03        -1.4660   -0.1070    0.0120 n1        1 SCQ     -0.058000
      4 N04        -2.6180   -0.0730    0.7720 n1        1 SCQ     -0.129000
      5 C05        -3.6750   -0.2480   -0.0550 c1        1 SCQ     -0.090000
      6 C06        -0.8320   -0.4110   -2.2520 c1        1 SCQ     -0.106000
      7 C07         0.4740   -0.3210   -1.9150 c1        1 SCQ     -0.028500
      8 C08         0.8260   -0.1220   -0.6050 c1        1 SCQ     -0.122500
      9 C09        -0.1450   -0.0160    0.3560 c1        1 SCQ      0.096000
     10 N10        -0.3280   -0.1350    1.7460 n2        1 SCQ     -0.247000
     11 C11         1.3220   -0.1570   -3.0630 c1        1 SCQ     -0.028500
     12 C12        -0.0150    0.9940    2.6230 c3        1 SCQ     -0.023000
     13 C13        -0.2330    0.5790    4.1020 c1        1 SCQ     -0.202000
     14 C14        -1.4670    0.2650    4.5380 c1        1 SCQ     -0.030500
     15 N15        -1.6540   -0.1130    5.8300 n1        1 SCQ     -0.164500
     16 C16        -0.5930   -0.1740    6.6830 c1        1 SCQ     -0.030500
     17 N17         0.6510    0.1430    6.2410 n1        1 SCQ     -0.164500
     18 C18         0.8370    0.5170    4.9630 c1        1 SCQ     -0.022000
     19 C19         1.4150   -1.2550   -3.9340 c1        1 SCQ     -0.122500
     20 C20         2.2560   -1.1970   -5.0340 c1        1 SCQ     -0.122500
     21 C21         3.0100   -0.0490   -5.2760 c1        1 SCQ     -0.122500
     22 C22         2.9190    1.0500   -4.4080 c1        1 SCQ     -0.122500
     23 C23         2.0820    0.9970   -3.3100 c1        1 SCQ     -0.122500
     24 BR24       -4.5650   -0.6900   -2.6440 br        1 SCQ      0.113000
     25 H05        -4.6170   -0.3560    0.2260 DU        1 SCQ      0.192000
     26 H06        -1.0800   -0.5480   -3.1530 ha        1 SCQ      0.167000
     27 H08         1.7290   -0.0580   -0.3660 ha        1 SCQ      0.153500
     28 HN10       -0.5710   -0.9510    2.1120 hn        1 SCQ      0.193000
     29 H121       -0.5750    1.7120    2.4180 h1        1 SCQ      0.099500
     30 H122        0.8680    1.2470    2.5000 h1        1 SCQ      0.099500
     31 H14        -2.2190    0.3100    3.9330 ha        1 SCQ      0.189000
     32 H16        -0.7310   -0.4540    7.6410 ha        1 SCQ      0.189000
     33 H18         1.7420    0.7470    4.6430 ha        1 SCQ      0.169000
     34 H19         0.8760   -2.0740   -3.7630 ha        1 SCQ      0.136250
     35 H20         2.3240   -1.9830   -5.6580 ha        1 SCQ      0.136250
     36 H21         3.5840   -0.0110   -6.0280 ha        1 SCQ      0.136250
     37 H22         3.4640    1.8770   -4.5860 ha        1 SCQ      0.136250
     38 H23         2.0210    1.7560   -2.7110 ha        1 SCQ      0.153500
@<TRIPOS>BOND
     1    1    2 1   
     2    1    5 1   
     3    2    6 1   
     4    3    9 1   
     5    4    5 1   
     6    6   26 1   
     7    7    8 1   
     8    8   27 1   
     9   10   12 1   
    10   10   28 1   
    11   11   23 1   
    12   12   13 1   
    13   12   29 1   
    14   12   30 1   
    15   13   18 1   
    16   14   15 1   
    17   14   31 1   
    18   16   17 1   
    19   16   32 1   
    20   18   33 1   
    21   19   20 1   
    22   19   34 1   
    23   20   35 1   
    24   21   22 1   
    25   21   36 1   
    26   22   37 1   
    27   23   38 1   
@<TRIPOS>SUBSTRUCTURE
     1 SCQ         1 TEMP              0 ****  ****    0 ROOT
