@<TRIPOS>MOLECULE
SCQ
   38    41     1     0     0
SMALL
bcc


@<TRIPOS>ATOM
      1 C01         0.4360    0.4030    0.8710 cc        1 SCQ     -0.289900
      2 C02         1.7820    0.0970    0.5380 cd        1 SCQ      0.008700
      3 N03         2.3020   -0.6070    1.6650 na        1 SCQ      0.170000
      4 N04         1.3800   -0.7560    2.6350 nd        1 SCQ     -0.588100
      5 C05         0.2470   -0.1540    2.1850 cc        1 SCQ      0.418500
      6 C06         2.6020    0.3500   -0.5900 cd        1 SCQ     -0.124000
      7 C07         3.8950   -0.1210   -0.6000 cc        1 SCQ      0.010000
      8 C08         4.3990   -0.8500    0.5180 cc        1 SCQ     -0.180000
      9 C09         3.6280   -1.0980    1.6500 cd        1 SCQ      0.187300
     10 N10         4.1420   -1.8660    2.7290 nu        1 SCQ     -0.697600
     11 C11         4.7730    0.1110   -1.7460 ca        1 SCQ     -0.051000
     12 C12         5.2120   -1.2520    3.4910 c3        1 SCQ      0.228100
     13 C13         4.8080   -0.2580    4.5290 ca        1 SCQ     -0.365900
     14 C14         5.2480    1.0820    4.4830 ca        1 SCQ      0.443200
     15 N15         4.9150    1.9840    5.4290 nb        1 SCQ     -0.687500
     16 C16         4.1230    1.5270    6.4360 ca        1 SCQ      0.635900
     17 N17         3.6400    0.2620    6.5820 nb        1 SCQ     -0.687500
     18 C18         3.9890   -0.6170    5.6230 ca        1 SCQ      0.443200
     19 C19         4.7750    1.3550   -2.3930 ca        1 SCQ     -0.112500
     20 C20         5.6100    1.5760   -3.4860 ca        1 SCQ     -0.130500
     21 C21         6.4470    0.5590   -3.9460 ca        1 SCQ     -0.120000
     22 C22         6.4470   -0.6810   -3.3090 ca        1 SCQ     -0.130500
     23 C23         5.6170   -0.9070   -2.2130 ca        1 SCQ     -0.112500
     24 Br24       -0.7910    1.2960   -0.1380 br        1 SCQ     -0.013700
     25 H05        -0.6610   -0.1260    2.7920 h4        1 SCQ      0.062800
     26 H06         2.1710    0.9110   -1.4330 ha        1 SCQ      0.167000
     27 H08         5.4320   -1.2300    0.4780 ha        1 SCQ      0.163000
     28 HN10        3.4280   -2.2440    3.3270 hn        1 SCQ      0.410800
     29 H121        5.7480   -2.1050    4.0040 h1        1 SCQ      0.071700
     30 H122        5.9360   -0.7710    2.7720 h1        1 SCQ      0.071700
     31 H14         5.8900    1.4480    3.6620 h4        1 SCQ      0.030600
     32 H16         3.8400    2.2610    7.2190 h5        1 SCQ      0.058100
     33 H18         3.5980   -1.6450    5.7340 h4        1 SCQ      0.030600
     34 H19         4.1170    2.1600   -2.0310 ha        1 SCQ      0.138000
     35 H20         5.6080    2.5560   -3.9860 ha        1 SCQ      0.135500
     36 H21         7.1040    0.7350   -4.8110 ha        1 SCQ      0.135000
     37 H22         7.1030   -1.4870   -3.6730 ha        1 SCQ      0.135500
     38 H23         5.6140   -1.8910   -1.7190 ha        1 SCQ      0.138000
@<TRIPOS>BOND
     1    1    2 2   
     2    1    5 1   
     3    1   24 1   
     4    2    3 1   
     5    2    6 1   
     6    3    4 1   
     7    3    9 1   
     8    4    5 2   
     9    5   25 1   
    10    6    7 2   
    11    6   26 1   
    12    7    8 1   
    13    7   11 1   
    14    8    9 2   
    15    8   27 1   
    16    9   10 1   
    17   10   12 1   
    18   10   28 1   
    19   11   19 ar  
    20   11   23 ar  
    21   12   13 1   
    22   12   29 1   
    23   12   30 1   
    24   13   14 ar  
    25   13   18 ar  
    26   14   15 ar  
    27   14   31 1   
    28   15   16 ar  
    29   16   17 ar  
    30   16   32 1   
    31   17   18 ar  
    32   18   33 1   
    33   19   20 ar  
    34   19   34 1   
    35   20   21 ar  
    36   20   35 1   
    37   21   22 ar  
    38   21   36 1   
    39   22   23 ar  
    40   22   37 1   
    41   23   38 1   
@<TRIPOS>SUBSTRUCTURE
     1 SCQ         1 TEMP              0 ****  ****    0 ROOT
