@<TRIPOS>MOLECULE
SCQ
   38    41     1     0     0
SMALL
bcc


@<TRIPOS>ATOM
      1 C01         1.1220    2.1760    0.4110 cc        1 SCQ     -0.289900
      2 C02         0.7760    0.8330    0.1070 cd        1 SCQ      0.008700
      3 N03        -0.4630    0.9090   -0.5980 na        1 SCQ      0.170000
      4 N04        -0.8770    2.1810   -0.7500 nd        1 SCQ     -0.588100
      5 C05         0.0550    2.9650   -0.1470 cc        1 SCQ      0.418500
      6 C06         1.3800   -0.4240    0.3630 cd        1 SCQ     -0.124000
      7 C07         0.7750   -1.5670   -0.1070 cc        1 SCQ      0.010000
      8 C08        -0.4470   -1.4820   -0.8380 cc        1 SCQ     -0.180000
      9 C09        -1.0770   -0.2660   -1.0890 cd        1 SCQ      0.187300
     10 N10        -2.2700   -0.2070   -1.8590 nh        1 SCQ     -0.697600
     11 C11         1.3670   -2.8840    0.1270 ca        1 SCQ     -0.051000
     12 C12        -3.4490   -0.7860   -1.2450 c3        1 SCQ      0.228100
     13 C13        -4.1730    0.0630   -0.2530 ca        1 SCQ     -0.365900
     14 C14        -4.3430   -0.3440    1.0880 ca        1 SCQ      0.443200
     15 N15        -5.0190    0.3990    1.9870 nb        1 SCQ     -0.687500
     16 C16        -5.5280    1.5740    1.5280 ca        1 SCQ      0.635900
     17 N17        -5.4260    2.0670    0.2620 nb        1 SCQ     -0.687500
     18 C18        -4.7460    1.3030   -0.6150 ca        1 SCQ      0.443200
     19 C19         1.9340   -3.1910    1.3720 ca        1 SCQ     -0.112500
     20 C20         2.5000   -4.4450    1.5950 ca        1 SCQ     -0.130500
     21 C21         2.5090   -5.4010    0.5800 ca        1 SCQ     -0.120000
     22 C22         1.9490   -5.1000   -0.6620 ca        1 SCQ     -0.130500
     23 C23         1.3790   -3.8500   -0.8900 ca        1 SCQ     -0.112500
     24 BR24        2.5900    2.7780    1.3050 br        1 SCQ     -0.013700
     25 H05        -0.0480    4.0530   -0.1210 h4        1 SCQ      0.062800
     26 H06         2.3250   -0.4440    0.9250 ha        1 SCQ      0.167000
     27 H08        -0.9020   -2.4100   -1.2180 ha        1 SCQ      0.163000
     28 HN10       -2.4570    0.7040   -2.2370 hn        1 SCQ      0.410800
     29 H121       -4.1540   -1.0160   -2.0990 h1        1 SCQ      0.071700
     30 H122       -3.1600   -1.7640   -0.7620 h1        1 SCQ      0.071700
     31 H14        -3.9250   -1.2980    1.4560 h4        1 SCQ      0.030600
     32 H16        -6.0850    2.1960    2.2600 h5        1 SCQ      0.058100
     33 H18        -4.6570    1.6980   -1.6430 h4        1 SCQ      0.030600
     34 H19         1.9260   -2.4390    2.1760 ha        1 SCQ      0.138000
     35 H20         2.9400   -4.6790    2.5760 ha        1 SCQ      0.135500
     36 H21         2.9570   -6.3890    0.7570 ha        1 SCQ      0.135000
     37 H22         1.9590   -5.8510   -1.4660 ha        1 SCQ      0.135500
     38 H23         0.9460   -3.6140   -1.8740 ha        1 SCQ      0.138000
@<TRIPOS>BOND
     1    1    2 2   
     2    1    5 1   
     3    1   24 1   
     4    2    3 1   
     5    2    6 1   
     6    3    4 1   
     7    3    9 1   
     8    4    5 2   
     9    5   25 1   
    10    6    7 2   
    11    6   26 1   
    12    7    8 1   
    13    7   11 1   
    14    8    9 2   
    15    8   27 1   
    16    9   10 1   
    17   10   12 1   
    18   10   28 1   
    19   11   19 ar  
    20   11   23 ar  
    21   12   13 1   
    22   12   29 1   
    23   12   30 1   
    24   13   14 ar  
    25   13   18 ar  
    26   14   15 ar  
    27   14   31 1   
    28   15   16 ar  
    29   16   17 ar  
    30   16   32 1   
    31   17   18 ar  
    32   18   33 1   
    33   19   20 ar  
    34   19   34 1   
    35   20   21 ar  
    36   20   35 1   
    37   21   22 ar  
    38   21   36 1   
    39   22   23 ar  
    40   22   37 1   
    41   23   38 1   
@<TRIPOS>SUBSTRUCTURE
     1 SCQ         1 TEMP              0 ****  ****    0 ROOT
