@<TRIPOS>MOLECULE
SCQ
   39    42     1     0     0
SMALL
bcc


@<TRIPOS>ATOM
      1 C01        -0.0910    0.1060   -0.1220 cc        1 SCQ     -0.238900
      2 C02         1.3260    0.0670   -0.1300 cd        1 SCQ     -0.006300
      3 N03         1.7030    0.0260    1.2520 na        1 SCQ      0.168000
      4 N04         0.6410    0.0370    2.0760 nd        1 SCQ     -0.601100
      5 C05        -0.4580    0.0850    1.2740 cc        1 SCQ      0.446500
      6 C06         2.3280    0.0590   -1.1340 cd        1 SCQ     -0.039000
      7 C07         3.6570    0.0110   -0.7750 cc        1 SCQ     -0.012000
      8 C08         4.0270   -0.0300    0.6080 cc        1 SCQ     -0.072000
      9 C09         3.0630   -0.0190    1.6010 cd        1 SCQ      0.006300
     10 N10         3.3710   -0.0500    3.0430 n4        1 SCQ     -0.632400
     11 C11         4.7170    0.0100   -1.7800 ca        1 SCQ     -0.086000
     12 C12         4.8430   -0.0630    3.3580 c3        1 SCQ      0.197100
     13 C13         5.0600   -0.0720    4.8220 ca        1 SCQ     -0.452900
     14 C14         5.2180    1.1280    5.5560 ca        1 SCQ      0.474700
     15 N15         5.4680    1.1310    6.8770 nb        1 SCQ     -0.666000
     16 C16         5.5680   -0.0900    7.4760 ca        1 SCQ      0.691900
     17 N17         5.4410   -1.3030    6.8660 nb        1 SCQ     -0.666000
     18 C18         5.1910   -1.2830    5.5450 ca        1 SCQ      0.474700
     19 C19         4.6330    0.8660   -2.8870 ca        1 SCQ     -0.109000
     20 C20         5.6390    0.8630   -3.8510 ca        1 SCQ     -0.119500
     21 C21         6.7310    0.0040   -3.7220 ca        1 SCQ     -0.096000
     22 C22         6.8160   -0.8540   -2.6240 ca        1 SCQ     -0.119500
     23 C23         5.8160   -0.8520   -1.6550 ca        1 SCQ     -0.109000
     24 BR24       -1.2140    0.1690   -1.5530 br        1 SCQ      0.049300
     25 H05        -1.4700    0.1040    1.6940 h4        1 SCQ      0.088800
     26 H06         2.0090    0.0870   -2.1910 ha        1 SCQ      0.196000
     27 H08         5.1040   -0.0620    0.8430 ha        1 SCQ      0.174000
     28 HN10        2.9430    0.7760    3.4910 hn        1 SCQ      0.468300
     29 H121        5.3020    0.8570    2.8910 hx        1 SCQ      0.113700
     30 H122        5.2880   -0.9850    2.8820 hx        1 SCQ      0.113700
     31 H14         5.1540    2.1200    5.0690 h4        1 SCQ      0.041600
     32 H16         5.7780   -0.0980    8.5700 h5        1 SCQ      0.091100
     33 H18         5.1050   -2.2680    5.0490 h4        1 SCQ      0.041600
     34 H19         3.7740    1.5470   -2.9930 ha        1 SCQ      0.132000
     35 H20         5.5690    1.5400   -4.7170 ha        1 SCQ      0.151000
     36 H21         7.5240    0.0000   -4.4870 ha        1 SCQ      0.153000
     37 H22         7.6730   -1.5390   -2.5270 ha        1 SCQ      0.151000
     38 H23         5.8810   -1.5440   -0.8030 ha        1 SCQ      0.132000
     39 H102        2.9320   -0.8880    3.4570 hn        1 SCQ      0.468300
@<TRIPOS>BOND
     1    1    2 2   
     2    1    5 1   
     3    1   24 1   
     4    2    3 1   
     5    2    6 1   
     6    3    4 1   
     7    3    9 1   
     8    4    5 2   
     9    5   25 1   
    10    6    7 2   
    11    6   26 1   
    12    7    8 1   
    13    7   11 1   
    14    8    9 2   
    15    8   27 1   
    16    9   10 1   
    17   10   12 1   
    18   10   28 1   
    19   10   39 1   
    20   11   19 ar  
    21   11   23 ar  
    22   12   13 1   
    23   12   29 1   
    24   12   30 1   
    25   13   14 ar  
    26   13   18 ar  
    27   14   15 ar  
    28   14   31 1   
    29   15   16 ar  
    30   16   17 ar  
    31   16   32 1   
    32   17   18 ar  
    33   18   33 1   
    34   19   20 ar  
    35   19   34 1   
    36   20   21 ar  
    37   20   35 1   
    38   21   22 ar  
    39   21   36 1   
    40   22   23 ar  
    41   22   37 1   
    42   23   38 1   
@<TRIPOS>SUBSTRUCTURE
     1 SCQ         1 TEMP              0 ****  ****    0 ROOT
