@<TRIPOS>MOLECULE
SCS
   20    19     1     0     0
SMALL
bcc


@<TRIPOS>ATOM
      1 N           1.2970    1.4750    0.8660 n3        1 SCS     -0.880800
      2 CA          1.5730    0.0910    0.5070 c3        1 SCS      0.012500
      3 C           2.9510   -0.1240   -0.2250 c         1 SCS      0.890600
      4 O           3.7500    0.8510   -0.2660 o         1 SCS     -0.834300
      5 CB          0.4980   -0.5450   -0.3500 c3        1 SCS      0.032700
      6 SG         -0.9950   -1.0470    0.4650 ss        1 SCS     -0.224100
      7 SD         -2.3060    0.5920    0.6290 ss        1 SCS     -0.197100
      8 CE         -4.1360   -0.6090   -1.0350 c3        1 SCS     -0.091100
      9 CZ         -3.2520    0.5890   -0.8650 c3        1 SCS     -0.020300
     10 OXT         3.1760   -1.2660   -0.7100 o         1 SCS     -0.834300
     11 HN          2.1420    1.8500    1.2660 hn        1 SCS      0.333300
     12 H2          1.1270    1.9980    0.0250 hn        1 SCS      0.333300
     13 H3          0.2630    0.0820   -1.2410 h1        1 SCS      0.088700
     14 H4          0.8990   -1.5390   -0.7070 h1        1 SCS      0.088700
     15 H5         -3.5250   -1.5460   -1.0490 hc        1 SCS      0.037700
     16 H6         -4.8730   -0.6820   -0.1990 hc        1 SCS      0.037700
     17 H7         -4.7010   -0.5430   -1.9980 hc        1 SCS      0.037700
     18 H8         -3.8650    1.5240   -0.7830 h1        1 SCS      0.064700
     19 H9         -2.5780    0.6970   -1.7490 h1        1 SCS      0.064700
     20 H11         1.6450   -0.4840    1.4760 h1        1 SCS      0.060700
@<TRIPOS>BOND
     1    1    2 1   
     2    1   11 1   
     3    1   12 1   
     4    2    3 1   
     5    2    5 1   
     6    2   20 1   
     7    3    4 1   
     8    3   10 1   
     9    5    6 1   
    10    5   13 1   
    11    5   14 1   
    12    6    7 1   
    13    7    9 1   
    14    8    9 1   
    15    8   15 1   
    16    8   16 1   
    17    8   17 1   
    18    9   18 1   
    19    9   19 1   
@<TRIPOS>SUBSTRUCTURE
     1 SCS         1 TEMP              0 ****  ****    0 ROOT
