@<TRIPOS>MOLECULE
SCT
   34    36     1     0     0
SMALL
bcc


@<TRIPOS>ATOM
      1 O16         2.5240   -5.0850    1.2270 oh        1 SCT     -0.601800
      2 O18         4.1300   -2.3450    1.7310 oh        1 SCT     -0.593800
      3 O9         -0.0940    1.9450    1.4130 o         1 SCT     -0.634500
      4 O7         -2.5630    1.8020    5.2630 o         1 SCT     -0.608500
      5 N8          0.0320   -0.0170    2.6810 n         1 SCT     -0.335000
      6 N5         -1.3370    1.8670    3.3440 n         1 SCT     -0.586500
      7 C1          1.8520   -2.7790    0.9550 c3        1 SCT     -0.125700
      8 C10         2.7670   -2.2980    2.1080 c3        1 SCT      0.148100
      9 C14         2.4060   -0.8370    2.4190 c3        1 SCT     -0.065400
     10 C17         1.0140   -0.6180    1.8310 cx        1 SCT      0.034400
     11 C13         0.6980   -1.8150    0.9100 cx        1 SCT     -0.126700
     12 C12         1.4060   -4.2180    1.1640 c3        1 SCT      0.132400
     13 C11        -0.4400    1.3000    2.4250 c         1 SCT      0.811500
     14 C15         0.9660   -0.4590    0.3220 cx        1 SCT     -0.071400
     15 C6         -1.7750    1.2110    4.5070 c         1 SCT      0.715700
     16 C4         -1.2440   -0.1470    4.7270 cc        1 SCT     -0.255400
     17 C2         -0.3740   -0.6850    3.8290 cd        1 SCT      0.041600
     18 C3         -1.7000   -0.8630    5.9340 c3        1 SCT     -0.030900
     19 H16         2.9290   -5.0960    0.3510 ho        1 SCT      0.401000
     20 H18         4.3520   -3.2820    1.6430 ho        1 SCT      0.412000
     21 H1          2.4340   -2.7180   -0.0070 hc        1 SCT      0.073700
     22 H10         2.6030   -2.9430    3.0160 h1        1 SCT      0.045700
     23 H141        2.4380   -0.6610    3.5220 hc        1 SCT      0.075200
     24 H142        3.1430   -0.1460    1.9360 hc        1 SCT      0.075200
     25 H13        -0.3100   -2.2530    0.8390 hc        1 SCT      0.098700
     26 H121        0.7100   -4.5320    0.3420 h1        1 SCT      0.052200
     27 H122        0.8930   -4.3470    2.1550 h1        1 SCT      0.052200
     28 H151        1.9220   -0.2680   -0.2000 hc        1 SCT      0.096700
     29 H152        0.1270    0.1040   -0.1290 hc        1 SCT      0.096700
     30 H2          0.0580   -1.6960    3.9620 h4        1 SCT      0.166000
     31 H3C1       -1.5870   -0.2050    6.8330 hc        1 SCT      0.051700
     32 H3C2       -1.1150   -1.8010    6.0950 hc        1 SCT      0.051700
     33 H3C3       -2.7840   -1.1250    5.8370 hc        1 SCT      0.051700
     34 HN1        -1.6580    2.7910    3.1470 hn        1 SCT      0.353500
@<TRIPOS>BOND
     1    1   12 1   
     2    1   19 1   
     3    2    8 1   
     4    2   20 1   
     5    3   13 2   
     6    4   15 2   
     7    5   10 1   
     8    5   13 1   
     9    5   17 1   
    10    6   13 1   
    11    6   15 1   
    12    6   34 1   
    13    7    8 1   
    14    7   11 1   
    15    7   12 1   
    16    7   21 1   
    17    8    9 1   
    18    8   22 1   
    19    9   10 1   
    20    9   23 1   
    21    9   24 1   
    22   10   11 1   
    23   10   14 1   
    24   11   14 1   
    25   11   25 1   
    26   12   26 1   
    27   12   27 1   
    28   14   28 1   
    29   14   29 1   
    30   15   16 1   
    31   16   17 2   
    32   16   18 1   
    33   17   30 1   
    34   18   31 1   
    35   18   32 1   
    36   18   33 1   
@<TRIPOS>SUBSTRUCTURE
     1 SCT         1 TEMP              0 ****  ****    0 ROOT
