@<TRIPOS>MOLECULE
SCT
   34    36     1     0     0
SMALL
bcc


@<TRIPOS>ATOM
      1 O16        -0.0260   -0.3570    0.1660 oh        1 SCT     -0.596800
      2 O18         0.8990    1.2520    3.2490 oh        1 SCT     -0.592800
      3 O9          6.3540    2.0240    3.0370 o         1 SCT     -0.631500
      4 O7          8.1790    3.6730   -0.8240 o         1 SCT     -0.610500
      5 N8          5.0450    1.8920    1.1030 n         1 SCT     -0.334000
      6 N5          7.2700    2.8460    1.0950 ns        1 SCT     -0.587500
      7 C1          1.8950   -0.0670    1.5390 c3        1 SCT     -0.047700
      8 C10         1.4600    1.3600    1.9480 c3        1 SCT      0.145100
      9 C14         2.7040    2.2680    1.9680 c3        1 SCT     -0.099400
     10 C17         3.9130    1.3550    1.7940 cx        1 SCT      0.030400
     11 C13         3.4020   -0.0790    1.5650 cx        1 SCT     -0.129700
     12 C12         1.3900   -0.4320    0.1480 c3        1 SCT      0.137400
     13 C11         6.2240    2.2450    1.8150 c         1 SCT      0.810500
     14 C15         4.0600    0.2870    2.8650 cx        1 SCT     -0.068400
     15 C6          7.2050    3.1270   -0.2800 c         1 SCT      0.716700
     16 C4          5.9570    2.7430   -0.9640 cc        1 SCT     -0.258400
     17 C2          4.9490    2.1630   -0.2550 cd        1 SCT      0.043600
     18 C3          5.8700    3.0100   -2.4130 c3        1 SCT     -0.029900
     19 H16        -0.3320   -0.7400   -0.6640 ho        1 SCT      0.403000
     20 H18         0.4760    2.0960    3.4420 ho        1 SCT      0.403000
     21 H1          1.4780   -0.7970    2.2850 hc        1 SCT      0.101700
     22 H10         0.6880    1.7550    1.2330 h1        1 SCT      0.059700
     23 H141        2.7760    2.8130    2.9430 hc        1 SCT      0.063700
     24 H142        2.6400    3.0220    1.1450 hc        1 SCT      0.063700
     25 H13         3.9000   -0.7790    0.8760 hc        1 SCT      0.095700
     26 H121        1.7230   -1.4730   -0.1130 h1        1 SCT      0.022700
     27 H122        1.7940    0.2820   -0.6200 h1        1 SCT      0.022700
     28 H151        3.4350    0.3970    3.7720 hc        1 SCT      0.099200
     29 H152        5.0680   -0.1090    3.0890 hc        1 SCT      0.099200
     30 H2          3.9920    1.8670   -0.7270 h4        1 SCT      0.165000
     31 H3C1        6.5600    2.3260   -2.9700 hc        1 SCT      0.051033
     32 H3C2        4.8310    2.8580   -2.7920 hc        1 SCT      0.051033
     33 H3C3        6.1860    4.0620   -2.6270 hc        1 SCT      0.051033
     34 HN1         8.0910    3.0850    1.6100 hn        1 SCT      0.352500
@<TRIPOS>BOND
     1    1   12 1   
     2    1   19 1   
     3    2    8 1   
     4    2   20 1   
     5    3   13 2   
     6    4   15 2   
     7    5   10 1   
     8    5   13 1   
     9    5   17 1   
    10    6   13 1   
    11    6   15 1   
    12    6   34 1   
    13    7    8 1   
    14    7   11 1   
    15    7   12 1   
    16    7   21 1   
    17    8    9 1   
    18    8   22 1   
    19    9   10 1   
    20    9   23 1   
    21    9   24 1   
    22   10   11 1   
    23   10   14 1   
    24   11   14 1   
    25   11   25 1   
    26   12   26 1   
    27   12   27 1   
    28   14   28 1   
    29   14   29 1   
    30   15   16 1   
    31   16   17 2   
    32   16   18 1   
    33   17   30 1   
    34   18   31 1   
    35   18   32 1   
    36   18   33 1   
@<TRIPOS>SUBSTRUCTURE
     1 SCT         1 TEMP              0 ****  ****    0 ROOT
