@<TRIPOS>MOLECULE
SCT
   34    36     1     0     0
SMALL
bcc


@<TRIPOS>ATOM
      1 O16        -4.3950   -0.1870   -1.1490 oh        1 SCT     -0.617800
      2 O18        -2.8370    1.5930    2.0790 oh        1 SCT     -0.603800
      3 O9         -0.2680    0.0380   -2.1450 o         1 SCT     -0.643500
      4 O7          4.2450   -0.7810   -2.4700 o         1 SCT     -0.609500
      5 N8          0.9010   -0.0850   -0.1380 n         1 SCT     -0.335000
      6 N5          1.9660   -0.5610   -2.3950 n         1 SCT     -0.586500
      7 C1         -2.6440   -0.1500    0.4290 c3        1 SCT     -0.084700
      8 C10        -2.3440    1.3450    0.8410 c3        1 SCT      0.154100
      9 C14        -0.8350    1.5100    0.8390 c3        1 SCT     -0.061400
     10 C17        -0.2800    0.1750    0.6600 cx        1 SCT      0.025400
     11 C13        -1.3830   -0.9120    0.7010 cx        1 SCT     -0.078700
     12 C12        -2.9850   -0.2250   -0.9980 c3        1 SCT      0.132400
     13 C11         0.7900   -0.2020   -1.5950 c         1 SCT      0.811500
     14 C15        -0.4680   -0.6620    1.9210 cx        1 SCT     -0.114400
     15 C6          3.2500   -0.6260   -1.7830 c         1 SCT      0.716700
     16 C4          3.3830   -0.4200   -0.3280 cc        1 SCT     -0.258400
     17 C2          2.1810   -0.1540    0.4870 cd        1 SCT      0.046600
     18 C3          4.7420   -0.5980    0.3490 c3        1 SCT     -0.029900
     19 H16        -4.6130   -0.4610   -1.9700 ho        1 SCT      0.408000
     20 H18        -3.3780    2.3020    2.0480 ho        1 SCT      0.419000
     21 H1         -3.3810   -0.5100    0.9730 hc        1 SCT      0.080700
     22 H10        -2.7490    1.9600    0.1900 h1        1 SCT      0.053700
     23 H141       -0.5600    2.0930    0.0970 hc        1 SCT      0.069200
     24 H142       -0.5350    1.8880    1.6970 hc        1 SCT      0.069200
     25 H13        -1.1500   -1.6520    0.0980 hc        1 SCT      0.113700
     26 H121       -2.6380   -1.0640   -1.3740 h1        1 SCT      0.039200
     27 H122       -2.5850    0.5360   -1.4710 h1        1 SCT      0.039200
     28 H151       -0.8880   -0.2000    2.6800 hc        1 SCT      0.085700
     29 H152        0.2180   -1.3450    2.0850 hc        1 SCT      0.085700
     30 H2          2.2630   -0.0170    1.4540 h4        1 SCT      0.169000
     31 H3C1        5.1600   -1.4290    0.0310 hc        1 SCT      0.051700
     32 H3C2        5.3210    0.1650    0.1290 hc        1 SCT      0.051700
     33 H3C3        4.6190   -0.6460    1.3230 hc        1 SCT      0.051700
     34 HN1         1.8780   -0.7220   -3.2940 hn        1 SCT      0.351500
@<TRIPOS>BOND
     1    1   12 1   
     2    1   19 1   
     3    2    8 1   
     4    2   20 1   
     5    3   13 2   
     6    4   15 2   
     7    5   10 1   
     8    5   13 1   
     9    5   17 1   
    10    6   13 1   
    11    6   15 1   
    12    6   34 1   
    13    7    8 1   
    14    7   11 1   
    15    7   12 1   
    16    7   21 1   
    17    8    9 1   
    18    8   22 1   
    19    9   10 1   
    20    9   23 1   
    21    9   24 1   
    22   10   11 1   
    23   10   14 1   
    24   11   14 1   
    25   11   25 1   
    26   12   26 1   
    27   12   27 1   
    28   14   28 1   
    29   14   29 1   
    30   15   16 1   
    31   16   17 2   
    32   16   18 1   
    33   17   30 1   
    34   18   31 1   
    35   18   32 1   
    36   18   33 1   
@<TRIPOS>SUBSTRUCTURE
     1 SCT         1 TEMP              0 ****  ****    0 ROOT
