@<TRIPOS>MOLECULE
SCT
   34    36     1     0     0
SMALL
bcc


@<TRIPOS>ATOM
      1 O16        -0.0290   -0.3520    0.1720 oh        1 SCT     -0.596800
      2 O18         0.8990    1.2630    3.2500 oh        1 SCT     -0.592800
      3 O9          6.3550    2.0260    3.0350 o         1 SCT     -0.631500
      4 O7          8.1830    3.6610   -0.8300 o         1 SCT     -0.610500
      5 N8          5.0460    1.8910    1.1020 n         1 SCT     -0.334000
      6 N5          7.2730    2.8410    1.0910 n         1 SCT     -0.587500
      7 C1          1.8920   -0.0610    1.5430 c3        1 SCT     -0.047700
      8 C10         1.4600    1.3670    1.9490 c3        1 SCT      0.145100
      9 C14         2.7050    2.2730    1.9660 c3        1 SCT     -0.099400
     10 C17         3.9130    1.3580    1.7940 cx        1 SCT      0.030400
     11 C13         3.4000   -0.0760    1.5700 cx        1 SCT     -0.129700
     12 C12         1.3870   -0.4300    0.1540 c3        1 SCT      0.137400
     13 C11         6.2260    2.2440    1.8120 c         1 SCT      0.810500
     14 C15         4.0580    0.2930    2.8690 cx        1 SCT     -0.068400
     15 C6          7.2070    3.1180   -0.2850 c         1 SCT      0.716700
     16 C4          5.9590    2.7340   -0.9680 cc        1 SCT     -0.258400
     17 C2          4.9500    2.1580   -0.2570 cd        1 SCT      0.043600
     18 C3          5.8730    2.9960   -2.4170 c3        1 SCT     -0.029900
     19 H16        -0.3360   -0.7380   -0.6570 ho        1 SCT      0.403000
     20 H18         0.4780    2.1100    3.4400 ho        1 SCT      0.403000
     21 H1          1.4740   -0.7890    2.2920 hc        1 SCT      0.101700
     22 H10         0.6890    1.7610    1.2330 h1        1 SCT      0.059700
     23 H141        2.7780    2.8210    2.9390 hc        1 SCT      0.063700
     24 H142        2.6430    3.0250    1.1410 hc        1 SCT      0.063700
     25 H13         3.8960   -0.7790    0.8830 hc        1 SCT      0.095700
     26 H121        1.7180   -1.4720   -0.1040 h1        1 SCT      0.022700
     27 H122        1.7920    0.2810   -0.6160 h1        1 SCT      0.022700
     28 H151        3.4330    0.4060    3.7760 hc        1 SCT      0.099200
     29 H152        5.0650   -0.1050    3.0940 hc        1 SCT      0.099200
     30 H2          3.9930    1.8610   -0.7280 h4        1 SCT      0.165000
     31 H3C1        6.1980    4.0450   -2.6360 hc        1 SCT      0.051033
     32 H3C2        6.5560    2.3040   -2.9730 hc        1 SCT      0.051033
     33 H3C3        4.8310    2.8520   -2.7950 hc        1 SCT      0.051033
     34 HN1         8.0940    3.0800    1.6050 hn        1 SCT      0.352500
@<TRIPOS>BOND
     1    1   12 1   
     2    1   19 1   
     3    2    8 1   
     4    2   20 1   
     5    3   13 2   
     6    4   15 2   
     7    5   10 1   
     8    5   13 1   
     9    5   17 1   
    10    6   13 1   
    11    6   15 1   
    12    6   34 1   
    13    7    8 1   
    14    7   11 1   
    15    7   12 1   
    16    7   21 1   
    17    8    9 1   
    18    8   22 1   
    19    9   10 1   
    20    9   23 1   
    21    9   24 1   
    22   10   11 1   
    23   10   14 1   
    24   11   14 1   
    25   11   25 1   
    26   12   26 1   
    27   12   27 1   
    28   14   28 1   
    29   14   29 1   
    30   15   16 1   
    31   16   17 2   
    32   16   18 1   
    33   17   30 1   
    34   18   31 1   
    35   18   32 1   
    36   18   33 1   
@<TRIPOS>SUBSTRUCTURE
     1 SCT         1 TEMP              0 ****  ****    0 ROOT
