@<TRIPOS>MOLECULE
SCT
   34    36     1     0     0
SMALL
bcc


@<TRIPOS>ATOM
      1 O16        -0.0170   -0.3750    0.1690 oh        1 SCT     -0.596800
      2 O18         0.8970    1.2480    3.2470 oh        1 SCT     -0.592800
      3 O9          6.3480    2.0460    3.0360 o         1 SCT     -0.631500
      4 O7          8.1710    3.6860   -0.8290 o         1 SCT     -0.610500
      5 N8          5.0420    1.9000    1.1020 n         1 SCT     -0.334000
      6 N5          7.2630    2.8630    1.0920 n         1 SCT     -0.587500
      7 C1          1.9010   -0.0710    1.5420 c3        1 SCT     -0.047700
      8 C10         1.4590    1.3540    1.9460 c3        1 SCT      0.145100
      9 C14         2.6990    2.2680    1.9640 c3        1 SCT     -0.099400
     10 C17         3.9120    1.3610    1.7940 cx        1 SCT      0.030400
     11 C13         3.4080   -0.0760    1.5700 cx        1 SCT     -0.129700
     12 C12         1.3990   -0.4440    0.1520 c3        1 SCT      0.137400
     13 C11         6.2200    2.2610    1.8130 c         1 SCT      0.810500
     14 C15         4.0630    0.2970    2.8690 cx        1 SCT     -0.068400
     15 C6          7.1980    3.1390   -0.2840 c         1 SCT      0.716700
     16 C4          5.9520    2.7460   -0.9680 cc        1 SCT     -0.258400
     17 C2          4.9460    2.1650   -0.2580 cd        1 SCT      0.043600
     18 C3          5.8660    3.0060   -2.4180 c3        1 SCT     -0.029900
     19 H16        -0.3210   -0.7630   -0.6600 ho        1 SCT      0.403000
     20 H18         0.4710    2.0920    3.4360 ho        1 SCT      0.403000
     21 H1          1.4860   -0.8010    2.2910 hc        1 SCT      0.101700
     22 H10         0.6860    1.7430    1.2290 h1        1 SCT      0.059700
     23 H141        2.6330    3.0190    1.1370 hc        1 SCT      0.063700
     24 H142        2.7670    2.8180    2.9360 hc        1 SCT      0.063700
     25 H13         3.9090   -0.7770    0.8840 hc        1 SCT      0.095700
     26 H121        1.8000    0.2690   -0.6180 h1        1 SCT      0.022700
     27 H122        1.7370   -1.4840   -0.1050 h1        1 SCT      0.022700
     28 H151        3.4370    0.4080    3.7750 hc        1 SCT      0.099200
     29 H152        5.0720   -0.0940    3.0950 hc        1 SCT      0.099200
     30 H2          3.9910    1.8620   -0.7290 h4        1 SCT      0.165000
     31 H3C1        4.8300    2.8410   -2.7990 hc        1 SCT      0.050700
     32 H3C2        6.1700    4.0620   -2.6350 hc        1 SCT      0.050700
     33 H3C3        6.5660    2.3290   -2.9700 hc        1 SCT      0.050700
     34 HN1         8.0820    3.1090    1.6070 hn        1 SCT      0.352500
@<TRIPOS>BOND
     1    1   12 1   
     2    1   19 1   
     3    2    8 1   
     4    2   20 1   
     5    3   13 2   
     6    4   15 2   
     7    5   10 1   
     8    5   13 1   
     9    5   17 1   
    10    6   13 1   
    11    6   15 1   
    12    6   34 1   
    13    7    8 1   
    14    7   11 1   
    15    7   12 1   
    16    7   21 1   
    17    8    9 1   
    18    8   22 1   
    19    9   10 1   
    20    9   23 1   
    21    9   24 1   
    22   10   11 1   
    23   10   14 1   
    24   11   14 1   
    25   11   25 1   
    26   12   26 1   
    27   12   27 1   
    28   14   28 1   
    29   14   29 1   
    30   15   16 1   
    31   16   17 2   
    32   16   18 1   
    33   17   30 1   
    34   18   31 1   
    35   18   32 1   
    36   18   33 1   
@<TRIPOS>SUBSTRUCTURE
     1 SCT         1 TEMP              0 ****  ****    0 ROOT
