@<TRIPOS>MOLECULE
SCU
   31    30     1     0     0
SMALL
bcc


@<TRIPOS>ATOM
      1 O13         0.5870   -0.7730    1.5640 o         1 SCU     -0.516000
      2 C12         0.8790   -0.2180    0.5070 c         1 SCU      0.638100
      3 C11         2.0900    0.5700    0.1250 c3        1 SCU     -0.117400
      4 C6          3.3130   -0.3240    0.1280 c3        1 SCU     -0.209400
      5 C5          4.5560    0.4790   -0.1390 c         1 SCU      0.560900
      6 O4          5.3880    0.1400   -0.9750 o         1 SCU     -0.484100
      7 O14        -0.0630   -0.2890   -0.5070 os        1 SCU     -0.464900
      8 C15        -1.1170   -1.2320   -0.3620 c3        1 SCU      0.120400
      9 C16        -2.2720   -0.6820    0.4740 c3        1 SCU      0.078800
     10 N17        -3.0990    0.4090   -0.1540 n4        1 SCU     -0.598800
     11 C20        -3.6430   -0.0310   -1.4720 c3        1 SCU      0.086767
     12 C19        -2.2860    1.6470   -0.3420 c3        1 SCU      0.086767
     13 C18        -4.2400    0.7140    0.7660 c3        1 SCU      0.086767
     14 H111        1.9440    1.0260   -0.8900 hc        1 SCU      0.090200
     15 H112        2.2090    1.3990    0.8750 hc        1 SCU      0.090200
     16 H61         3.4270   -0.8220    1.1290 hc        1 SCU      0.090700
     17 H62         3.2060   -1.1320   -0.6440 hc        1 SCU      0.090700
     18 H5          4.6760    1.3920    0.4860 h4        1 SCU      0.008200
     19 H151       -0.7480   -2.1600    0.1610 h1        1 SCU      0.101700
     20 H152       -1.4140   -1.4780   -1.4160 h1        1 SCU      0.101700
     21 H161       -1.8530   -0.2790    1.4420 hx        1 SCU      0.114700
     22 H162       -2.9720   -1.5370    0.7050 hx        1 SCU      0.114700
     23 H201       -2.8080   -0.1100   -2.2180 hx        1 SCU      0.103033
     24 H202       -4.1450   -1.0270   -1.3550 hx        1 SCU      0.103033
     25 H203       -4.3900    0.7260   -1.8350 hx        1 SCU      0.103033
     26 H191       -2.9260    2.4420   -0.8080 hx        1 SCU      0.103033
     27 H192       -1.9120    1.9990    0.6550 hx        1 SCU      0.103033
     28 H193       -1.4120    1.4200   -1.0120 hx        1 SCU      0.103033
     29 H181       -4.8930   -0.1940    0.8640 hx        1 SCU      0.103033
     30 H182       -3.8400    1.0020    1.7740 hx        1 SCU      0.103033
     31 H183       -4.8400    1.5640    0.3440 hx        1 SCU      0.103033
@<TRIPOS>BOND
     1    1    2 2   
     2    2    3 1   
     3    2    7 1   
     4    3    4 1   
     5    3   14 1   
     6    3   15 1   
     7    4    5 1   
     8    4   16 1   
     9    4   17 1   
    10    5    6 2   
    11    5   18 1   
    12    7    8 1   
    13    8    9 1   
    14    8   19 1   
    15    8   20 1   
    16    9   10 1   
    17    9   21 1   
    18    9   22 1   
    19   10   11 1   
    20   10   12 1   
    21   10   13 1   
    22   11   23 1   
    23   11   24 1   
    24   11   25 1   
    25   12   26 1   
    26   12   27 1   
    27   12   28 1   
    28   13   29 1   
    29   13   30 1   
    30   13   31 1   
@<TRIPOS>SUBSTRUCTURE
     1 SCU         1 TEMP              0 ****  ****    0 ROOT
