@<TRIPOS>MOLECULE
SCU
   31    30     1     0     0
SMALL
bcc


@<TRIPOS>ATOM
      1 O13         0.2010    0.7910   -0.5940 o         1 SCU     -0.521000
      2 C12         0.4730   -0.3370   -0.1880 c         1 SCU      0.643100
      3 C11         0.5810   -0.8690    1.2050 c3        1 SCU     -0.116400
      4 C6          1.2150    0.1400    2.1370 c3        1 SCU     -0.210400
      5 C5          2.6640    0.3970    1.8610 c         1 SCU      0.591900
      6 O4          3.2360    0.0160    0.8350 o         1 SCU     -0.586100
      7 O14         0.7410   -1.3000   -1.1450 os        1 SCU     -0.456900
      8 C15         0.5630   -0.9420   -2.5080 c3        1 SCU      0.118400
      9 C16         1.7920   -0.2340   -3.0800 c3        1 SCU      0.080800
     10 N17         3.0760   -1.0210   -3.0980 n4        1 SCU     -0.596800
     11 C20         2.8360   -2.4200   -3.5520 c3        1 SCU      0.087767
     12 C19         3.6990   -1.0430   -1.7390 c3        1 SCU      0.087767
     13 C18         4.0210   -0.3540   -4.0470 c3        1 SCU      0.087767
     14 H111        1.1740   -1.8230    1.1960 hc        1 SCU      0.098700
     15 H112       -0.4620   -1.1090    1.5530 hc        1 SCU      0.098700
     16 H61         0.6720    1.1240    2.0660 hc        1 SCU      0.103200
     17 H62         1.1100   -0.2290    3.1940 hc        1 SCU      0.103200
     18 H5          3.2010    0.9760    2.6460 h4        1 SCU      0.029200
     19 H151        0.3410   -1.9140   -3.0240 h1        1 SCU      0.100700
     20 H152       -0.3080   -0.2360   -2.6270 h1        1 SCU      0.100700
     21 H161        1.9780    0.7040   -2.4770 hx        1 SCU      0.112200
     22 H162        1.5530    0.0520   -4.1450 hx        1 SCU      0.112200
     23 H201        2.2640   -2.4080   -4.5160 hx        1 SCU      0.103367
     24 H202        2.2510   -2.9690   -2.7650 hx        1 SCU      0.103367
     25 H203        3.8220   -2.9340   -3.7060 hx        1 SCU      0.103367
     26 H191        4.6260   -1.6730   -1.7690 hx        1 SCU      0.103367
     27 H192        2.9690   -1.4700   -0.9960 hx        1 SCU      0.103367
     28 H193        3.9600    0.0030   -1.4230 hx        1 SCU      0.103367
     29 H181        4.1450    0.7220   -3.7510 hx        1 SCU      0.103367
     30 H182        5.0160   -0.8710   -4.0030 hx        1 SCU      0.103367
     31 H183        3.6130   -0.4150   -5.0900 hx        1 SCU      0.103367
@<TRIPOS>BOND
     1    1    2 2   
     2    2    3 1   
     3    2    7 1   
     4    3    4 1   
     5    3   14 1   
     6    3   15 1   
     7    4    5 1   
     8    4   16 1   
     9    4   17 1   
    10    5    6 2   
    11    5   18 1   
    12    7    8 1   
    13    8    9 1   
    14    8   19 1   
    15    8   20 1   
    16    9   10 1   
    17    9   21 1   
    18    9   22 1   
    19   10   11 1   
    20   10   12 1   
    21   10   13 1   
    22   11   23 1   
    23   11   24 1   
    24   11   25 1   
    25   12   26 1   
    26   12   27 1   
    27   12   28 1   
    28   13   29 1   
    29   13   30 1   
    30   13   31 1   
@<TRIPOS>SUBSTRUCTURE
     1 SCU         1 TEMP              0 ****  ****    0 ROOT
