@<TRIPOS>MOLECULE
SCU
   31    30     1     0     0
SMALL
bcc


@<TRIPOS>ATOM
      1 O13         1.6240    1.3730   -0.5850 o         1 SCU     -0.516000
      2 C12         1.7130    0.2800   -0.0290 c         1 SCU      0.638100
      3 C11         2.0700   -0.0680    1.3790 c3        1 SCU     -0.117400
      4 C6          1.0120    0.4570    2.3280 c3        1 SCU     -0.209400
      5 C5          1.4170    0.2170    3.7570 c         1 SCU      0.560900
      6 O4          0.6560   -0.2870    4.5770 o         1 SCU     -0.484100
      7 O14         1.4790   -0.8340   -0.8190 os        1 SCU     -0.464900
      8 C15         0.8680   -0.6270   -2.0850 c3        1 SCU      0.120400
      9 C16         1.8840   -0.2560   -3.1650 c3        1 SCU      0.078800
     10 N17         2.8300   -1.3430   -3.6020 n4        1 SCU     -0.598800
     11 C20         2.0770   -2.5460   -4.0620 c3        1 SCU      0.086767
     12 C19         3.7460   -1.7270   -2.4880 c3        1 SCU      0.086767
     13 C18         3.6460   -0.8170   -4.7420 c3        1 SCU      0.086767
     14 H111        3.0660    0.4020    1.6050 hc        1 SCU      0.090200
     15 H112        2.1680   -1.1810    1.4850 hc        1 SCU      0.090200
     16 H61         0.8770    1.5640    2.1840 hc        1 SCU      0.090700
     17 H62         0.0250   -0.0370    2.1220 hc        1 SCU      0.090700
     18 H5          2.4470    0.5450    4.0210 h4        1 SCU      0.008200
     19 H151        0.3340   -1.5920   -2.2960 h1        1 SCU      0.101700
     20 H152        0.1250    0.2200   -2.0320 h1        1 SCU      0.101700
     21 H161        2.5070    0.6080   -2.7870 hx        1 SCU      0.114700
     22 H162        1.3140    0.0770   -4.0800 hx        1 SCU      0.114700
     23 H201        1.2970   -2.2370   -4.8070 hx        1 SCU      0.103033
     24 H202        1.5870   -3.0430   -3.1820 hx        1 SCU      0.103033
     25 H203        2.7900   -3.2690   -4.5410 hx        1 SCU      0.103033
     26 H191        4.4390   -2.5360   -2.8420 hx        1 SCU      0.103033
     27 H192        3.1390   -2.1000   -1.6190 hx        1 SCU      0.103033
     28 H193        4.3410   -0.8300   -2.1720 hx        1 SCU      0.103033
     29 H181        4.1810    0.1160   -4.4180 hx        1 SCU      0.103033
     30 H182        4.3970   -1.5920   -5.0490 hx        1 SCU      0.103033
     31 H183        2.9720   -0.5840   -5.6080 hx        1 SCU      0.103033
@<TRIPOS>BOND
     1    1    2 2   
     2    2    3 1   
     3    2    7 1   
     4    3    4 1   
     5    3   14 1   
     6    3   15 1   
     7    4    5 1   
     8    4   16 1   
     9    4   17 1   
    10    5    6 2   
    11    5   18 1   
    12    7    8 1   
    13    8    9 1   
    14    8   19 1   
    15    8   20 1   
    16    9   10 1   
    17    9   21 1   
    18    9   22 1   
    19   10   11 1   
    20   10   12 1   
    21   10   13 1   
    22   11   23 1   
    23   11   24 1   
    24   11   25 1   
    25   12   26 1   
    26   12   27 1   
    27   12   28 1   
    28   13   29 1   
    29   13   30 1   
    30   13   31 1   
@<TRIPOS>SUBSTRUCTURE
     1 SCU         1 TEMP              0 ****  ****    0 ROOT
