@<TRIPOS>MOLECULE
SCU
   31    30     1     0     0
SMALL
bcc


@<TRIPOS>ATOM
      1 O13         0.1440    0.6870   -0.5490 o         1 SCU     -0.521000
      2 C12         0.4880   -0.4220   -0.1460 c         1 SCU      0.643100
      3 C11         0.6610   -0.9400    1.2460 c3        1 SCU     -0.116400
      4 C6          1.2630    0.1080    2.1570 c3        1 SCU     -0.210400
      5 C5          2.6880    0.4440    1.8410 c         1 SCU      0.591900
      6 O4          3.2530    0.0880    0.8020 o         1 SCU     -0.586100
      7 O14         0.7830   -1.3740   -1.1050 os        1 SCU     -0.456900
      8 C15         0.5510   -1.0330   -2.4650 c3        1 SCU      0.118400
      9 C16         1.7240   -0.2640   -3.0720 c3        1 SCU      0.080800
     10 N17         3.0480   -0.9810   -3.1200 n4        1 SCU     -0.596800
     11 C20         2.8720   -2.3940   -3.5610 c3        1 SCU      0.087767
     12 C19         3.7070   -0.9620   -1.7770 c3        1 SCU      0.087767
     13 C18         3.9310   -0.2700   -4.0960 c3        1 SCU      0.087767
     14 H111        1.3060   -1.8590    1.2250 hc        1 SCU      0.098700
     15 H112       -0.3580   -1.2340    1.6220 hc        1 SCU      0.098700
     16 H61         0.6650    1.0600    2.0960 hc        1 SCU      0.103200
     17 H62         1.2060   -0.2600    3.2180 hc        1 SCU      0.103200
     18 H5          3.2120    1.0560    2.6090 h4        1 SCU      0.029200
     19 H151       -0.3590   -0.3760   -2.5640 h1        1 SCU      0.100700
     20 H152        0.3680   -2.0190   -2.9710 h1        1 SCU      0.100700
     21 H161        1.4440    0.0030   -4.1310 hx        1 SCU      0.112200
     22 H162        1.8760    0.6850   -2.4780 hx        1 SCU      0.112200
     23 H201        3.8800   -2.8560   -3.7380 hx        1 SCU      0.103367
     24 H202        2.2750   -2.4180   -4.5100 hx        1 SCU      0.103367
     25 H203        2.3380   -2.9690   -2.7560 hx        1 SCU      0.103367
     26 H191        3.9200    0.0980   -1.4740 hx        1 SCU      0.103367
     27 H192        3.0200   -1.4230   -1.0140 hx        1 SCU      0.103367
     28 H193        4.6650   -1.5420   -1.8290 hx        1 SCU      0.103367
     29 H181        3.5000   -0.3590   -5.1280 hx        1 SCU      0.103367
     30 H182        4.9530   -0.7340   -4.0760 hx        1 SCU      0.103367
     31 H183        4.0050    0.8120   -3.8080 hx        1 SCU      0.103367
@<TRIPOS>BOND
     1    1    2 2   
     2    2    3 1   
     3    2    7 1   
     4    3    4 1   
     5    3   14 1   
     6    3   15 1   
     7    4    5 1   
     8    4   16 1   
     9    4   17 1   
    10    5    6 2   
    11    5   18 1   
    12    7    8 1   
    13    8    9 1   
    14    8   19 1   
    15    8   20 1   
    16    9   10 1   
    17    9   21 1   
    18    9   22 1   
    19   10   11 1   
    20   10   12 1   
    21   10   13 1   
    22   11   23 1   
    23   11   24 1   
    24   11   25 1   
    25   12   26 1   
    26   12   27 1   
    27   12   28 1   
    28   13   29 1   
    29   13   30 1   
    30   13   31 1   
@<TRIPOS>SUBSTRUCTURE
     1 SCU         1 TEMP              0 ****  ****    0 ROOT
