@<TRIPOS>MOLECULE
SCV
   47    41     1     0     0
SMALL
bcc


@<TRIPOS>ATOM
      1 C1          1.0700    1.4470   -3.5400 c1        1 SCV      0.425000
      2 C2          2.5280   -1.2640    0.2230 c1        1 SCV     -0.340000
      3 C3          2.3810   -1.2360    1.5220 c1        1 SCV      0.129000
      4 C4          2.0250   -0.3760    4.5080 c1        1 SCV      0.025000
      5 C7          2.8400    3.1760    7.8070 c3        1 SCV     -0.196000
      6 C10         4.5870    4.9560    5.1850 c3        1 SCV      0.004000
      7 C12         4.6490    4.4230    3.7590 c3        1 SCV     -0.102000
      8 C13         3.6360    5.1430    2.8940 c3        1 SCV     -0.212500
      9 C5          1.9410    0.3760    5.4390 c1        1 SCV     -0.323000
     10 N1          2.7950   -1.3660   -0.9940 n2        1 SCV      0.007000
     11 O1          0.8410    2.0480   -4.5370 o         1 SCV     -0.213000
     12 O2          1.2980    0.8480   -2.5350 o         1 SCV     -0.213000
     13 O5          3.3920    4.5380    5.8520 os        1 SCV     -0.390000
     14 C11         5.6770    4.4040    6.0960 c2        1 SCV      0.286000
     15 O6          5.0900    3.9860    7.2550 os        1 SCV     -0.351000
     16 O7          6.8830    4.2430    5.9520 o         1 SCV     -0.310000
     17 C6          1.7750    1.2630    6.5290 c2        1 SCV      0.398000
     18 O3          0.7560    1.4660    7.1780 o         1 SCV     -0.177000
     19 N2          3.0270    2.0160    6.8770 ny        1 SCV     -0.079000
     20 C8          3.6790    4.4250    7.2860 c3        1 SCV      0.389000
     21 C9          3.1890    2.8000    9.2490 c2        1 SCV      0.120000
     22 O8          3.6120    1.6560    9.4850 o         1 SCV     -0.315000
     23 S           2.8810    3.9240   10.4880 sh        1 SCV      0.113000
     24 HC2         1.5170    1.1200   -0.0720 ha        1 SCV      0.004750
     25 HC31        3.0460    0.9000    1.5970 ha        1 SCV      0.004750
     26 HC32        1.2920    1.7400   -0.2290 ha        1 SCV      0.004750
     27 HC41        2.1090   -1.0290    3.6540 ha        1 SCV      0.287000
     28 HC42        3.1850    0.6880    2.2320 ha        1 SCV      0.004750
     29 HC7         1.7600    3.5040    7.7610 hx        1 SCV      0.179000
     30 HC01        4.6210    6.0800    5.1900 h1        1 SCV      0.137000
     31 H131        2.6130    5.0390    3.3340 hc        1 SCV      0.075833
     32 H132        3.8840    6.2290    2.8270 hc        1 SCV      0.075833
     33 H133        3.6300    4.7120    1.8640 hc        1 SCV      0.075833
     34 HC51        1.2860    3.1700    4.9390 ha        1 SCV      0.004750
     35 HC52        1.3920    3.8200    4.7730 ha        1 SCV      0.004750
     36 HN11        2.0960   -1.0420   -1.6430 hn        1 SCV      0.183000
     37 HN12        1.5960    2.7330    1.8650 ha        1 SCV      0.004750
     38 H141        3.3780    2.6680    3.9230 hc        1 SCV      0.075833
     39 H142        4.6660    2.5540    2.6600 hc        1 SCV      0.075833
     40 H143        5.6890    4.6550    3.3840 hc        1 SCV      0.114000
     41 HN2         3.4400    2.3910    6.0010 hn        1 SCV      0.277000
     42 HS1         2.7400    5.0620    9.7650 hs        1 SCV      0.135000
     43 O4          3.5110    5.5140    7.9060 o         1 SCV     -0.544000
     44 HC21        5.1180    2.4080    4.4100 hc        1 SCV      0.075833
     45 H13         1.7200    3.1420    2.3920 ha        1 SCV      0.004750
     46 H22         3.6980    1.3590    7.3110 hn        1 SCV      0.277000
     47 C14         4.4410    2.9270    3.6890 c3        1 SCV     -0.212500
@<TRIPOS>BOND
     1    1   11 1   
     2    1   12 1   
     3    2    3 1   
     4    2   10 1   
     5    4    9 1   
     6    4   27 1   
     7    5   19 1   
     8    5   20 1   
     9    5   21 1   
    10    5   29 1   
    11    6    7 1   
    12    6   13 1   
    13    6   14 1   
    14    6   30 1   
    15    7    8 1   
    16    7   40 1   
    17    7   47 1   
    18    8   31 1   
    19    8   32 1   
    20    8   33 1   
    21    9   17 1   
    22   10   36 1   
    23   13   20 1   
    24   14   15 1   
    25   14   16 1   
    26   15   20 1   
    27   17   18 1   
    28   17   19 1   
    29   19   41 1   
    30   19   46 1   
    31   20   43 1   
    32   21   22 1   
    33   21   23 1   
    34   23   42 1   
    35   24   26 1   
    36   25   28 1   
    37   34   35 1   
    38   37   45 1   
    39   38   47 1   
    40   39   47 1   
    41   44   47 1   
@<TRIPOS>SUBSTRUCTURE
     1 SCV         1 TEMP              0 ****  ****    0 ROOT
