@<TRIPOS>MOLECULE
SCV
   45    44     1     0     0
SMALL
bcc


@<TRIPOS>ATOM
      1 C1         -9.0240    4.7050   -6.0190 c         1 SCV      0.886600
      2 C2         -8.5310    3.6690   -4.9560 c3        1 SCV      0.023500
      3 C3         -7.4680    4.3080   -4.0610 c3        1 SCV     -0.061400
      4 C4         -6.0670    4.3080   -4.6420 c3        1 SCV     -0.075400
      5 C7         -1.6440    3.9510   -3.5330 c3        1 SCV     -0.051300
      6 C10        -0.9420    0.2640   -3.2000 c3        1 SCV      0.025100
      7 C12        -1.8750   -0.6350   -2.3870 c3        1 SCV     -0.061700
      8 C13        -3.2700   -0.6470   -2.9700 c3        1 SCV     -0.084100
      9 C5         -5.1990    5.3010   -3.8940 c3        1 SCV     -0.147400
     10 N1         -8.1550    2.3720   -5.4990 n3        1 SCV     -0.892800
     11 O1         -9.0860    4.3380   -7.2280 o         1 SCV     -0.848300
     12 O2         -9.3770    5.8450   -5.6060 o         1 SCV     -0.848300
     13 O5         -1.3520    1.6290   -2.9390 os        1 SCV     -0.422900
     14 C11         0.5430    0.0490   -2.8190 c         1 SCV      0.915600
     15 O6          0.9300   -1.1400   -2.6630 o         1 SCV     -0.827300
     16 O7          1.3060    1.0550   -2.7210 o         1 SCV     -0.827300
     17 C6         -3.7180    5.1340   -4.1690 c         1 SCV      0.668100
     18 O3         -3.0810    5.9470   -4.8680 o         1 SCV     -0.617100
     19 N2         -3.0800    4.0290   -3.6110 n         1 SCV     -0.543900
     20 C8         -1.1830    2.5440   -3.9210 c         1 SCV      0.628100
     21 C9         -1.0630    4.4290   -2.1910 c         1 SCV      0.601700
     22 O8         -1.7400    5.1440   -1.4440 o         1 SCV     -0.531100
     23 S           0.5940    4.1060   -1.8310 sh        1 SCV     -0.472400
     24 HC2        -9.4320    3.4760   -4.2970 h1        1 SCV      0.035700
     25 HC31       -7.4450    3.7800   -3.0720 hc        1 SCV      0.037700
     26 HC32       -7.7990    5.3670   -3.8810 hc        1 SCV      0.037700
     27 HC41       -5.6230    3.2810   -4.5730 hc        1 SCV      0.054200
     28 HC42       -6.1090    4.5890   -5.7280 hc        1 SCV      0.054200
     29 HC7        -1.2120    4.6550   -4.3190 h1        1 SCV      0.136700
     30 HC01       -1.0580    0.0490   -4.2970 h1        1 SCV      0.066700
     31 H131       -3.2510   -1.0140   -4.0250 hc        1 SCV      0.028200
     32 H132       -3.7030    0.3830   -2.9640 hc        1 SCV      0.028200
     33 H133       -3.9360   -1.3150   -2.3740 hc        1 SCV      0.028200
     34 HC51       -5.4790    6.3440   -4.2010 hc        1 SCV      0.066200
     35 HC52       -5.3790    5.2100   -2.7900 hc        1 SCV      0.066200
     36 HN11       -7.2500    2.4490   -5.9300 hn        1 SCV      0.332800
     37 HN12       -8.8020    2.1630   -6.2420 hn        1 SCV      0.332800
     38 H141       -2.3450    0.7840   -0.8090 hc        1 SCV      0.028200
     39 H142       -2.5120   -0.9610   -0.3380 hc        1 SCV      0.028200
     40 H143       -0.8600   -0.2200   -0.5260 hc        1 SCV      0.028200
     41 HN2        -3.5800    3.4790   -2.9510 hn        1 SCV      0.317500
     42 HS1         0.7770    2.8610   -2.4450 hs        1 SCV      0.390800
     43 O4         -0.7560    2.2310   -5.0320 o         1 SCV     -0.527000
     44 C14        -1.9030   -0.2350   -0.9280 c3        1 SCV     -0.084100
     45 HC21       -1.4260   -1.6690   -2.4650 hc        1 SCV      0.078700
@<TRIPOS>BOND
     1    1    2 1   
     2    1   11 1   
     3    1   12 1   
     4    2    3 1   
     5    2   10 1   
     6    2   24 1   
     7    3    4 1   
     8    3   25 1   
     9    3   26 1   
    10    4    9 1   
    11    4   27 1   
    12    4   28 1   
    13    5   19 1   
    14    5   20 1   
    15    5   21 1   
    16    5   29 1   
    17    6    7 1   
    18    6   13 1   
    19    6   14 1   
    20    6   30 1   
    21    7    8 1   
    22    7   44 1   
    23    7   45 1   
    24    8   31 1   
    25    8   32 1   
    26    8   33 1   
    27    9   17 1   
    28    9   34 1   
    29    9   35 1   
    30   10   36 1   
    31   10   37 1   
    32   13   20 1   
    33   14   15 1   
    34   14   16 1   
    35   17   18 2   
    36   17   19 1   
    37   19   41 1   
    38   20   43 2   
    39   21   22 2   
    40   21   23 1   
    41   23   42 1   
    42   38   44 1   
    43   39   44 1   
    44   40   44 1   
@<TRIPOS>SUBSTRUCTURE
     1 SCV         1 TEMP              0 ****  ****    0 ROOT
