@<TRIPOS>MOLECULE
SCV
   47    40     1     0     0
SMALL
bcc


@<TRIPOS>ATOM
      1 C1          0.3790    2.4410   -0.5780 c1        1 SCV      0.470000
      2 C2          1.8330    3.1590    1.2840 c1        1 SCV      0.003000
      3 C3          2.6290   -0.2760    1.0040 c3        1 SCV     -0.272000
      4 C4         -0.5650    1.0630    3.2950 c1        1 SCV      0.066000
      5 C7          1.4710    2.3360    6.4730 c3        1 SCV     -0.243000
      6 C10         5.0010    6.0950    4.6470 cx        1 SCV     -0.029000
      7 C12         6.1890    5.1970    4.4190 c3        1 SCV     -0.192000
      8 C13         5.7550    3.8930    3.7790 c3        1 SCV     -0.235000
      9 C5         -0.3460    0.8250    4.4500 c1        1 SCV     -0.319000
     10 N1          2.5020    3.3960    2.2160 n2        1 SCV     -0.314000
     11 O1         -0.2940    1.7830    0.1600 o         1 SCV     -0.242000
     12 O2          0.9590    3.0470   -1.4190 o         1 SCV     -0.242000
     13 O5          3.1680    1.9710    4.7700 o         1 SCV     -0.510000
     14 C11         5.0910    7.5370    4.4810 cu        1 SCV      0.318000
     15 O6          5.1560    7.0590    5.7680 os        1 SCV     -0.282000
     16 O7          5.1020    8.6510    4.0170 o         1 SCV     -0.228000
     17 C6         -0.1170    0.5230    5.8080 c2        1 SCV      0.403000
     18 O3         -0.8840    0.0110    6.6170 o         1 SCV     -0.191000
     19 N2          1.2570    0.8590    6.3120 n4        1 SCV     -0.092000
     20 C8          2.4790    2.8440    5.3560 c2        1 SCV      0.342000
     21 C9          1.9690    2.6920    7.8720 c2        1 SCV      0.094000
     22 O8          2.1950    1.7840    8.6870 o         1 SCV     -0.295000
     23 S           2.1260    4.3370    8.2750 sh        1 SCV      0.157000
     24 HC2        -0.7410    1.2800    2.2590 ha        1 SCV      0.281000
     25 HC31        2.7640   -0.4740    2.0910 hc        1 SCV      0.067500
     26 HC32        1.9790    0.6190    0.8670 hc        1 SCV      0.067500
     27 HC41        3.6210   -0.0840    0.5410 hc        1 SCV      0.067500
     28 HC42        2.1560   -1.1570    0.5190 hc        1 SCV      0.067500
     29 HC7         0.4920    2.8670    6.2940 hx        1 SCV      0.161000
     30 HC01        4.0140    5.5800    4.6460 h1        1 SCV      0.182000
     31 H131        4.9160    3.4240    4.3570 hc        1 SCV      0.094000
     32 H132        5.4040    4.0690    2.7340 hc        1 SCV      0.094000
     33 H133        6.6080    3.1730    3.7510 hc        1 SCV      0.094000
     34 HC51        3.1740   -0.7350    4.5000 ha        1 SCV      0.001333
     35 HC52        3.6300   -0.2770    4.2910 ha        1 SCV      0.001333
     36 HN11        4.7360    1.5680    2.9440 ha        1 SCV      0.001333
     37 HN12        3.0370    3.5590    3.0210 hn        1 SCV      0.319000
     38 H141        5.3630    0.7540    5.3460 ha        1 SCV      0.001333
     39 H142        5.5370    1.3290    5.0310 ha        1 SCV      0.001333
     40 H143        8.0120    5.2530    3.2370 ha        1 SCV      0.045000
     41 HN2         1.9770    0.5240    5.6300 hn        1 SCV      0.279500
     42 HS1         1.9700    4.9050    7.0670 hs        1 SCV      0.100000
     43 O4          2.4620    4.0720    5.1140 o         1 SCV     -0.510000
     44 HC21        6.6330    4.9730    5.4490 hc        1 SCV      0.168000
     45 H13         4.3610    1.1040    2.6200 ha        1 SCV      0.001333
     46 H22         1.4140    0.3950    7.2220 hn        1 SCV      0.279500
     47 C14         7.2710    5.8970    3.7360 c1        1 SCV     -0.033000
@<TRIPOS>BOND
     1    1   11 1   
     2    1   12 1   
     3    2   10 1   
     4    3   25 1   
     5    3   26 1   
     6    3   27 1   
     7    3   28 1   
     8    4    9 1   
     9    4   24 1   
    10    5   19 1   
    11    5   20 1   
    12    5   21 1   
    13    5   29 1   
    14    6    7 1   
    15    6   14 1   
    16    6   15 1   
    17    6   30 1   
    18    7    8 1   
    19    7   44 1   
    20    7   47 1   
    21    8   31 1   
    22    8   32 1   
    23    8   33 1   
    24    9   17 1   
    25   10   37 1   
    26   13   20 1   
    27   14   15 1   
    28   14   16 1   
    29   17   18 1   
    30   17   19 1   
    31   19   41 1   
    32   19   46 1   
    33   20   43 1   
    34   21   22 1   
    35   21   23 1   
    36   23   42 1   
    37   34   35 1   
    38   36   45 1   
    39   38   39 1   
    40   40   47 1   
@<TRIPOS>SUBSTRUCTURE
     1 SCV         1 TEMP              0 ****  ****    0 ROOT
