@<TRIPOS>MOLECULE
SCV
   47    40     1     0     0
SMALL
bcc


@<TRIPOS>ATOM
      1 C1          2.0010    1.6690   -1.2480 c1        1 SCV      0.482000
      2 C2          3.6480    2.5230    0.3000 c1        1 SCV     -0.054000
      3 C3          1.6560   -1.2210    1.8820 c3        1 SCV     -0.275000
      4 C4         -0.1350    1.9740    2.4810 c1        1 SCV      0.068000
      5 C7          1.3770    2.6150    6.7730 c3        1 SCV     -0.250000
      6 C10         6.0870    5.0160    5.3610 cx        1 SCV     -0.041000
      7 C12         5.3530    4.5900    4.1180 c3        1 SCV     -0.205000
      8 C13         4.8320    5.8020    3.3630 c3        1 SCV     -0.181000
      9 C5         -0.2580    2.0340    3.6720 c1        1 SCV     -0.324000
     10 N1          4.4310    2.8790    1.0960 n2        1 SCV     -0.351000
     11 O1          2.7000    1.7540   -2.2060 o         1 SCV     -0.253000
     12 O2          1.1650    1.5130   -0.4050 o         1 SCV     -0.253000
     13 O5          3.2540    2.4100    5.2460 o         1 SCV     -0.507500
     14 C11         7.2560    5.8790    5.3320 cu        1 SCV      0.281000
     15 O6          7.4880    4.5340    5.4950 os        1 SCV     -0.282000
     16 O7          7.9950    6.8310    5.2640 o         1 SCV     -0.228000
     17 C6         -0.4030    2.1340    5.0720 c2        1 SCV      0.407000
     18 O3         -1.3490    2.5810    5.7110 o         1 SCV     -0.192000
     19 N2          0.7720    1.6020    5.8460 n4        1 SCV     -0.092000
     20 C8          2.7670    3.1090    6.1720 c2        1 SCV      0.348000
     21 C9          1.5420    2.0650    8.1860 c2        1 SCV      0.101000
     22 O8          1.2360    0.8860    8.4230 o         1 SCV     -0.300000
     23 S           2.0770    3.1280    9.4040 sh        1 SCV      0.142000
     24 HC2         1.3820   -0.2540    1.4020 hc        1 SCV      0.068500
     25 HC31        2.2230   -1.0220    2.8190 hc        1 SCV      0.068500
     26 HC32        2.2910   -1.8110    1.1860 hc        1 SCV      0.068500
     27 HC41        0.7340   -1.7960    2.1170 hc        1 SCV      0.068500
     28 HC42       -0.0030    1.9090    1.4180 ha        1 SCV      0.281000
     29 HC7         0.6970    3.5150    6.8190 hx        1 SCV      0.167000
     30 HC01        5.4890    4.9140    6.2950 h1        1 SCV      0.188000
     31 H131        4.1510    6.3920    4.0230 hc        1 SCV      0.090333
     32 H132        5.6800    6.4570    3.0490 hc        1 SCV      0.090333
     33 H133        4.2690    5.4780    2.4560 hc        1 SCV      0.090333
     34 HC51        3.4760    0.0560    4.8870 ha        1 SCV      0.004167
     35 HC52        2.9310   -0.3370    4.9870 ha        1 SCV      0.004167
     36 HN11        2.2590    1.3290    3.0290 ha        1 SCV      0.004167
     37 HN12        2.9250    1.4320    3.1130 ha        1 SCV      0.004167
     38 H141        5.3200    1.5950    4.2790 ha        1 SCV      0.004167
     39 H142        4.9770    1.5780    3.6920 ha        1 SCV      0.004167
     40 H143        6.9300    3.1720    3.5610 ha        1 SCV      0.092000
     41 HN2         1.5330    1.3060    5.1860 hn        1 SCV      0.280000
     42 HS1         2.4460    4.1870    8.6630 hs        1 SCV      0.101000
     43 O4          3.2250    4.1710    6.6410 o         1 SCV     -0.507500
     44 HC21        4.4330    3.9870    4.4820 hc        1 SCV      0.234000
     45 H13         5.0850    3.1770    1.8250 hn        1 SCV      0.345000
     46 H22         0.4740    0.7820    6.3970 hn        1 SCV      0.280000
     47 C14         5.9840    3.6310    3.2430 c1        1 SCV     -0.073000
@<TRIPOS>BOND
     1    1   11 1   
     2    1   12 1   
     3    2   10 1   
     4    3   24 1   
     5    3   25 1   
     6    3   26 1   
     7    3   27 1   
     8    4    9 1   
     9    4   28 1   
    10    5   19 1   
    11    5   20 1   
    12    5   21 1   
    13    5   29 1   
    14    6    7 1   
    15    6   14 1   
    16    6   15 1   
    17    6   30 1   
    18    7    8 1   
    19    7   44 1   
    20    7   47 1   
    21    8   31 1   
    22    8   32 1   
    23    8   33 1   
    24    9   17 1   
    25   10   45 1   
    26   13   20 1   
    27   14   15 1   
    28   14   16 1   
    29   17   18 1   
    30   17   19 1   
    31   19   41 1   
    32   19   46 1   
    33   20   43 1   
    34   21   22 1   
    35   21   23 1   
    36   23   42 1   
    37   34   35 1   
    38   36   37 1   
    39   38   39 1   
    40   40   47 1   
@<TRIPOS>SUBSTRUCTURE
     1 SCV         1 TEMP              0 ****  ****    0 ROOT
