@<TRIPOS>MOLECULE
SCW
   38    41     1     0     0
SMALL
bcc


@<TRIPOS>ATOM
      1 C01        -0.0190    0.0990   -0.0220 cc        1 SCW     -0.184400
      2 N02         1.3770    0.0170   -0.0390 na        1 SCW      0.073700
      3 C03         1.7920   -0.1100    1.3170 cc        1 SCW     -0.064300
      4 N04         0.7060   -0.1100    2.1610 nd        1 SCW     -0.290600
      5 C05        -0.3940    0.0160    1.3500 cd        1 SCW      0.059600
      6 C06         2.2890    0.0610   -1.0690 cc        1 SCW     -0.118300
      7 C07         3.6410   -0.0230   -0.7880 cd        1 SCW     -0.012000
      8 C08         4.1000   -0.1570    0.5540 cd        1 SCW     -0.208000
      9 C09         3.2100   -0.2160    1.6190 cc        1 SCW      0.199600
     10 N10         3.5880   -0.4470    2.9390 nu        1 SCW     -0.725600
     11 C11         4.6110    0.0260   -1.8800 ca        1 SCW     -0.041000
     12 C12         4.9350   -0.0890    3.3320 c3        1 SCW      0.248100
     13 C13         5.1190   -0.0330    4.8110 ca        1 SCW     -0.343900
     14 C14         4.7340   -1.0990    5.6550 ca        1 SCW      0.441200
     15 N15         4.9320   -1.0690    6.9880 nb        1 SCW     -0.689500
     16 C16         5.5290    0.0520    7.4780 ca        1 SCW      0.634900
     17 N17         5.9400    1.1350    6.7620 nb        1 SCW     -0.689500
     18 C18         5.7260    1.0800    5.4320 ca        1 SCW      0.441200
     19 C19         4.4500    0.9390   -2.9320 ca        1 SCW     -0.115500
     20 C20         5.3770    0.9820   -3.9720 ca        1 SCW     -0.129500
     21 C21         6.4700    0.1160   -3.9730 ca        1 SCW     -0.122000
     22 C22         6.6350   -0.7950   -2.9290 ca        1 SCW     -0.129500
     23 C23         5.7130   -0.8410   -1.8860 ca        1 SCW     -0.115500
     24 Br24       -1.0820    0.2730   -1.5030 br        1 SCW      0.006300
     25 H05        -1.4090    0.0440    1.7520 h4        1 SCW      0.191000
     26 H06         1.8880    0.1570   -2.0920 h4        1 SCW      0.179000
     27 H08         5.1850   -0.2160    0.7220 ha        1 SCW      0.149000
     28 HN10        2.8860   -0.2510    3.6230 hn        1 SCW      0.433800
     29 H121        5.6300   -0.8770    2.9130 h1        1 SCW      0.053200
     30 H122        5.2420    0.9020    2.8800 h1        1 SCW      0.053200
     31 H14         4.2500   -2.0060    5.2470 h4        1 SCW      0.037600
     32 H16         5.6980    0.0880    8.5740 h5        1 SCW      0.059100
     33 H18         6.0550    1.9570    4.8460 h4        1 SCW      0.037600
     34 H19         3.5920    1.6280   -2.9320 ha        1 SCW      0.137000
     35 H20         5.2450    1.7030   -4.7920 ha        1 SCW      0.135000
     36 H21         7.2000    0.1510   -4.7950 ha        1 SCW      0.135000
     37 H22         7.4950   -1.4820   -2.9300 ha        1 SCW      0.135000
     38 H23         5.8410   -1.5670   -1.0690 ha        1 SCW      0.137000
@<TRIPOS>BOND
     1    1    2 1   
     2    1    5 2   
     3    1   24 1   
     4    2    3 1   
     5    2    6 1   
     6    3    4 2   
     7    3    9 1   
     8    4    5 1   
     9    5   25 1   
    10    6    7 2   
    11    6   26 1   
    12    7    8 1   
    13    7   11 1   
    14    8    9 2   
    15    8   27 1   
    16    9   10 1   
    17   10   12 1   
    18   10   28 1   
    19   11   19 ar  
    20   11   23 ar  
    21   12   13 1   
    22   12   29 1   
    23   12   30 1   
    24   13   14 ar  
    25   13   18 ar  
    26   14   15 ar  
    27   14   31 1   
    28   15   16 ar  
    29   16   17 ar  
    30   16   32 1   
    31   17   18 ar  
    32   18   33 1   
    33   19   20 ar  
    34   19   34 1   
    35   20   21 ar  
    36   20   35 1   
    37   21   22 ar  
    38   21   36 1   
    39   22   23 ar  
    40   22   37 1   
    41   23   38 1   
@<TRIPOS>SUBSTRUCTURE
     1 SCW         1 TEMP              0 ****  ****    0 ROOT
