@<TRIPOS>MOLECULE
SCW
   38    41     1     0     0
SMALL
bcc


@<TRIPOS>ATOM
      1 C01        -0.0190    0.0770   -0.0260 cc        1 SCW     -0.184400
      2 N02         1.3770    0.0040   -0.0410 na        1 SCW      0.073700
      3 C03         1.7920   -0.1230    1.3150 cc        1 SCW     -0.064300
      4 N04         0.7060   -0.1310    2.1570 nd        1 SCW     -0.290600
      5 C05        -0.3950   -0.0110    1.3460 cd        1 SCW      0.059600
      6 C06         2.2900    0.0550   -1.0700 cc        1 SCW     -0.118300
      7 C07         3.6420   -0.0210   -0.7880 cd        1 SCW     -0.012000
      8 C08         4.1010   -0.1540    0.5540 cd        1 SCW     -0.208000
      9 C09         3.2110   -0.2210    1.6180 cc        1 SCW      0.200600
     10 N10         3.5890   -0.4520    2.9380 nh        1 SCW     -0.725600
     11 C11         4.6130    0.0360   -1.8790 ca        1 SCW     -0.041000
     12 C12         4.9330   -0.0870    3.3330 c3        1 SCW      0.248100
     13 C13         5.1170   -0.0350    4.8120 ca        1 SCW     -0.343900
     14 C14         4.7360   -1.1050    5.6530 ca        1 SCW      0.441200
     15 N15         4.9340   -1.0780    6.9860 nb        1 SCW     -0.689500
     16 C16         5.5250    0.0450    7.4790 ca        1 SCW      0.634900
     17 N17         5.9300    1.1320    6.7670 nb        1 SCW     -0.689500
     18 C18         5.7170    1.0790    5.4370 ca        1 SCW      0.441200
     19 C19         4.4470    0.9490   -2.9310 ca        1 SCW     -0.115500
     20 C20         5.3740    0.9990   -3.9690 ca        1 SCW     -0.129500
     21 C21         6.4730    0.1410   -3.9700 ca        1 SCW     -0.122000
     22 C22         6.6440   -0.7700   -2.9280 ca        1 SCW     -0.129500
     23 C23         5.7210   -0.8240   -1.8860 ca        1 SCW     -0.115500
     24 BR24       -1.0820    0.2460   -1.5080 br        1 SCW      0.006300
     25 H05        -1.4100    0.0100    1.7470 h4        1 SCW      0.191000
     26 H06         1.8900    0.1490   -2.0930 h4        1 SCW      0.179000
     27 H08         5.1870   -0.2060    0.7220 ha        1 SCW      0.149000
     28 HN10        2.8850   -0.2610    3.6220 hn        1 SCW      0.433800
     29 H121        5.2350    0.9070    2.8840 h1        1 SCW      0.053200
     30 H122        5.6340   -0.8700    2.9120 h1        1 SCW      0.053200
     31 H14         4.2580   -2.0140    5.2420 h4        1 SCW      0.037600
     32 H16         5.6930    0.0780    8.5760 h5        1 SCW      0.059100
     33 H18         6.0420    1.9600    4.8530 h4        1 SCW      0.037600
     34 H19         3.5840    1.6320   -2.9300 ha        1 SCW      0.137000
     35 H20         5.2380    1.7200   -4.7890 ha        1 SCW      0.135000
     36 H21         7.2040    0.1820   -4.7920 ha        1 SCW      0.135000
     37 H22         7.5080   -1.4510   -2.9280 ha        1 SCW      0.135000
     38 H23         5.8540   -1.5490   -1.0690 ha        1 SCW      0.137000
@<TRIPOS>BOND
     1    1    2 1   
     2    1    5 2   
     3    1   24 1   
     4    2    3 1   
     5    2    6 1   
     6    3    4 2   
     7    3    9 1   
     8    4    5 1   
     9    5   25 1   
    10    6    7 2   
    11    6   26 1   
    12    7    8 1   
    13    7   11 1   
    14    8    9 2   
    15    8   27 1   
    16    9   10 1   
    17   10   12 1   
    18   10   28 1   
    19   11   19 ar  
    20   11   23 ar  
    21   12   13 1   
    22   12   29 1   
    23   12   30 1   
    24   13   14 ar  
    25   13   18 ar  
    26   14   15 ar  
    27   14   31 1   
    28   15   16 ar  
    29   16   17 ar  
    30   16   32 1   
    31   17   18 ar  
    32   18   33 1   
    33   19   20 ar  
    34   19   34 1   
    35   20   21 ar  
    36   20   35 1   
    37   21   22 ar  
    38   21   36 1   
    39   22   23 ar  
    40   22   37 1   
    41   23   38 1   
@<TRIPOS>SUBSTRUCTURE
     1 SCW         1 TEMP              0 ****  ****    0 ROOT
