@<TRIPOS>MOLECULE
SCW
   38    41     1     0     0
SMALL
bcc


@<TRIPOS>ATOM
      1 C01         2.1190    2.1360    0.0780 cc        1 SCW     -0.184400
      2 N02         1.4520    0.9090    0.0050 na        1 SCW      0.073700
      3 C03         0.0650    1.2080   -0.1150 cc        1 SCW     -0.064300
      4 N04        -0.1420    2.5670   -0.1200 nd        1 SCW     -0.290600
      5 C05         1.1030    3.1320   -0.0040 cd        1 SCW      0.059600
      6 C06         1.9060   -0.3890    0.0530 cc        1 SCW     -0.118300
      7 C07         1.0010   -1.4330   -0.0210 cd        1 SCW     -0.012000
      8 C08        -0.3950   -1.1800   -0.1490 cd        1 SCW     -0.208000
      9 C09        -0.8910    0.1160   -0.2100 cc        1 SCW      0.199600
     10 N10        -2.2290    0.4290   -0.4350 nh        1 SCW     -0.725600
     11 C11         1.4820   -2.8120    0.0310 ca        1 SCW     -0.041000
     12 C12        -3.2270   -0.5530   -0.0670 c3        1 SCW      0.248100
     13 C13        -4.6080    0.0080   -0.0060 ca        1 SCW     -0.343900
     14 C14        -5.1630    0.7510   -1.0720 ca        1 SCW      0.441200
     15 N15        -6.4230    1.2280   -1.0360 nb        1 SCW     -0.689500
     16 C16        -7.1350    0.9510    0.0910 ca        1 SCW      0.634900
     17 N17        -6.7040    0.2490    1.1740 nb        1 SCW     -0.689500
     18 C18        -5.4390   -0.2140    1.1130 ca        1 SCW      0.441200
     19 C19         2.4840   -3.1810    0.9390 ca        1 SCW     -0.115500
     20 C20         2.9400   -4.4970    0.9860 ca        1 SCW     -0.129500
     21 C21         2.4020   -5.4560    0.1280 ca        1 SCW     -0.122000
     22 C22         1.4050   -5.0950   -0.7790 ca        1 SCW     -0.129500
     23 C23         0.9440   -3.7810   -0.8290 ca        1 SCW     -0.115500
     24 BR24        3.9310    2.3420    0.2400 br        1 SCW      0.006300
     25 H05         1.2480    4.2140    0.0190 h4        1 SCW      0.191000
     26 H06         2.9950   -0.5380    0.1420 h4        1 SCW      0.179000
     27 H08        -1.0710   -2.0460   -0.2000 ha        1 SCW      0.149000
     28 HN10       -2.4820    1.3770   -0.2420 hn        1 SCW      0.433800
     29 H121       -3.2050   -1.3680   -0.8520 h1        1 SCW      0.053200
     30 H122       -2.9760   -1.0380    0.9240 h1        1 SCW      0.053200
     31 H14        -4.5760    0.9700   -1.9840 h4        1 SCW      0.037600
     32 H16        -8.1740    1.3390    0.1310 h5        1 SCW      0.059100
     33 H18        -5.0820   -0.7830    1.9910 h4        1 SCW      0.037600
     34 H19         2.9060   -2.4280    1.6230 ha        1 SCW      0.137000
     35 H20         3.7250   -4.7780    1.7030 ha        1 SCW      0.135000
     36 H21         2.7640   -6.4940    0.1650 ha        1 SCW      0.135000
     37 H22         0.9820   -5.8490   -1.4600 ha        1 SCW      0.135000
     38 H23         0.1640   -3.4980   -1.5500 ha        1 SCW      0.137000
@<TRIPOS>BOND
     1    1    2 1   
     2    1    5 2   
     3    1   24 1   
     4    2    3 1   
     5    2    6 1   
     6    3    4 2   
     7    3    9 1   
     8    4    5 1   
     9    5   25 1   
    10    6    7 2   
    11    6   26 1   
    12    7    8 1   
    13    7   11 1   
    14    8    9 2   
    15    8   27 1   
    16    9   10 1   
    17   10   12 1   
    18   10   28 1   
    19   11   19 ar  
    20   11   23 ar  
    21   12   13 1   
    22   12   29 1   
    23   12   30 1   
    24   13   14 ar  
    25   13   18 ar  
    26   14   15 ar  
    27   14   31 1   
    28   15   16 ar  
    29   16   17 ar  
    30   16   32 1   
    31   17   18 ar  
    32   18   33 1   
    33   19   20 ar  
    34   19   34 1   
    35   20   21 ar  
    36   20   35 1   
    37   21   22 ar  
    38   21   36 1   
    39   22   23 ar  
    40   22   37 1   
    41   23   38 1   
@<TRIPOS>SUBSTRUCTURE
     1 SCW         1 TEMP              0 ****  ****    0 ROOT
