@<TRIPOS>MOLECULE
SCW
   39    42     1     0     0
SMALL
bcc


@<TRIPOS>ATOM
      1 C01        -0.0570    0.1280   -0.0810 cc        1 SCW     -0.147400
      2 N02         1.3460    0.0840   -0.0860 na        1 SCW      0.047700
      3 C03         1.7430    0.0440    1.2890 cc        1 SCW     -0.054300
      4 N04         0.6590    0.0620    2.1200 nd        1 SCW     -0.304600
      5 C05        -0.4420    0.1140    1.2880 cd        1 SCW      0.095600
      6 C06         2.2800    0.0720   -1.0880 cc        1 SCW      0.003700
      7 C07         3.6350    0.0220   -0.7830 cd        1 SCW     -0.062000
      8 C08         4.0730   -0.0210    0.5730 cd        1 SCW     -0.026000
      9 C09         3.1510   -0.0070    1.5990 cc        1 SCW     -0.053400
     10 N10         3.4690   -0.0380    3.0220 n4        1 SCW     -0.617400
     11 C11         4.6230    0.0190   -1.8580 ca        1 SCW     -0.079000
     12 C12         4.9370   -0.0580    3.3370 c3        1 SCW      0.191100
     13 C13         5.1630   -0.0690    4.8000 ca        1 SCW     -0.446900
     14 C14         5.2920   -1.2800    5.5220 ca        1 SCW      0.472700
     15 N15         5.5450   -1.3030    6.8420 nb        1 SCW     -0.667000
     16 C16         5.6800   -0.0910    7.4520 ca        1 SCW      0.687900
     17 N17         5.5830    1.1310    6.8540 nb        1 SCW     -0.667000
     18 C18         5.3290    1.1300    5.5340 ca        1 SCW      0.472700
     19 C19         4.4920    0.9040   -2.9380 ca        1 SCW     -0.112000
     20 C20         5.4350    0.8970   -3.9640 ca        1 SCW     -0.118000
     21 C21         6.5100    0.0090   -3.9230 ca        1 SCW     -0.097000
     22 C22         6.6420   -0.8760   -2.8520 ca        1 SCW     -0.118000
     23 C23         5.7050   -0.8720   -1.8210 ca        1 SCW     -0.112000
     24 BR24       -1.1040    0.1890   -1.5810 br        1 SCW      0.067300
     25 H05        -1.4620    0.1380    1.6860 h4        1 SCW      0.218000
     26 H06         1.9080    0.1000   -2.1320 h4        1 SCW      0.210000
     27 H08         5.1610   -0.0580    0.7540 ha        1 SCW      0.169000
     28 HN10        3.0380    0.7890    3.4640 hn        1 SCW      0.466300
     29 H121        5.3780   -0.9800    2.8570 hx        1 SCW      0.110200
     30 H122        5.4010    0.8580    2.8680 hx        1 SCW      0.110200
     31 H14         5.1980   -2.2650    5.0260 h4        1 SCW      0.040600
     32 H16         5.8930   -0.1000    8.5460 h5        1 SCW      0.089100
     33 H18         5.2660    2.1220    5.0480 h4        1 SCW      0.040600
     34 H19         3.6500    1.6120   -2.9720 ha        1 SCW      0.132000
     35 H20         5.3290    1.5970   -4.8080 ha        1 SCW      0.151500
     36 H21         7.2520    0.0040   -4.7370 ha        1 SCW      0.154000
     37 H22         7.4860   -1.5820   -2.8220 ha        1 SCW      0.151500
     38 H23         5.8060   -1.5820   -0.9870 ha        1 SCW      0.132000
     39 H102        3.0210   -0.8720    3.4320 hn        1 SCW      0.466300
@<TRIPOS>BOND
     1    1    2 1   
     2    1    5 2   
     3    1   24 1   
     4    2    3 1   
     5    2    6 1   
     6    3    4 2   
     7    3    9 1   
     8    4    5 1   
     9    5   25 1   
    10    6    7 2   
    11    6   26 1   
    12    7    8 1   
    13    7   11 1   
    14    8    9 2   
    15    8   27 1   
    16    9   10 1   
    17   10   12 1   
    18   10   28 1   
    19   10   39 1   
    20   11   19 ar  
    21   11   23 ar  
    22   12   13 1   
    23   12   29 1   
    24   12   30 1   
    25   13   14 ar  
    26   13   18 ar  
    27   14   15 ar  
    28   14   31 1   
    29   15   16 ar  
    30   16   17 ar  
    31   16   32 1   
    32   17   18 ar  
    33   18   33 1   
    34   19   20 ar  
    35   19   34 1   
    36   20   21 ar  
    37   20   35 1   
    38   21   22 ar  
    39   21   36 1   
    40   22   23 ar  
    41   22   37 1   
    42   23   38 1   
@<TRIPOS>SUBSTRUCTURE
     1 SCW         1 TEMP              0 ****  ****    0 ROOT
