@<TRIPOS>MOLECULE
SCX
   47    50     1     0     0
SMALL
bcc


@<TRIPOS>ATOM
      1 C01         0.6190   -0.1450    0.2320 cc        1 SCX     -0.151800
      2 C02         2.0060   -0.2410   -0.0610 cd        1 SCX      0.365500
      3 N03         2.6420   -0.3990    1.2540 na        1 SCX      0.005200
      4 N04         1.7540   -0.4080    2.2530 nd        1 SCX     -0.632100
      5 C05         0.5310   -0.2550    1.6660 cc        1 SCX      0.416500
      6 N06         2.7250   -0.2090   -1.2230 nd        1 SCX     -0.530000
      7 C07         4.0440   -0.3570   -1.1510 cc        1 SCX      0.511800
      8 C08         4.7500   -0.5420    0.1090 cc        1 SCX     -0.175300
      9 C09         4.0280   -0.5620    1.2870 cd        1 SCX      0.028300
     10 N10         4.6810   -0.7690    2.5990 n4        1 SCX     -0.632400
     11 C11         4.8620   -0.3370   -2.3720 ca        1 SCX     -0.280500
     12 C12         4.7680    0.5040    3.3940 c3        1 SCX      0.167100
     13 C13         4.6780    0.2820    4.8650 ca        1 SCX     -0.354900
     14 C14         5.7930    0.4860    5.7100 ca        1 SCX      0.496200
     15 N15         5.7070    0.3980    7.0530 nb        1 SCX     -0.641000
     16 C16         4.4630    0.0990    7.5510 ca        1 SCX      0.733900
     17 N17         3.3170   -0.1270    6.8260 nb        1 SCX     -0.641000
     18 C18         3.4450   -0.0260    5.4890 ca        1 SCX      0.496200
     19 C19         5.9940    0.5080   -2.4700 ca        1 SCX      0.185400
     20 C20         6.7460    0.5720   -3.6520 ca        1 SCX     -0.168000
     21 C21         6.3800   -0.2130   -4.7450 ca        1 SCX     -0.038000
     22 C22         5.2840   -1.0630   -4.6760 ca        1 SCX     -0.168000
     23 C23         4.5190   -1.1280   -3.4940 ca        1 SCX      0.185400
     24 C24        -0.4680    0.0290   -0.7380 c3        1 SCX     -0.029200
     25 N25         4.3380    0.0240    9.0360 n4        1 SCX     -0.819300
     26 C26        -1.8310    0.0860   -0.0950 c3        1 SCX     -0.101100
     27 F27         6.3580    1.2720   -1.4100 f         1 SCX     -0.128900
     28 F28         3.4670   -1.9720   -3.4380 f         1 SCX     -0.128900
     29 H05        -0.3890   -0.2260    2.2630 h4        1 SCX      0.085800
     30 H08         5.8460   -0.6540    0.0760 ha        1 SCX      0.189000
     31 HN10        5.6250   -1.1390    2.4250 hn        1 SCX      0.470800
     32 H121        5.7410    1.0120    3.1220 hx        1 SCX      0.141200
     33 H122        3.9220    1.1900    3.0770 hx        1 SCX      0.141200
     34 H14         6.8020    0.7470    5.3220 h4        1 SCX      0.093100
     35 H18         2.5070   -0.1880    4.9100 h4        1 SCX      0.093100
     36 H20         7.6150    1.2470   -3.7080 ha        1 SCX      0.179000
     37 H21         6.9700   -0.1550   -5.6770 ha        1 SCX      0.174000
     38 H22         4.9940   -1.6870   -5.5370 ha        1 SCX      0.179000
     39 H241       -0.2860    0.9740   -1.3250 hc        1 SCX      0.085200
     40 H242       -0.4340   -0.8200   -1.4790 hc        1 SCX      0.085200
     41 H251        3.7880    0.8330    9.3650 hn        1 SCX      0.497133
     42 H252        3.8500   -0.8460    9.2990 hn        1 SCX      0.497133
     43 H261       -1.9040    0.9440    0.6150 hc        1 SCX      0.050033
     44 H262       -2.6110    0.2160   -0.8860 hc        1 SCX      0.050033
     45 H263       -2.0510   -0.8570    0.4620 hc        1 SCX      0.050033
     46 H102        4.1470   -1.4760    3.1280 hn        1 SCX      0.470800
     47 H253        5.2710    0.0440    9.4760 hn        1 SCX      0.497133
@<TRIPOS>BOND
     1    1    2 2   
     2    1    5 1   
     3    1   24 1   
     4    2    3 1   
     5    2    6 1   
     6    3    4 1   
     7    3    9 1   
     8    4    5 2   
     9    5   29 1   
    10    6    7 2   
    11    7    8 1   
    12    7   11 1   
    13    8    9 2   
    14    8   30 1   
    15    9   10 1   
    16   10   12 1   
    17   10   31 1   
    18   10   46 1   
    19   11   19 ar  
    20   11   23 ar  
    21   12   13 1   
    22   12   32 1   
    23   12   33 1   
    24   13   14 ar  
    25   13   18 ar  
    26   14   15 ar  
    27   14   34 1   
    28   15   16 ar  
    29   16   17 ar  
    30   16   25 1   
    31   17   18 ar  
    32   18   35 1   
    33   19   20 ar  
    34   19   27 1   
    35   20   21 ar  
    36   20   36 1   
    37   21   22 ar  
    38   21   37 1   
    39   22   23 ar  
    40   22   38 1   
    41   23   28 1   
    42   24   26 1   
    43   24   39 1   
    44   24   40 1   
    45   25   41 1   
    46   25   42 1   
    47   25   47 1   
    48   26   43 1   
    49   26   44 1   
    50   26   45 1   
@<TRIPOS>SUBSTRUCTURE
     1 SCX         1 TEMP              0 ****  ****    0 ROOT
