@<TRIPOS>MOLECULE
SCX
   45    32     1     0     0
SMALL
bcc


@<TRIPOS>ATOM
      1 C01        -3.1510   -0.1470   -1.2240 c1        1 SCX     -0.167000
      2 C02        -1.7610   -0.0540   -1.2620 c1        1 SCX     -0.040500
      3 N03        -1.3160    0.0600    0.0090 n1        1 SCX     -0.170000
      4 N04        -2.4210    0.0410    0.8550 n1        1 SCX     -0.115000
      5 C05        -3.5420   -0.0870    0.0860 c1        1 SCX     -0.040500
      6 N06        -0.8560   -0.0660   -2.3160 n1        1 SCX     -0.115000
      7 C07         0.4510    0.0360   -2.0740 c1        1 SCX      0.091000
      8 C08         0.9030    0.1530   -0.7830 c1        1 SCX     -0.308000
      9 C09         0.0120    0.1640    0.2560 c1        1 SCX      0.200500
     10 N10         0.1380    0.1140    1.6750 n2        1 SCX     -0.297000
     11 C11         1.3840   -0.0640   -3.1320 c1        1 SCX      0.021000
     12 C12         0.9420    1.1010    2.3650 c3        1 SCX      0.027000
     13 C13         1.2800    0.5880    3.7860 c1        1 SCX     -0.293000
     14 C14         0.3160    0.5950    4.7570 c1        1 SCX      0.026000
     15 N15         0.6460    0.3180    6.0390 n1        1 SCX     -0.231000
     16 C16         1.9390    0.0320    6.3650 c1        1 SCX      0.200500
     17 N17         2.9020    0.0250    5.3970 n1        1 SCX     -0.170000
     18 C18         2.5760    0.3010    4.1150 c1        1 SCX      0.028000
     19 C19         1.9260    1.0990   -3.6810 c1        1 SCX      0.135000
     20 C20         2.7110    1.0270   -4.8240 c1        1 SCX     -0.188000
     21 C21         2.9580   -0.2110   -5.4240 c1        1 SCX     -0.130000
     22 C22         2.4200   -1.3670   -4.8780 c1        1 SCX     -0.130000
     23 C23         1.6310   -1.2940   -3.7300 c1        1 SCX      0.021000
     24 C24        -4.1780    0.0320   -2.3500 c2        1 SCX     -0.084000
     25 N25         2.3030   -0.1440    7.7200 n2        1 SCX     -0.340000
     26 C26        -5.0740   -1.2330   -2.4420 c3        1 SCX     -0.207000
     27 F27         1.6010    2.3250   -3.1480 f         1 SCX     -0.096000
     28 F28         1.4160   -2.4980   -3.1860 f         1 SCX     -0.082000
     29 H05        -4.4630   -0.1500    0.4160 DU        1 SCX      0.183000
     30 H08         1.8610    0.2270   -0.6050 ha        1 SCX      0.162000
     31 HN10       -0.2400   -0.5850    2.1470 hn        1 SCX      0.238000
     32 H121        0.4410    1.9400    2.4320 h1        1 SCX      0.095500
     33 H122        1.7790    1.2560    1.8610 h1        1 SCX      0.095500
     34 H14        -0.6060    0.7980    4.5250 ha        1 SCX      0.167000
     35 H18         3.2610    0.2960    3.4300 ha        1 SCX      0.173000
     36 H20         3.0970    1.8550   -5.2160 ha        1 SCX      0.155000
     37 H21         3.5060   -0.2610   -6.2210 ha        1 SCX      0.151500
     38 H22         2.5990   -2.2630   -5.3130 ha        1 SCX      0.151500
     39 H241       -3.7100    0.1620   -3.1980 ha        1 SCX      0.093500
     40 H242       -4.7370    0.8140   -2.1620 ha        1 SCX      0.093500
     41 H251        3.1800   -0.3480    7.9410 hn        1 SCX      0.240000
     42 H252        1.6680   -0.0840    8.3760 hn        1 SCX      0.240000
     43 H261       -5.9930   -0.9690   -2.6850 hc        1 SCX      0.073333
     44 H262       -5.0830   -1.6920   -1.5720 hc        1 SCX      0.073333
     45 H263       -4.7140   -1.8420   -3.1310 hc        1 SCX      0.073333
@<TRIPOS>BOND
     1    1    2 1   
     2    1    5 1   
     3    2    6 1   
     4    3    9 1   
     5    4    5 1   
     6    7    8 1   
     7    8   30 1   
     8   10   12 1   
     9   10   31 1   
    10   11   23 1   
    11   12   13 1   
    12   12   32 1   
    13   12   33 1   
    14   13   18 1   
    15   14   15 1   
    16   14   34 1   
    17   16   17 1   
    18   18   35 1   
    19   19   20 1   
    20   19   27 1   
    21   20   36 1   
    22   21   22 1   
    23   21   37 1   
    24   22   38 1   
    25   24   26 1   
    26   24   39 1   
    27   24   40 1   
    28   25   41 1   
    29   25   42 1   
    30   26   43 1   
    31   26   44 1   
    32   26   45 1   
@<TRIPOS>SUBSTRUCTURE
     1 SCX         1 TEMP              0 ****  ****    0 ROOT
