@<TRIPOS>MOLECULE
SCX
   45    48     1     0     0
SMALL
bcc


@<TRIPOS>ATOM
      1 C01         0.0500   -0.0850   -0.1420 cc        1 SCX     -0.258800
      2 C02         1.4700   -0.1100   -0.1540 cd        1 SCX      0.390500
      3 N03         1.8510   -0.2550    1.2410 na        1 SCX      0.005200
      4 N04         0.7800   -0.3230    2.0500 nd        1 SCX     -0.580100
      5 C05        -0.3100   -0.2200    1.2450 cc        1 SCX      0.385500
      6 N06         2.3820   -0.0140   -1.1780 nd        1 SCX     -0.644000
      7 C07         3.6670   -0.0790   -0.8350 cc        1 SCX      0.527800
      8 C08         4.1300   -0.2480    0.5120 cc        1 SCX     -0.376300
      9 C09         3.2180   -0.3480    1.5720 cd        1 SCX      0.288300
     10 N10         3.6080   -0.5940    2.8870 nu        1 SCX     -0.744600
     11 C11         4.6950    0.0350   -1.8890 ca        1 SCX     -0.221500
     12 C12         4.9540   -0.2280    3.2830 c3        1 SCX      0.273100
     13 C13         5.1070   -0.1150    4.7590 ca        1 SCX     -0.431900
     14 C14         5.0230   -1.2440    5.6030 ca        1 SCX      0.492700
     15 N15         5.1870   -1.1880    6.9280 nb        1 SCX     -0.756500
     16 C16         5.4650    0.0730    7.4640 ca        1 SCX      0.891900
     17 N17         5.5480    1.2480    6.7100 nb        1 SCX     -0.756500
     18 C18         5.3700    1.1170    5.3910 ca        1 SCX      0.492700
     19 C19         4.7450    1.1670   -2.7320 ca        1 SCX      0.179400
     20 C20         5.7230    1.2700   -3.7400 ca        1 SCX     -0.189500
     21 C21         6.6470    0.2460   -3.9130 ca        1 SCX     -0.071000
     22 C22         6.6210   -0.8800   -3.0980 ca        1 SCX     -0.189500
     23 C23         5.6480   -0.9890   -2.0870 ca        1 SCX      0.179400
     24 C24        -0.8490    0.0680   -1.2900 c3        1 SCX     -0.001200
     25 N25         5.7140    0.1580    8.8220 nv        1 SCX     -0.942500
     26 C26        -1.8700   -1.0430   -1.3750 c3        1 SCX     -0.089100
     27 F27         3.8640    2.1800   -2.5730 f         1 SCX     -0.123400
     28 F28         5.6390   -2.0950   -1.3070 f         1 SCX     -0.123400
     29 H05        -1.3210   -0.2430    1.6580 h4        1 SCX      0.052800
     30 H08         5.2090   -0.3320    0.6920 ha        1 SCX      0.162000
     31 HN10        2.9120   -0.5110    3.5990 hn        1 SCX      0.444800
     32 H121        5.2610    0.7470    2.7970 h1        1 SCX      0.055200
     33 H122        5.6480   -1.0320    2.8970 h1        1 SCX      0.055200
     34 H14         4.8070   -2.2470    5.1870 h4        1 SCX      0.032600
     35 H18         5.4420    2.0550    4.8070 h4        1 SCX      0.032600
     36 H20         5.7400    2.1620   -4.3830 ha        1 SCX      0.155500
     37 H21         7.4070    0.3270   -4.7060 ha        1 SCX      0.145000
     38 H22         7.3490   -1.6930   -3.2330 ha        1 SCX      0.155500
     39 H241       -0.2500    0.0970   -2.2400 hc        1 SCX      0.054200
     40 H242       -1.3830    1.0560   -1.2060 hc        1 SCX      0.054200
     41 H251        5.7640    1.0530    9.2430 hn        1 SCX      0.445300
     42 H252        5.5160   -0.6270    9.3930 hn        1 SCX      0.445300
     43 H261       -2.4770   -1.0950   -0.4390 hc        1 SCX      0.033700
     44 H262       -2.5580   -0.8620   -2.2360 hc        1 SCX      0.033700
     45 H263       -1.3690   -2.0290   -1.5230 hc        1 SCX      0.033700
@<TRIPOS>BOND
     1    1    2 2   
     2    1    5 1   
     3    1   24 1   
     4    2    3 1   
     5    2    6 1   
     6    3    4 1   
     7    3    9 1   
     8    4    5 2   
     9    5   29 1   
    10    6    7 2   
    11    7    8 1   
    12    7   11 1   
    13    8    9 2   
    14    8   30 1   
    15    9   10 1   
    16   10   12 1   
    17   10   31 1   
    18   11   19 ar  
    19   11   23 ar  
    20   12   13 1   
    21   12   32 1   
    22   12   33 1   
    23   13   14 ar  
    24   13   18 ar  
    25   14   15 ar  
    26   14   34 1   
    27   15   16 ar  
    28   16   17 ar  
    29   16   25 1   
    30   17   18 ar  
    31   18   35 1   
    32   19   20 ar  
    33   19   27 1   
    34   20   21 ar  
    35   20   36 1   
    36   21   22 ar  
    37   21   37 1   
    38   22   23 ar  
    39   22   38 1   
    40   23   28 1   
    41   24   26 1   
    42   24   39 1   
    43   24   40 1   
    44   25   41 1   
    45   25   42 1   
    46   26   43 1   
    47   26   44 1   
    48   26   45 1   
@<TRIPOS>SUBSTRUCTURE
     1 SCX         1 TEMP              0 ****  ****    0 ROOT
