@<TRIPOS>MOLECULE
SCX
   45    48     1     0     0
SMALL
bcc


@<TRIPOS>ATOM
      1 C01         2.0020    3.3030    0.0550 cc        1 SCX     -0.258800
      2 C02         1.7400    1.9090    0.1070 cd        1 SCX      0.390500
      3 N03         0.2940    1.8070    0.2290 na        1 SCX      0.005200
      4 N04        -0.2930    3.0150    0.2590 nd        1 SCX     -0.580100
      5 C05         0.7090    3.9270    0.1530 cc        1 SCX      0.385500
      6 N06         2.5690    0.8150    0.0520 nd        1 SCX     -0.644000
      7 C07         1.9840   -0.3780    0.1350 cc        1 SCX      0.527800
      8 C08         0.5690   -0.5690    0.2820 cc        1 SCX     -0.376300
      9 C09        -0.2960    0.5320    0.3420 cd        1 SCX      0.288300
     10 N10        -1.6660    0.4090    0.5660 nh        1 SCX     -0.744600
     11 C11         2.8210   -1.5920    0.0640 ca        1 SCX     -0.221500
     12 C12        -2.3070   -0.8440    0.2170 c3        1 SCX      0.273100
     13 C13        -3.7820   -0.7130    0.0750 ca        1 SCX     -0.431900
     14 C14        -4.4310   -0.8770   -1.1660 ca        1 SCX      0.492700
     15 N15        -5.7580   -0.8010   -1.3220 nb        1 SCX     -0.756500
     16 C16        -6.5020   -0.5470   -0.1670 ca        1 SCX      0.891900
     17 N17        -5.9460   -0.3480    1.1010 nb        1 SCX     -0.756500
     18 C18        -4.6140   -0.4420    1.1830 ca        1 SCX      0.492700
     19 C19         2.8130   -2.5410    1.1100 ca        1 SCX      0.179400
     20 C20         3.6190   -3.6930    1.0430 ca        1 SCX     -0.189500
     21 C21         4.4340   -3.9020   -0.0650 ca        1 SCX     -0.071000
     22 C22         4.4610   -2.9860   -1.1100 ca        1 SCX     -0.189500
     23 C23         3.6590   -1.8300   -1.0480 ca        1 SCX      0.179400
     24 C24         3.3080    3.9610   -0.0510 c3        1 SCX     -0.002200
     25 N25        -7.8810   -0.5310   -0.2760 nh        1 SCX     -0.942500
     26 C26         3.3680    4.9450   -1.1960 c3        1 SCX     -0.089100
     27 F27         2.0300   -2.3570    2.1990 f         1 SCX     -0.123400
     28 F28         3.6920   -0.9590   -2.0810 f         1 SCX     -0.123400
     29 H05         0.4980    4.9990    0.1460 h4        1 SCX      0.052800
     30 H08         0.1830   -1.5910    0.3830 ha        1 SCX      0.162000
     31 HN10       -2.2280    1.2260    0.4540 hn        1 SCX      0.444800
     32 H121       -1.8720   -1.2620   -0.7400 h1        1 SCX      0.055200
     33 H122       -2.0760   -1.5810    1.0430 h1        1 SCX      0.055200
     34 H14        -3.8560   -1.0820   -2.0900 h4        1 SCX      0.032600
     35 H18        -4.1830   -0.2870    2.1910 h4        1 SCX      0.032600
     36 H20         3.5970   -4.4150    1.8730 ha        1 SCX      0.155500
     37 H21         5.0660   -4.8020   -0.1130 ha        1 SCX      0.145000
     38 H22         5.1040   -3.1470   -1.9870 ha        1 SCX      0.155500
     39 H241        3.5240    4.5010    0.9130 hc        1 SCX      0.054700
     40 H242        4.1130    3.1870   -0.1820 hc        1 SCX      0.054700
     41 H251       -8.2880   -0.5210   -1.1800 hn        1 SCX      0.445300
     42 H252       -8.4170   -0.2100    0.4920 hn        1 SCX      0.445300
     43 H261        4.3640    5.4520   -1.2110 hc        1 SCX      0.033367
     44 H262        3.2210    4.4240   -2.1720 hc        1 SCX      0.033367
     45 H263        2.5750    5.7240   -1.0900 hc        1 SCX      0.033367
@<TRIPOS>BOND
     1    1    2 2   
     2    1    5 1   
     3    1   24 1   
     4    2    3 1   
     5    2    6 1   
     6    3    4 1   
     7    3    9 1   
     8    4    5 2   
     9    5   29 1   
    10    6    7 2   
    11    7    8 1   
    12    7   11 1   
    13    8    9 2   
    14    8   30 1   
    15    9   10 1   
    16   10   12 1   
    17   10   31 1   
    18   11   19 ar  
    19   11   23 ar  
    20   12   13 1   
    21   12   32 1   
    22   12   33 1   
    23   13   14 ar  
    24   13   18 ar  
    25   14   15 ar  
    26   14   34 1   
    27   15   16 ar  
    28   16   17 ar  
    29   16   25 1   
    30   17   18 ar  
    31   18   35 1   
    32   19   20 ar  
    33   19   27 1   
    34   20   21 ar  
    35   20   36 1   
    36   21   22 ar  
    37   21   37 1   
    38   22   23 ar  
    39   22   38 1   
    40   23   28 1   
    41   24   26 1   
    42   24   39 1   
    43   24   40 1   
    44   25   41 1   
    45   25   42 1   
    46   26   43 1   
    47   26   44 1   
    48   26   45 1   
@<TRIPOS>SUBSTRUCTURE
     1 SCX         1 TEMP              0 ****  ****    0 ROOT
