@<TRIPOS>MOLECULE
SCX
   45    48     1     0     0
SMALL
bcc


@<TRIPOS>ATOM
      1 C01         0.0480   -0.0970   -0.1360 cc        1 SCX     -0.258800
      2 C02         1.4670   -0.1160   -0.1500 cd        1 SCX      0.390500
      3 N03         1.8520   -0.2610    1.2450 na        1 SCX      0.005200
      4 N04         0.7830   -0.3360    2.0550 nd        1 SCX     -0.580100
      5 C05        -0.3100   -0.2350    1.2530 cc        1 SCX      0.385500
      6 N06         2.3760   -0.0140   -1.1750 nd        1 SCX     -0.644000
      7 C07         3.6630   -0.0750   -0.8350 cc        1 SCX      0.527800
      8 C08         4.1300   -0.2440    0.5110 cc        1 SCX     -0.376300
      9 C09         3.2200   -0.3500    1.5730 cd        1 SCX      0.288300
     10 N10         3.6130   -0.5960    2.8860 nh        1 SCX     -0.744600
     11 C11         4.6880    0.0450   -1.8910 ca        1 SCX     -0.221500
     12 C12         4.9580   -0.2250    3.2800 c3        1 SCX      0.273100
     13 C13         5.1140   -0.1140    4.7550 ca        1 SCX     -0.431900
     14 C14         5.0360   -1.2440    5.5980 ca        1 SCX      0.492700
     15 N15         5.2030   -1.1890    6.9230 nb        1 SCX     -0.756500
     16 C16         5.4770    0.0730    7.4600 ca        1 SCX      0.891900
     17 N17         5.5540    1.2480    6.7080 nb        1 SCX     -0.756500
     18 C18         5.3730    1.1190    5.3880 ca        1 SCX      0.492700
     19 C19         4.7310    1.1790   -2.7320 ca        1 SCX      0.179400
     20 C20         5.7070    1.2880   -3.7420 ca        1 SCX     -0.189500
     21 C21         6.6350    0.2680   -3.9190 ca        1 SCX     -0.071000
     22 C22         6.6160   -0.8600   -3.1050 ca        1 SCX     -0.189500
     23 C23         5.6450   -0.9740   -2.0930 ca        1 SCX      0.179400
     24 C24        -0.8550    0.0540   -1.2810 c3        1 SCX     -0.001200
     25 N25         5.7290    0.1570    8.8180 nh        1 SCX     -0.942500
     26 C26        -1.8720   -1.0600   -1.3660 c3        1 SCX     -0.089100
     27 F27         3.8470    2.1880   -2.5700 f         1 SCX     -0.123400
     28 F28         5.6420   -2.0820   -1.3150 f         1 SCX     -0.123400
     29 H05        -1.3190   -0.2630    1.6680 h4        1 SCX      0.052800
     30 H08         5.2090   -0.3240    0.6880 ha        1 SCX      0.162000
     31 HN10        2.9190   -0.5180    3.5990 hn        1 SCX      0.444800
     32 H121        5.6550   -1.0260    2.8910 h1        1 SCX      0.055200
     33 H122        5.2610    0.7510    2.7940 h1        1 SCX      0.055200
     34 H14         4.8240   -2.2470    5.1810 h4        1 SCX      0.032600
     35 H18         5.4410    2.0580    4.8060 h4        1 SCX      0.032600
     36 H20         5.7190    2.1810   -4.3830 ha        1 SCX      0.155500
     37 H21         7.3930    0.3530   -4.7130 ha        1 SCX      0.145000
     38 H22         7.3460   -1.6700   -3.2440 ha        1 SCX      0.155500
     39 H241       -0.2580    0.0870   -2.2320 hc        1 SCX      0.054200
     40 H242       -1.3920    1.0400   -1.1940 hc        1 SCX      0.054200
     41 H251        5.7770    1.0520    9.2400 hn        1 SCX      0.445300
     42 H252        5.5360   -0.6300    9.3880 hn        1 SCX      0.445300
     43 H261       -2.5620   -0.8810   -2.2250 hc        1 SCX      0.033700
     44 H262       -2.4760   -1.1160   -0.4290 hc        1 SCX      0.033700
     45 H263       -1.3670   -2.0450   -1.5160 hc        1 SCX      0.033700
@<TRIPOS>BOND
     1    1    2 2   
     2    1    5 1   
     3    1   24 1   
     4    2    3 1   
     5    2    6 1   
     6    3    4 1   
     7    3    9 1   
     8    4    5 2   
     9    5   29 1   
    10    6    7 2   
    11    7    8 1   
    12    7   11 1   
    13    8    9 2   
    14    8   30 1   
    15    9   10 1   
    16   10   12 1   
    17   10   31 1   
    18   11   19 ar  
    19   11   23 ar  
    20   12   13 1   
    21   12   32 1   
    22   12   33 1   
    23   13   14 ar  
    24   13   18 ar  
    25   14   15 ar  
    26   14   34 1   
    27   15   16 ar  
    28   16   17 ar  
    29   16   25 1   
    30   17   18 ar  
    31   18   35 1   
    32   19   20 ar  
    33   19   27 1   
    34   20   21 ar  
    35   20   36 1   
    36   21   22 ar  
    37   21   37 1   
    38   22   23 ar  
    39   22   38 1   
    40   23   28 1   
    41   24   26 1   
    42   24   39 1   
    43   24   40 1   
    44   25   41 1   
    45   25   42 1   
    46   26   43 1   
    47   26   44 1   
    48   26   45 1   
@<TRIPOS>SUBSTRUCTURE
     1 SCX         1 TEMP              0 ****  ****    0 ROOT
