@<TRIPOS>MOLECULE
SCY
   18    17     1     0     0
SMALL
bcc


@<TRIPOS>ATOM
      1 N          -1.5530   -0.7510   -0.8050 n3        1 SCY     -0.887800
      2 CA         -0.5100    0.2200   -1.1060 c3        1 SCY      0.016500
      3 CB          0.6550    0.1790   -0.1360 c3        1 SCY      0.024700
      4 SG          0.2630    0.9380    1.4330 ss        1 SCY     -0.281700
      5 CD          0.2610   -0.3010    2.6030 c         1 SCY      0.566700
      6 OCD         0.5650   -1.4930    2.4580 o         1 SCY     -0.561100
      7 CE         -0.1570    0.2430    3.9350 c3        1 SCY     -0.190100
      8 C           0.0700    0.1220   -2.5670 c         1 SCY      0.893600
      9 O          -0.5180   -0.6460   -3.3770 o         1 SCY     -0.833300
     10 OXT         1.0700    0.8380   -2.8410 o         1 SCY     -0.833300
     11 H          -1.1340   -1.6620   -0.7300 hn        1 SCY      0.336300
     12 H2         -2.1630   -0.7860   -1.6060 hn        1 SCY      0.336300
     13 HA         -0.9940    1.2390   -1.0410 h1        1 SCY      0.054700
     14 HB2         1.4880    0.7930   -0.5680 h1        1 SCY      0.093700
     15 HB3         1.0190   -0.8620    0.0370 h1        1 SCY      0.093700
     16 HE1         0.5920   -0.0410    4.7130 hc        1 SCY      0.057367
     17 HE2        -0.2530    1.3560    3.9070 hc        1 SCY      0.057367
     18 HE3        -1.1450   -0.1970    4.2150 hc        1 SCY      0.057367
@<TRIPOS>BOND
     1    1    2 1   
     2    1   11 1   
     3    1   12 1   
     4    2    3 1   
     5    2    8 1   
     6    2   13 1   
     7    3    4 1   
     8    3   14 1   
     9    3   15 1   
    10    4    5 1   
    11    5    6 2   
    12    5    7 1   
    13    7   16 1   
    14    7   17 1   
    15    7   18 1   
    16    8    9 1   
    17    8   10 1   
@<TRIPOS>SUBSTRUCTURE
     1 SCY         1 TEMP              0 ****  ****    0 ROOT
