@<TRIPOS>MOLECULE
SCZ
   45    49     1     0     0
SMALL
bcc


@<TRIPOS>ATOM
      1 C01        -0.0330   -0.1830   -0.0540 cc        1 SCZ     -0.236800
      2 C02         1.3890   -0.1740   -0.0950 cd        1 SCZ      0.397500
      3 N03         1.8000   -0.3140    1.2920 na        1 SCZ      0.004200
      4 N04         0.7470   -0.4120    2.1220 nd        1 SCZ     -0.581100
      5 C05        -0.3610   -0.3320    1.3410 cc        1 SCZ      0.387500
      6 N06         2.2760   -0.0550   -1.1360 nd        1 SCZ     -0.659000
      7 C07         3.5720   -0.0870   -0.8250 cc        1 SCZ      0.531800
      8 C08         4.0620   -0.2440    0.5170 cc        1 SCZ     -0.382300
      9 C09         3.1740   -0.3740    1.5930 cd        1 SCZ      0.283300
     10 N10         3.5960   -0.6230    2.9000 nh        1 SCZ     -0.741600
     11 C11         4.5790    0.0370   -1.8970 ca        1 SCZ     -0.154500
     12 C12         4.9330   -0.2100    3.2730 c3        1 SCZ      0.252100
     13 C13         5.1200   -0.1090    4.7540 ca        1 SCZ     -0.233600
     14 C14         5.6130    1.0810    5.3290 ca        1 SCZ      0.410200
     15 N15         5.8400    1.2290    6.6470 nb        1 SCZ     -0.661000
     16 C16         5.5710    0.1780    7.4460 ca        1 SCZ      0.404200
     17 C17         5.0730   -1.0500    6.9690 ca        1 SCZ     -0.245300
     18 C18         4.8470   -1.1900    5.6000 ca        1 SCZ     -0.076000
     19 C19         5.7080    0.8430   -1.7000 ca        1 SCZ     -0.099000
     20 C20         6.6680    0.9570   -2.7030 ca        1 SCZ     -0.137000
     21 C21         6.5080    0.2680   -3.9060 ca        1 SCZ     -0.116000
     22 C22         5.3830   -0.5300   -4.1070 ca        1 SCZ     -0.137000
     23 C23         4.4160   -0.6450   -3.1090 ca        1 SCZ     -0.099000
     24 C24        -0.9300   -0.0650   -1.1820 cx        1 SCZ     -0.037500
     25 C25        -2.2260   -0.8410   -1.2060 cx        1 SCZ     -0.130900
     26 C26        -2.2540    0.6460   -1.0290 cx        1 SCZ     -0.130900
     27 H05        -1.3630   -0.3790    1.7730 h4        1 SCZ      0.052800
     28 H08         5.1460   -0.2950    0.6810 ha        1 SCZ      0.161000
     29 HN10        2.9110   -0.5560    3.6250 hn        1 SCZ      0.443800
     30 H121        5.6520   -0.9850    2.8690 h1        1 SCZ      0.057200
     31 H122        5.1970    0.7790    2.7910 h1        1 SCZ      0.057200
     32 H14         5.8420    1.9620    4.7010 h4        1 SCZ      0.026100
     33 H16         5.7640    0.3320    8.5230 h4        1 SCZ      0.027100
     34 H17         4.8700   -1.8750    7.6640 ha        1 SCZ      0.149000
     35 H18         4.4630   -2.1360    5.1890 ha        1 SCZ      0.150000
     36 H19         5.8310    1.3950   -0.7560 ha        1 SCZ      0.142000
     37 H20         7.5510    1.5930   -2.5460 ha        1 SCZ      0.135000
     38 H21         7.2690    0.3590   -4.6960 ha        1 SCZ      0.133000
     39 H22         5.2530   -1.0700   -5.0570 ha        1 SCZ      0.135000
     40 H23         3.5250   -1.2700   -3.2760 ha        1 SCZ      0.142000
     41 H24        -0.3910    0.0600   -2.1460 hc        1 SCZ      0.099700
     42 H251       -2.4770   -1.4870   -0.3460 hc        1 SCZ      0.069700
     43 H252       -2.5600   -1.2790   -2.1630 hc        1 SCZ      0.069700
     44 H261       -2.6080    1.2830   -1.8580 hc        1 SCZ      0.069700
     45 H262       -2.5250    1.0620   -0.0430 hc        1 SCZ      0.069700
@<TRIPOS>BOND
     1    1    2 2   
     2    1    5 1   
     3    1   24 1   
     4    2    3 1   
     5    2    6 1   
     6    3    4 1   
     7    3    9 1   
     8    4    5 2   
     9    5   27 1   
    10    6    7 2   
    11    7    8 1   
    12    7   11 1   
    13    8    9 2   
    14    8   28 1   
    15    9   10 1   
    16   10   12 1   
    17   10   29 1   
    18   11   19 ar  
    19   11   23 ar  
    20   12   13 1   
    21   12   30 1   
    22   12   31 1   
    23   13   14 ar  
    24   13   18 ar  
    25   14   15 ar  
    26   14   32 1   
    27   15   16 ar  
    28   16   17 ar  
    29   16   33 1   
    30   17   18 ar  
    31   17   34 1   
    32   18   35 1   
    33   19   20 ar  
    34   19   36 1   
    35   20   21 ar  
    36   20   37 1   
    37   21   22 ar  
    38   21   38 1   
    39   22   23 ar  
    40   22   39 1   
    41   23   40 1   
    42   24   25 1   
    43   24   26 1   
    44   24   41 1   
    45   25   26 1   
    46   25   42 1   
    47   25   43 1   
    48   26   44 1   
    49   26   45 1   
@<TRIPOS>SUBSTRUCTURE
     1 SCZ         1 TEMP              0 ****  ****    0 ROOT
