@<TRIPOS>MOLECULE
SCZ
   45    49     1     0     0
SMALL
bcc


@<TRIPOS>ATOM
      1 C01         2.2430    2.6220    0.0020 cc        1 SCZ     -0.237800
      2 C02         1.7620    1.2850   -0.0540 cd        1 SCZ      0.397500
      3 N03         0.3240    1.4170   -0.2150 na        1 SCZ      0.004200
      4 N04        -0.0630    2.7030   -0.2680 nd        1 SCZ     -0.581100
      5 C05         1.0680    3.4440   -0.1360 cc        1 SCZ      0.387500
      6 N06         2.4040    0.0750    0.0290 nd        1 SCZ     -0.659000
      7 C07         1.6410   -1.0150   -0.0630 cc        1 SCZ      0.531800
      8 C08         0.2160   -0.9740   -0.2460 cc        1 SCZ     -0.382300
      9 C09        -0.4580    0.2510   -0.3380 cd        1 SCZ      0.283300
     10 N10        -1.8240    0.3470   -0.6100 nh        1 SCZ     -0.741600
     11 C11         2.2680   -2.3490    0.0180 ca        1 SCZ     -0.154500
     12 C12        -2.6680   -0.7760   -0.2600 c3        1 SCZ      0.252100
     13 C13        -4.1160   -0.4130   -0.1740 ca        1 SCZ     -0.233600
     14 C14        -4.8560   -0.7110    0.9900 ca        1 SCZ      0.410200
     15 N15        -6.1690   -0.4460    1.1220 nb        1 SCZ     -0.661000
     16 C16        -6.7920    0.1400    0.0810 ca        1 SCZ      0.404200
     17 C17        -6.1420    0.4790   -1.1200 ca        1 SCZ     -0.245300
     18 C18        -4.7820    0.1950   -1.2450 ca        1 SCZ     -0.076000
     19 C19         1.6570   -3.3590    0.7720 ca        1 SCZ     -0.099000
     20 C20         2.2370   -4.6230    0.8460 ca        1 SCZ     -0.137000
     21 C21         3.4280   -4.8880    0.1680 ca        1 SCZ     -0.116000
     22 C22         4.0420   -3.8830   -0.5790 ca        1 SCZ     -0.137000
     23 C23         3.4690   -2.6140   -0.6530 ca        1 SCZ     -0.099000
     24 C24         3.6190    3.0380    0.1630 cx        1 SCZ     -0.037500
     25 C25         4.1300    4.2660   -0.5540 cx        1 SCZ     -0.130900
     26 C26         3.9470    4.2970    0.9320 cx        1 SCZ     -0.130900
     27 H05         1.0330    4.5360   -0.1390 h4        1 SCZ      0.052800
     28 H08        -0.3310   -1.9190   -0.3460 ha        1 SCZ      0.161000
     29 HN10       -2.2490    1.2460   -0.5130 hn        1 SCZ      0.443800
     30 H121       -2.5380   -1.5610   -1.0650 h1        1 SCZ      0.057200
     31 H122       -2.3360   -1.2380    0.7180 h1        1 SCZ      0.057200
     32 H14        -4.3730   -1.1880    1.8620 h4        1 SCZ      0.026100
     33 H16        -7.8680    0.3470    0.2210 h4        1 SCZ      0.027100
     34 H17        -6.6970    0.9560   -1.9380 ha        1 SCZ      0.149000
     35 H18        -4.2390    0.4400   -2.1710 ha        1 SCZ      0.151000
     36 H19         0.7230   -3.1510    1.3160 ha        1 SCZ      0.142000
     37 H20         1.7560   -5.4130    1.4420 ha        1 SCZ      0.135000
     38 H21         3.8840   -5.8880    0.2270 ha        1 SCZ      0.133000
     39 H22         4.9830   -4.0880   -1.1090 ha        1 SCZ      0.135000
     40 H23         3.9620   -1.8210   -1.2360 ha        1 SCZ      0.142000
     41 H24         4.3160    2.1790    0.2680 hc        1 SCZ      0.099700
     42 H251        5.1520    4.2430   -0.9730 hc        1 SCZ      0.069700
     43 H252        3.4340    4.8400   -1.1910 hc        1 SCZ      0.069700
     44 H261        3.1200    4.8930    1.3560 hc        1 SCZ      0.069700
     45 H262        4.8350    4.2970    1.5870 hc        1 SCZ      0.069700
@<TRIPOS>BOND
     1    1    2 2   
     2    1    5 1   
     3    1   24 1   
     4    2    3 1   
     5    2    6 1   
     6    3    4 1   
     7    3    9 1   
     8    4    5 2   
     9    5   27 1   
    10    6    7 2   
    11    7    8 1   
    12    7   11 1   
    13    8    9 2   
    14    8   28 1   
    15    9   10 1   
    16   10   12 1   
    17   10   29 1   
    18   11   19 ar  
    19   11   23 ar  
    20   12   13 1   
    21   12   30 1   
    22   12   31 1   
    23   13   14 ar  
    24   13   18 ar  
    25   14   15 ar  
    26   14   32 1   
    27   15   16 ar  
    28   16   17 ar  
    29   16   33 1   
    30   17   18 ar  
    31   17   34 1   
    32   18   35 1   
    33   19   20 ar  
    34   19   36 1   
    35   20   21 ar  
    36   20   37 1   
    37   21   22 ar  
    38   21   38 1   
    39   22   23 ar  
    40   22   39 1   
    41   23   40 1   
    42   24   25 1   
    43   24   26 1   
    44   24   41 1   
    45   25   26 1   
    46   25   42 1   
    47   25   43 1   
    48   26   44 1   
    49   26   45 1   
@<TRIPOS>SUBSTRUCTURE
     1 SCZ         1 TEMP              0 ****  ****    0 ROOT
