@<TRIPOS>MOLECULE
SCZ
   45    49     1     0     0
SMALL
bcc


@<TRIPOS>ATOM
      1 C01        -0.0350   -0.1740   -0.0480 cc        1 SCZ     -0.237800
      2 C02         1.3860   -0.1680   -0.0920 cd        1 SCZ      0.397500
      3 N03         1.7990   -0.3120    1.2940 na        1 SCZ      0.004200
      4 N04         0.7490   -0.4110    2.1260 nd        1 SCZ     -0.581100
      5 C05        -0.3610   -0.3270    1.3470 cc        1 SCZ      0.387500
      6 N06         2.2710   -0.0460   -1.1340 nd        1 SCZ     -0.659000
      7 C07         3.5680   -0.0820   -0.8250 cc        1 SCZ      0.531800
      8 C08         4.0610   -0.2440    0.5150 cc        1 SCZ     -0.382300
      9 C09         3.1750   -0.3760    1.5930 cd        1 SCZ      0.283300
     10 N10         3.5990   -0.6300    2.8980 nu        1 SCZ     -0.741600
     11 C11         4.5730    0.0440   -1.8990 ca        1 SCZ     -0.154500
     12 C12         4.9380   -0.2210    3.2690 c3        1 SCZ      0.252100
     13 C13         5.1280   -0.1250    4.7500 ca        1 SCZ     -0.233600
     14 C14         5.6260    1.0610    5.3280 ca        1 SCZ      0.410200
     15 N15         5.8570    1.2040    6.6460 nb        1 SCZ     -0.661000
     16 C16         5.5860    0.1500    7.4410 ca        1 SCZ      0.404200
     17 C17         5.0830   -1.0740    6.9620 ca        1 SCZ     -0.245300
     18 C18         4.8540   -1.2090    5.5930 ca        1 SCZ     -0.076000
     19 C19         5.7040    0.8480   -1.7010 ca        1 SCZ     -0.099000
     20 C20         6.6620    0.9630   -2.7060 ca        1 SCZ     -0.137000
     21 C21         6.5000    0.2790   -3.9110 ca        1 SCZ     -0.116000
     22 C22         5.3730   -0.5170   -4.1130 ca        1 SCZ     -0.137000
     23 C23         4.4070   -0.6340   -3.1130 ca        1 SCZ     -0.099000
     24 C24        -0.9340   -0.0510   -1.1740 cx        1 SCZ     -0.037500
     25 C25        -2.2320   -0.8260   -1.1980 cx        1 SCZ     -0.130900
     26 C26        -2.2570    0.6610   -1.0160 cx        1 SCZ     -0.130900
     27 H05        -1.3620   -0.3730    1.7810 h4        1 SCZ      0.052800
     28 H08         5.1440   -0.2970    0.6760 ha        1 SCZ      0.161000
     29 HN10        2.9160   -0.5630    3.6240 hn        1 SCZ      0.443800
     30 H121        5.6540   -0.9950    2.8610 h1        1 SCZ      0.057200
     31 H122        5.2020    0.7690    2.7910 h1        1 SCZ      0.057200
     32 H14         5.8550    1.9440    4.7030 h4        1 SCZ      0.026100
     33 H16         5.7830    0.3000    8.5190 h4        1 SCZ      0.027100
     34 H17         4.8790   -1.9010    7.6550 ha        1 SCZ      0.149000
     35 H18         4.4660   -2.1530    5.1790 ha        1 SCZ      0.151000
     36 H19         5.8290    1.3970   -0.7560 ha        1 SCZ      0.142000
     37 H20         7.5460    1.5980   -2.5490 ha        1 SCZ      0.135000
     38 H21         7.2580    0.3710   -4.7020 ha        1 SCZ      0.133000
     39 H22         5.2410   -1.0540   -5.0640 ha        1 SCZ      0.135000
     40 H23         3.5150   -1.2570   -3.2800 ha        1 SCZ      0.142000
     41 H24        -0.3970    0.0770   -2.1380 hc        1 SCZ      0.099700
     42 H251       -2.5680   -1.2590   -2.1560 hc        1 SCZ      0.069700
     43 H252       -2.4820   -1.4740   -0.3400 hc        1 SCZ      0.069700
     44 H261       -2.5260    1.0740   -0.0280 hc        1 SCZ      0.069700
     45 H262       -2.6120    1.3020   -1.8420 hc        1 SCZ      0.069700
@<TRIPOS>BOND
     1    1    2 2   
     2    1    5 1   
     3    1   24 1   
     4    2    3 1   
     5    2    6 1   
     6    3    4 1   
     7    3    9 1   
     8    4    5 2   
     9    5   27 1   
    10    6    7 2   
    11    7    8 1   
    12    7   11 1   
    13    8    9 2   
    14    8   28 1   
    15    9   10 1   
    16   10   12 1   
    17   10   29 1   
    18   11   19 ar  
    19   11   23 ar  
    20   12   13 1   
    21   12   30 1   
    22   12   31 1   
    23   13   14 ar  
    24   13   18 ar  
    25   14   15 ar  
    26   14   32 1   
    27   15   16 ar  
    28   16   17 ar  
    29   16   33 1   
    30   17   18 ar  
    31   17   34 1   
    32   18   35 1   
    33   19   20 ar  
    34   19   36 1   
    35   20   21 ar  
    36   20   37 1   
    37   21   22 ar  
    38   21   38 1   
    39   22   23 ar  
    40   22   39 1   
    41   23   40 1   
    42   24   25 1   
    43   24   26 1   
    44   24   41 1   
    45   25   26 1   
    46   25   42 1   
    47   25   43 1   
    48   26   44 1   
    49   26   45 1   
@<TRIPOS>SUBSTRUCTURE
     1 SCZ         1 TEMP              0 ****  ****    0 ROOT
