@<TRIPOS>MOLECULE
SCZ
   46    50     1     0     0
SMALL
bcc


@<TRIPOS>ATOM
      1 C01        -0.1000   -0.1110   -0.1170 cc        1 SCZ     -0.144800
      2 C02         1.3200   -0.0770   -0.1360 cd        1 SCZ      0.367500
      3 N03         1.7000   -0.0880    1.2790 na        1 SCZ      0.000200
      4 N04         0.6380   -0.1290    2.0930 nd        1 SCZ     -0.586100
      5 C05        -0.4550   -0.1420    1.2820 cc        1 SCZ      0.408500
      6 N06         2.2450   -0.0360   -1.1440 nd        1 SCZ     -0.562000
      7 C07         3.5300   -0.0060   -0.8080 cc        1 SCZ      0.501800
      8 C08         3.9890   -0.0200    0.5760 cc        1 SCZ     -0.208300
      9 C09         3.0620   -0.0650    1.5980 cd        1 SCZ      0.061300
     10 N10         3.4160   -0.0920    3.0310 n4        1 SCZ     -0.643400
     11 C11         4.5740    0.0330   -1.8450 ca        1 SCZ     -0.191500
     12 C12         4.8970   -0.1060    3.2980 c3        1 SCZ      0.189100
     13 C13         5.1550   -0.1430    4.7600 ca        1 SCZ     -0.325600
     14 C14         5.2340    1.0560    5.5020 ca        1 SCZ      0.436200
     15 N15         5.5060    1.0910    6.8170 nb        1 SCZ     -0.639000
     16 C16         5.7170   -0.0830    7.4450 ca        1 SCZ      0.453200
     17 C17         5.6650   -1.3320    6.7890 ca        1 SCZ     -0.234300
     18 C18         5.3790   -1.3580    5.4270 ca        1 SCZ     -0.055000
     19 C19         5.6760    0.8870   -1.6920 ca        1 SCZ     -0.095000
     20 C20         6.6650    0.9270   -2.6710 ca        1 SCZ     -0.126000
     21 C21         6.5620    0.1180   -3.8050 ca        1 SCZ     -0.091000
     22 C22         5.4630   -0.7260   -3.9620 ca        1 SCZ     -0.126000
     23 C23         4.4650   -0.7680   -2.9890 ca        1 SCZ     -0.095000
     24 C24        -0.9770   -0.1120   -1.2660 cx        1 SCZ     -0.088500
     25 C25        -2.2680   -0.9010   -1.2350 cx        1 SCZ     -0.110400
     26 C26        -2.3140    0.5930   -1.2000 cx        1 SCZ     -0.110400
     27 H05        -1.4680   -0.1720    1.6980 h4        1 SCZ      0.080800
     28 H08         5.0740   -0.0060    0.7520 ha        1 SCZ      0.181000
     29 HN10        3.0010    0.7340    3.4900 hn        1 SCZ      0.470800
     30 H121        5.3310   -1.0150    2.7880 hx        1 SCZ      0.112200
     31 H122        5.3380    0.8260    2.8380 hx        1 SCZ      0.112200
     32 H14         5.0870    2.0400    5.0190 h4        1 SCZ      0.032100
     33 H16         5.9420   -0.0160    8.5280 h4        1 SCZ      0.056100
     34 H17         5.8540   -2.2610    7.3490 ha        1 SCZ      0.174000
     35 H18         5.3450   -2.3140    4.8830 ha        1 SCZ      0.150000
     36 H19         5.7520    1.5440   -0.8140 ha        1 SCZ      0.138500
     37 H20         7.5260    1.6030   -2.5540 ha        1 SCZ      0.150500
     38 H21         7.3460    0.1530   -4.5780 ha        1 SCZ      0.152000
     39 H22         5.3760   -1.3580   -4.8600 ha        1 SCZ      0.150500
     40 H23         3.5940   -1.4290   -3.1250 ha        1 SCZ      0.138500
     41 H24        -0.4230   -0.0710   -2.2300 hc        1 SCZ      0.111700
     42 H251       -2.5760   -1.4330   -2.1530 hc        1 SCZ      0.082450
     43 H252       -2.5260   -1.4680   -0.3220 hc        1 SCZ      0.082450
     44 H261       -2.6050    1.1000   -0.2620 hc        1 SCZ      0.082450
     45 H262       -2.6550    1.1490   -2.0920 hc        1 SCZ      0.082450
     46 H102        2.9920   -0.9290    3.4620 hn        1 SCZ      0.470800
@<TRIPOS>BOND
     1    1    2 2   
     2    1    5 1   
     3    1   24 1   
     4    2    3 1   
     5    2    6 1   
     6    3    4 1   
     7    3    9 1   
     8    4    5 2   
     9    5   27 1   
    10    6    7 2   
    11    7    8 1   
    12    7   11 1   
    13    8    9 2   
    14    8   28 1   
    15    9   10 1   
    16   10   12 1   
    17   10   29 1   
    18   10   46 1   
    19   11   19 ar  
    20   11   23 ar  
    21   12   13 1   
    22   12   30 1   
    23   12   31 1   
    24   13   14 ar  
    25   13   18 ar  
    26   14   15 ar  
    27   14   32 1   
    28   15   16 ar  
    29   16   17 ar  
    30   16   33 1   
    31   17   18 ar  
    32   17   34 1   
    33   18   35 1   
    34   19   20 ar  
    35   19   36 1   
    36   20   21 ar  
    37   20   37 1   
    38   21   22 ar  
    39   21   38 1   
    40   22   23 ar  
    41   22   39 1   
    42   23   40 1   
    43   24   25 1   
    44   24   26 1   
    45   24   41 1   
    46   25   26 1   
    47   25   42 1   
    48   25   43 1   
    49   26   44 1   
    50   26   45 1   
@<TRIPOS>SUBSTRUCTURE
     1 SCZ         1 TEMP              0 ****  ****    0 ROOT
