@<TRIPOS>MOLECULE
SD1
   67    70     1     0     0
SMALL
bcc


@<TRIPOS>ATOM
      1 C1         -0.0510    0.2410    0.3540 c3        1 SD1     -0.021100
      2 C2          1.3620   -0.1710    0.2070 cc        1 SD1     -0.041600
      3 C3          2.2050   -0.4590    1.2880 cd        1 SD1     -0.207600
      4 C4          1.7550   -0.3800    2.6720 c         1 SD1      0.603700
      5 C5          0.3560    0.1520    2.8480 c3        1 SD1     -0.176400
      6 C6         -0.6060   -0.2080    1.7150 c3        1 SD1     -0.038000
      7 C7         -1.9250    0.5170    1.9520 c3        1 SD1     -0.094600
      8 C8         -0.8600   -1.7080    1.7040 c3        1 SD1     -0.094600
      9 O9          2.4620   -0.6960    3.6340 o         1 SD1     -0.512100
     10 C10         3.4900   -0.8350    0.7610 cd        1 SD1     -0.099000
     11 C11         3.4070   -0.7840   -0.6290 cc        1 SD1     -0.115600
     12 N12         2.0870   -0.3740   -0.9850 na        1 SD1     -0.023200
     13 C13         4.4990   -1.0440   -1.5830 c3        1 SD1     -0.036800
     14 C14         1.5900   -0.2320   -2.2800 ca        1 SD1      0.130800
     15 C15         0.6800    0.8060   -2.6040 ca        1 SD1     -0.168000
     16 C16         0.1980    0.9350   -3.8930 ca        1 SD1     -0.021000
     17 C17         0.5980    0.0600   -4.9230 ca        1 SD1     -0.221600
     18 C18         1.5000   -0.9930   -4.6200 ca        1 SD1      0.174600
     19 C19         1.9780   -1.1250   -3.3080 ca        1 SD1     -0.191000
     20 C20        -0.0260    0.3010   -6.2190 c         1 SD1      0.586700
     21 O21        -1.0880    0.8720   -6.4460 o         1 SD1     -0.442100
     22 N22         0.6970   -0.1350   -7.4690 n4        1 SD1     -0.752400
     23 N23         1.8370   -1.9600   -5.6150 nh        1 SD1     -0.647000
     24 C24         3.0640   -1.7760   -6.3160 ca        1 SD1      0.125600
     25 C25         3.6520   -2.8830   -6.9610 ca        1 SD1     -0.284000
     26 C26         4.7980   -2.6990   -7.7410 ca        1 SD1      0.185600
     27 C27         5.3670   -1.4120   -7.9190 ca        1 SD1     -0.002900
     28 C28         4.7760   -0.3200   -7.2640 ca        1 SD1      0.185600
     29 C29         3.6370   -0.5020   -6.4520 ca        1 SD1     -0.284000
     30 O30         5.1740    0.9900   -7.3490 os        1 SD1     -0.319900
     31 C31         6.5030    1.2620   -7.8040 c3        1 SD1      0.114200
     32 O32         6.5600   -1.2480   -8.5940 os        1 SD1     -0.321900
     33 C33         6.4890   -1.4940  -10.0020 c3        1 SD1      0.109700
     34 O34         5.4320   -3.7140   -8.4120 os        1 SD1     -0.319900
     35 C35         5.0050   -5.0460   -8.1290 c3        1 SD1      0.114200
     36 H1         -0.6900   -0.1850   -0.4640 hc        1 SD1      0.058700
     37 H1A        -0.1110    1.3640    0.2920 hc        1 SD1      0.058700
     38 H5          0.4340    1.2700    2.9300 hc        1 SD1      0.082200
     39 H5A        -0.0610   -0.2300    3.8190 hc        1 SD1      0.082200
     40 H7         -2.3710    0.1920    2.9220 hc        1 SD1      0.044700
     41 H7A        -1.7680    1.6220    1.9860 hc        1 SD1      0.044700
     42 H7B        -2.6470    0.2820    1.1330 hc        1 SD1      0.044700
     43 H8         -1.5910   -1.9720    0.9020 hc        1 SD1      0.044700
     44 H8A         0.0930   -2.2610    1.5210 hc        1 SD1      0.044700
     45 H8B        -1.2790   -2.0340    2.6860 hc        1 SD1      0.044700
     46 H10         4.3630   -1.1030    1.3560 ha        1 SD1      0.185000
     47 H13         4.4210   -0.4080   -2.4990 hc        1 SD1      0.056033
     48 H13A        5.4760   -0.8210   -1.0820 hc        1 SD1      0.056033
     49 H13B        4.5060   -2.1210   -1.8900 hc        1 SD1      0.056033
     50 H15         0.3590    1.5270   -1.8330 ha        1 SD1      0.179000
     51 H16        -0.5170    1.7460   -4.1270 ha        1 SD1      0.173000
     52 H19         2.6640   -1.9580   -3.0660 ha        1 SD1      0.176000
     53 HN22        0.6360   -1.1560   -7.5660 hn        1 SD1      0.473467
     54 HN2A        1.6940    0.1260   -7.4150 hn        1 SD1      0.473467
     55 HN23        1.7560   -2.8950   -5.2500 hn        1 SD1      0.424800
     56 H25         3.2260   -3.8900   -6.8400 ha        1 SD1      0.155000
     57 H29         3.2750    0.3630   -5.8750 ha        1 SD1      0.155000
     58 H31         6.5640    1.0920   -8.9060 h1        1 SD1      0.060200
     59 H31A        7.2460    0.6250   -7.2670 h1        1 SD1      0.060200
     60 H31B        6.6360    2.3450   -7.5530 h1        1 SD1      0.060200
     61 H33         5.7980   -0.7610  -10.4860 h1        1 SD1      0.052367
     62 H33A        6.1610   -2.5410  -10.2050 h1        1 SD1      0.052367
     63 H33B        7.5430   -1.3340  -10.3420 h1        1 SD1      0.052367
     64 H35         5.0840   -5.2640   -7.0370 h1        1 SD1      0.060200
     65 H35A        5.7310   -5.6710   -8.7120 h1        1 SD1      0.060200
     66 H35B        3.9620   -5.2070   -8.4960 h1        1 SD1      0.060200
     67 H223        0.2670    0.3040   -8.2900 hn        1 SD1      0.473467
@<TRIPOS>BOND
     1    1    2 1   
     2    1    6 1   
     3    1   36 1   
     4    1   37 1   
     5    2    3 2   
     6    2   12 1   
     7    3    4 1   
     8    3   10 1   
     9    4    5 1   
    10    4    9 2   
    11    5    6 1   
    12    5   38 1   
    13    5   39 1   
    14    6    7 1   
    15    6    8 1   
    16    7   40 1   
    17    7   41 1   
    18    7   42 1   
    19    8   43 1   
    20    8   44 1   
    21    8   45 1   
    22   10   11 2   
    23   10   46 1   
    24   11   12 1   
    25   11   13 1   
    26   12   14 1   
    27   13   47 1   
    28   13   48 1   
    29   13   49 1   
    30   14   15 ar  
    31   14   19 ar  
    32   15   16 ar  
    33   15   50 1   
    34   16   17 ar  
    35   16   51 1   
    36   17   18 ar  
    37   17   20 1   
    38   18   19 ar  
    39   18   23 1   
    40   19   52 1   
    41   20   21 2   
    42   20   22 1   
    43   22   53 1   
    44   22   54 1   
    45   22   67 1   
    46   23   24 1   
    47   23   55 1   
    48   24   25 ar  
    49   24   29 ar  
    50   25   26 ar  
    51   25   56 1   
    52   26   27 ar  
    53   26   34 1   
    54   27   28 ar  
    55   27   32 1   
    56   28   29 ar  
    57   28   30 1   
    58   29   57 1   
    59   30   31 1   
    60   31   58 1   
    61   31   59 1   
    62   31   60 1   
    63   32   33 1   
    64   33   61 1   
    65   33   62 1   
    66   33   63 1   
    67   34   35 1   
    68   35   64 1   
    69   35   65 1   
    70   35   66 1   
@<TRIPOS>SUBSTRUCTURE
     1 SD1         1 TEMP              0 ****  ****    0 ROOT
