@<TRIPOS>MOLECULE
SD1
   66    69     1     0     0
SMALL
bcc


@<TRIPOS>ATOM
      1 C1          4.3660    0.9930    0.2170 c3        1 SD1     -0.015100
      2 C2          3.6300   -0.2140   -0.2190 cc        1 SD1     -0.042600
      3 C3          4.1520   -1.5220   -0.1340 cd        1 SD1     -0.239600
      4 C4          5.4700   -1.7940    0.4030 c         1 SD1      0.611700
      5 C5          6.2780   -0.5680    0.7560 c3        1 SD1     -0.174400
      6 C6          5.4490    0.6210    1.2410 c3        1 SD1     -0.039000
      7 C7          6.3740    1.8200    1.4130 c3        1 SD1     -0.092100
      8 C8          4.8060    0.2960    2.5820 c3        1 SD1     -0.092100
      9 O9          5.9380   -2.9310    0.5460 o         1 SD1     -0.545100
     10 C10         3.1520   -2.4200   -0.6350 cd        1 SD1     -0.121000
     11 C11         2.0450   -1.6480   -1.0070 cc        1 SD1     -0.115600
     12 N12         2.3410   -0.2870   -0.7510 na        1 SD1      0.007800
     13 C13         0.7800   -2.1400   -1.5760 c3        1 SD1     -0.034800
     14 C14         1.4840    0.8100   -0.9860 ca        1 SD1      0.066800
     15 C15         1.9970    2.0000   -1.5500 ca        1 SD1     -0.196000
     16 C16         1.1530    3.0810   -1.7530 ca        1 SD1     -0.057000
     17 C17        -0.2030    3.0230   -1.4280 ca        1 SD1     -0.214600
     18 C18        -0.7450    1.8320   -0.8680 ca        1 SD1      0.240600
     19 C19         0.1230    0.7360   -0.6490 ca        1 SD1     -0.214000
     20 C20        -1.0580    4.2250   -1.6340 c         1 SD1      0.684700
     21 O21        -1.8530    4.6430   -0.7630 o         1 SD1     -0.633100
     22 N22        -0.9460    4.8940   -2.8270 n         1 SD1     -0.666000
     23 N23        -2.1050    1.7710   -0.5770 nh        1 SD1     -0.642000
     24 C24        -2.7540    0.6180   -0.0940 ca        1 SD1      0.197600
     25 C25        -3.5730    0.7190    1.0510 ca        1 SD1     -0.260500
     26 C26        -4.2940   -0.3950    1.4900 ca        1 SD1      0.158600
     27 C27        -4.2190   -1.6250    0.8040 ca        1 SD1      0.026100
     28 C28        -3.4180   -1.7040   -0.3540 ca        1 SD1      0.158600
     29 C29        -2.6750   -0.6030   -0.7930 ca        1 SD1     -0.260500
     30 O30        -3.4240   -2.9300   -0.9840 os        1 SD1     -0.308900
     31 C31        -2.7750   -2.9940   -2.2500 c3        1 SD1      0.108700
     32 O32        -4.8130   -2.7700    1.2990 os        1 SD1     -0.306900
     33 C33        -6.2310   -2.8030    1.1230 c3        1 SD1      0.114700
     34 O34        -5.1370   -0.3830    2.5820 os        1 SD1     -0.308900
     35 C35        -5.1260    0.7980    3.3780 c3        1 SD1      0.108700
     36 H1          4.8580    1.4630   -0.6790 hc        1 SD1      0.060200
     37 H1A         3.6720    1.7540    0.6640 hc        1 SD1      0.060200
     38 H5          7.0290   -0.8390    1.5440 hc        1 SD1      0.070700
     39 H5A         6.8450   -0.2710   -0.1670 hc        1 SD1      0.070700
     40 H7          5.7930    2.7090    1.7550 hc        1 SD1      0.040700
     41 H7A         7.1590    1.5920    2.1740 hc        1 SD1      0.040700
     42 H7B         6.8770    2.0710    0.4480 hc        1 SD1      0.040700
     43 H8          4.1140   -0.5740    2.4760 hc        1 SD1      0.040700
     44 H8A         5.5910    0.0390    3.3330 hc        1 SD1      0.040700
     45 H8B         4.2270    1.1730    2.9570 hc        1 SD1      0.040700
     46 H10         3.2470   -3.5000   -0.7080 ha        1 SD1      0.170000
     47 H13         0.0470   -2.3610   -0.7570 hc        1 SD1      0.052033
     48 H13A        0.3160   -1.3980   -2.2730 hc        1 SD1      0.052033
     49 H13B        0.9740   -3.0870   -2.1390 hc        1 SD1      0.052033
     50 H15         3.0590    2.0760   -1.8270 ha        1 SD1      0.150000
     51 H16         1.5740    4.0100   -2.1720 ha        1 SD1      0.141000
     52 H19        -0.2750   -0.1810   -0.1810 ha        1 SD1      0.167000
     53 HN22       -0.3770    4.5470   -3.5540 hn        1 SD1      0.315500
     54 HN2A       -1.5180    5.6840   -2.9970 hn        1 SD1      0.315500
     55 HN23       -2.5270    2.6410   -0.3090 hn        1 SD1      0.464800
     56 H25        -3.6440    1.6720    1.5950 ha        1 SD1      0.149000
     57 H29        -2.0430   -0.6820   -1.6900 ha        1 SD1      0.149000
     58 H31        -2.9940   -4.0360   -2.5970 h1        1 SD1      0.047867
     59 H31A       -3.2030   -2.2430   -2.9570 h1        1 SD1      0.047867
     60 H31B       -1.6730   -2.8420   -2.1350 h1        1 SD1      0.047867
     61 H33        -6.7070   -1.9430    1.6530 h1        1 SD1      0.041367
     62 H33A       -6.4870   -2.7870    0.0370 h1        1 SD1      0.041367
     63 H33B       -6.5290   -3.7750    1.5890 h1        1 SD1      0.041367
     64 H35        -5.8090    0.5400    4.2270 h1        1 SD1      0.047867
     65 H35A       -4.0970    1.0160    3.7520 h1        1 SD1      0.047867
     66 H35B       -5.5270    1.6650    2.7990 h1        1 SD1      0.047867
@<TRIPOS>BOND
     1    1    2 1   
     2    1    6 1   
     3    1   36 1   
     4    1   37 1   
     5    2    3 2   
     6    2   12 1   
     7    3    4 1   
     8    3   10 1   
     9    4    5 1   
    10    4    9 2   
    11    5    6 1   
    12    5   38 1   
    13    5   39 1   
    14    6    7 1   
    15    6    8 1   
    16    7   40 1   
    17    7   41 1   
    18    7   42 1   
    19    8   43 1   
    20    8   44 1   
    21    8   45 1   
    22   10   11 2   
    23   10   46 1   
    24   11   12 1   
    25   11   13 1   
    26   12   14 1   
    27   13   47 1   
    28   13   48 1   
    29   13   49 1   
    30   14   15 ar  
    31   14   19 ar  
    32   15   16 ar  
    33   15   50 1   
    34   16   17 ar  
    35   16   51 1   
    36   17   18 ar  
    37   17   20 1   
    38   18   19 ar  
    39   18   23 1   
    40   19   52 1   
    41   20   21 2   
    42   20   22 1   
    43   22   53 1   
    44   22   54 1   
    45   23   24 1   
    46   23   55 1   
    47   24   25 ar  
    48   24   29 ar  
    49   25   26 ar  
    50   25   56 1   
    51   26   27 ar  
    52   26   34 1   
    53   27   28 ar  
    54   27   32 1   
    55   28   29 ar  
    56   28   30 1   
    57   29   57 1   
    58   30   31 1   
    59   31   58 1   
    60   31   59 1   
    61   31   60 1   
    62   32   33 1   
    63   33   61 1   
    64   33   62 1   
    65   33   63 1   
    66   34   35 1   
    67   35   64 1   
    68   35   65 1   
    69   35   66 1   
@<TRIPOS>SUBSTRUCTURE
     1 SD1         1 TEMP              0 ****  ****    0 ROOT
