@<TRIPOS>MOLECULE
SD1
   68    71     1     0     0
SMALL
bcc


@<TRIPOS>ATOM
      1 C1         -0.0100    0.4170    0.0130 c3        1 SD1     -0.028100
      2 C2          1.4530    0.3230   -0.1780 cc        1 SD1     -0.040600
      3 C3          2.3810    0.5990    0.8210 cd        1 SD1     -0.169600
      4 C4          1.9920    1.0270    2.1680 c         1 SD1      0.593700
      5 C5          0.5170    1.2530    2.3460 c3        1 SD1     -0.177400
      6 C6         -0.3690    0.3320    1.5080 c3        1 SD1     -0.037000
      7 C7         -1.8180    0.7780    1.6690 c3        1 SD1     -0.098100
      8 C8         -0.2350   -1.1040    1.9930 c3        1 SD1     -0.098100
      9 O9          2.8160    1.2090    3.0650 o         1 SD1     -0.475100
     10 C10         3.7070    0.3710    0.2870 cd        1 SD1     -0.057000
     11 C11         3.5680   -0.0600   -1.0240 cc        1 SD1     -0.132600
     12 N12         2.1620   -0.1030   -1.3420 na        1 SD1     -0.020200
     13 C13         4.6590   -0.3190   -1.9770 c3        1 SD1     -0.042800
     14 C14         1.6110   -0.5150   -2.5280 ca        1 SD1      0.181800
     15 C15         0.3910    0.0300   -3.0260 ca        1 SD1     -0.159000
     16 C16        -0.1170   -0.3620   -4.2460 ca        1 SD1     -0.028000
     17 C17         0.5180   -1.3260   -5.0570 ca        1 SD1     -0.254600
     18 C18         1.7100   -1.9190   -4.5480 ca        1 SD1      0.115600
     19 C19         2.2400   -1.5230   -3.3270 ca        1 SD1     -0.182000
     20 C20        -0.0350   -1.7220   -6.3380 c         1 SD1      0.587700
     21 O21         0.1890   -2.7380   -6.9940 o         1 SD1     -0.470100
     22 N22        -1.0180   -0.7880   -7.0050 n4        1 SD1     -0.748400
     23 N23         2.4230   -2.9830   -5.2820 n4        1 SD1     -0.509800
     24 C24         3.4140   -2.4660   -6.2380 ca        1 SD1     -0.082400
     25 C25         3.2480   -2.7550   -7.6070 ca        1 SD1     -0.170000
     26 C26         4.2000   -2.2940   -8.5100 ca        1 SD1      0.103600
     27 C27         5.3340   -1.5370   -8.0720 ca        1 SD1      0.185100
     28 C28         5.4680   -1.2740   -6.6880 ca        1 SD1      0.103600
     29 C29         4.5150   -1.7370   -5.7740 ca        1 SD1     -0.170000
     30 O30         6.5370   -0.4970   -6.2980 os        1 SD1     -0.296900
     31 C31         7.0760   -0.7650   -5.0020 c3        1 SD1      0.103700
     32 O32         6.1460   -1.1280   -9.0760 os        1 SD1     -0.267900
     33 C33         7.3770   -0.4650   -8.7600 c3        1 SD1      0.113700
     34 O34         4.1250   -2.4740   -9.8670 os        1 SD1     -0.296900
     35 C35         3.3340   -3.5720  -10.3260 c3        1 SD1      0.103700
     36 H1         -0.3670    1.4080   -0.3850 hc        1 SD1      0.060200
     37 H1A        -0.5510   -0.3990   -0.5350 hc        1 SD1      0.060200
     38 H5          0.3070    2.3250    2.0780 hc        1 SD1      0.094700
     39 H5A         0.2570    1.1230    3.4330 hc        1 SD1      0.094700
     40 H7         -2.4930    0.1280    1.0630 hc        1 SD1      0.049867
     41 H7A        -2.1220    0.7000    2.7420 hc        1 SD1      0.049867
     42 H7B        -1.9460    1.8370    1.3420 hc        1 SD1      0.049867
     43 H8         -0.5140   -1.1710    3.0730 hc        1 SD1      0.049867
     44 H8A         0.8160   -1.4600    1.8750 hc        1 SD1      0.049867
     45 H8B        -0.9120   -1.7760    1.4130 hc        1 SD1      0.049867
     46 H10         4.6380    0.5270    0.8370 ha        1 SD1      0.204000
     47 H13         5.5640    0.2580   -1.6490 hc        1 SD1      0.058367
     48 H13A        4.3990    0.0090   -3.0150 hc        1 SD1      0.058367
     49 H13B        4.9340   -1.4040   -1.9910 hc        1 SD1      0.058367
     50 H15        -0.1460    0.8020   -2.4430 ha        1 SD1      0.198000
     51 H16        -1.0630    0.1080   -4.5660 ha        1 SD1      0.147000
     52 H19         3.1500   -2.0110   -2.9260 ha        1 SD1      0.189000
     53 HN22       -0.6420    0.1670   -7.0290 hn        1 SD1      0.482467
     54 HN2A       -1.9090   -0.7860   -6.4940 hn        1 SD1      0.482467
     55 HN23        1.7430   -3.5740   -5.7880 hn        1 SD1      0.476300
     56 H25         2.3930   -3.3480   -7.9710 ha        1 SD1      0.157500
     57 H29         4.6470   -1.5160   -4.7020 ha        1 SD1      0.157500
     58 H31         6.3960   -0.3590   -4.2120 h1        1 SD1      0.060700
     59 H31A        8.0460   -0.2020   -5.0100 h1        1 SD1      0.060700
     60 H31B        7.2500   -1.8570   -4.8560 h1        1 SD1      0.060700
     61 H33         8.0180   -1.1170   -8.1230 h1        1 SD1      0.074033
     62 H33A        7.1700    0.5110   -8.2590 h1        1 SD1      0.074033
     63 H33B        7.8310   -0.3140   -9.7750 h1        1 SD1      0.074033
     64 H35         3.6170   -4.5170   -9.8030 h1        1 SD1      0.060700
     65 H35A        2.2490   -3.3470  -10.1880 h1        1 SD1      0.060700
     66 H35B        3.5930   -3.6250  -11.4160 h1        1 SD1      0.060700
     67 H223       -1.1950   -1.1090   -7.9700 hn        1 SD1      0.482467
     68 H232        2.9200   -3.5760   -4.5980 hn        1 SD1      0.476300
@<TRIPOS>BOND
     1    1    2 1   
     2    1    6 1   
     3    1   36 1   
     4    1   37 1   
     5    2    3 2   
     6    2   12 1   
     7    3    4 1   
     8    3   10 1   
     9    4    5 1   
    10    4    9 2   
    11    5    6 1   
    12    5   38 1   
    13    5   39 1   
    14    6    7 1   
    15    6    8 1   
    16    7   40 1   
    17    7   41 1   
    18    7   42 1   
    19    8   43 1   
    20    8   44 1   
    21    8   45 1   
    22   10   11 2   
    23   10   46 1   
    24   11   12 1   
    25   11   13 1   
    26   12   14 1   
    27   13   47 1   
    28   13   48 1   
    29   13   49 1   
    30   14   15 ar  
    31   14   19 ar  
    32   15   16 ar  
    33   15   50 1   
    34   16   17 ar  
    35   16   51 1   
    36   17   18 ar  
    37   17   20 1   
    38   18   19 ar  
    39   18   23 1   
    40   19   52 1   
    41   20   21 2   
    42   20   22 1   
    43   22   53 1   
    44   22   54 1   
    45   22   67 1   
    46   23   24 1   
    47   23   55 1   
    48   23   68 1   
    49   24   25 ar  
    50   24   29 ar  
    51   25   26 ar  
    52   25   56 1   
    53   26   27 ar  
    54   26   34 1   
    55   27   28 ar  
    56   27   32 1   
    57   28   29 ar  
    58   28   30 1   
    59   29   57 1   
    60   30   31 1   
    61   31   58 1   
    62   31   59 1   
    63   31   60 1   
    64   32   33 1   
    65   33   61 1   
    66   33   62 1   
    67   33   63 1   
    68   34   35 1   
    69   35   64 1   
    70   35   65 1   
    71   35   66 1   
@<TRIPOS>SUBSTRUCTURE
     1 SD1         1 TEMP              0 ****  ****    0 ROOT
