@<TRIPOS>MOLECULE
SD1
   67    70     1     0     0
SMALL
bcc


@<TRIPOS>ATOM
      1 C1         -0.0560    0.2430    0.3500 c3        1 SD1     -0.021100
      2 C2          1.3560   -0.1710    0.2050 cc        1 SD1     -0.041600
      3 C3          2.1970   -0.4590    1.2880 cd        1 SD1     -0.207600
      4 C4          1.7450   -0.3800    2.6710 c         1 SD1      0.603700
      5 C5          0.3460    0.1530    2.8450 c3        1 SD1     -0.176400
      6 C6         -0.6140   -0.2060    1.7110 c3        1 SD1     -0.038000
      7 C7         -1.9330    0.5200    1.9450 c3        1 SD1     -0.094600
      8 C8         -0.8690   -1.7060    1.6990 c3        1 SD1     -0.094600
      9 O9          2.4500   -0.6970    3.6340 o         1 SD1     -0.512100
     10 C10         3.4830   -0.8360    0.7630 cd        1 SD1     -0.099000
     11 C11         3.4020   -0.7850   -0.6280 cc        1 SD1     -0.115600
     12 N12         2.0830   -0.3740   -0.9860 na        1 SD1     -0.023200
     13 C13         4.4950   -1.0460   -1.5790 c3        1 SD1     -0.036800
     14 C14         1.5880   -0.2310   -2.2820 ca        1 SD1      0.130800
     15 C15         0.6800    0.8070   -2.6070 ca        1 SD1     -0.168000
     16 C16         0.2000    0.9360   -3.8970 ca        1 SD1     -0.021000
     17 C17         0.6010    0.0610   -4.9260 ca        1 SD1     -0.221600
     18 C18         1.5010   -0.9920   -4.6210 ca        1 SD1      0.174600
     19 C19         1.9770   -1.1250   -3.3090 ca        1 SD1     -0.191000
     20 C20        -0.0210    0.3030   -6.2220 c         1 SD1      0.586700
     21 O21        -1.0830    0.8740   -6.4510 o         1 SD1     -0.442100
     22 N22         0.7050   -0.1330   -7.4720 nz        1 SD1     -0.752400
     23 N23         1.8390   -1.9600   -5.6170 nu        1 SD1     -0.647000
     24 C24         3.0670   -1.7760   -6.3150 ca        1 SD1      0.125600
     25 C25         3.6550   -2.8840   -6.9600 ca        1 SD1     -0.284000
     26 C26         4.8030   -2.7010   -7.7380 ca        1 SD1      0.185600
     27 C27         5.3730   -1.4140   -7.9150 ca        1 SD1     -0.002900
     28 C28         4.7820   -0.3220   -7.2590 ca        1 SD1      0.185600
     29 C29         3.6420   -0.5030   -6.4500 ca        1 SD1     -0.284000
     30 O30         5.1830    0.9880   -7.3430 os        1 SD1     -0.319900
     31 C31         6.5120    1.2580   -7.7950 c3        1 SD1      0.114200
     32 O32         6.5670   -1.2500   -8.5880 os        1 SD1     -0.321900
     33 C33         6.4980   -1.4950   -9.9970 c3        1 SD1      0.109700
     34 O34         5.4360   -3.7150   -8.4100 os        1 SD1     -0.319900
     35 C35         5.0070   -5.0480   -8.1290 c3        1 SD1      0.114200
     36 H1         -0.6950   -0.1830   -0.4690 hc        1 SD1      0.058700
     37 H1A        -0.1160    1.3650    0.2880 hc        1 SD1      0.058700
     38 H5         -0.0720   -0.2290    3.8150 hc        1 SD1      0.082200
     39 H5A         0.4250    1.2710    2.9270 hc        1 SD1      0.082200
     40 H7         -2.3810    0.1950    2.9150 hc        1 SD1      0.044700
     41 H7A        -2.6540    0.2860    1.1250 hc        1 SD1      0.044700
     42 H7B        -1.7760    1.6250    1.9800 hc        1 SD1      0.044700
     43 H8          0.0830   -2.2600    1.5170 hc        1 SD1      0.044700
     44 H8A        -1.2900   -2.0320    2.6800 hc        1 SD1      0.044700
     45 H8B        -1.5990   -1.9700    0.8960 hc        1 SD1      0.044700
     46 H10         4.3540   -1.1040    1.3590 ha        1 SD1      0.185000
     47 H13         4.5020   -2.1230   -1.8870 hc        1 SD1      0.056033
     48 H13A        5.4720   -0.8230   -1.0770 hc        1 SD1      0.056033
     49 H13B        4.4190   -0.4100   -2.4960 hc        1 SD1      0.056033
     50 H15         0.3580    1.5290   -1.8360 ha        1 SD1      0.179000
     51 H16        -0.5140    1.7480   -4.1310 ha        1 SD1      0.173000
     52 H19         2.6620   -1.9580   -3.0660 ha        1 SD1      0.176000
     53 HN22        1.7010    0.1270   -7.4150 hn        1 SD1      0.473467
     54 HN2A        0.6420   -1.1540   -7.5690 hn        1 SD1      0.473467
     55 HN23        1.7570   -2.8940   -5.2510 hn        1 SD1      0.424800
     56 H25         3.2280   -3.8900   -6.8410 ha        1 SD1      0.155000
     57 H29         3.2800    0.3620   -5.8720 ha        1 SD1      0.155000
     58 H31         6.6460    2.3410   -7.5430 h1        1 SD1      0.060200
     59 H31A        6.5760    1.0900   -8.8980 h1        1 SD1      0.060200
     60 H31B        7.2530    0.6200   -7.2580 h1        1 SD1      0.060200
     61 H33         5.8080   -0.7620  -10.4800 h1        1 SD1      0.052367
     62 H33A        6.1700   -2.5420  -10.2000 h1        1 SD1      0.052367
     63 H33B        7.5530   -1.3350  -10.3350 h1        1 SD1      0.052367
     64 H35         5.0840   -5.2670   -7.0370 h1        1 SD1      0.060200
     65 H35A        5.7330   -5.6720   -8.7110 h1        1 SD1      0.060200
     66 H35B        3.9650   -5.2060   -8.4960 h1        1 SD1      0.060200
     67 H223        0.2760    0.3070   -8.2930 hn        1 SD1      0.473467
@<TRIPOS>BOND
     1    1    2 1   
     2    1    6 1   
     3    1   36 1   
     4    1   37 1   
     5    2    3 2   
     6    2   12 1   
     7    3    4 1   
     8    3   10 1   
     9    4    5 1   
    10    4    9 2   
    11    5    6 1   
    12    5   38 1   
    13    5   39 1   
    14    6    7 1   
    15    6    8 1   
    16    7   40 1   
    17    7   41 1   
    18    7   42 1   
    19    8   43 1   
    20    8   44 1   
    21    8   45 1   
    22   10   11 2   
    23   10   46 1   
    24   11   12 1   
    25   11   13 1   
    26   12   14 1   
    27   13   47 1   
    28   13   48 1   
    29   13   49 1   
    30   14   15 ar  
    31   14   19 ar  
    32   15   16 ar  
    33   15   50 1   
    34   16   17 ar  
    35   16   51 1   
    36   17   18 ar  
    37   17   20 1   
    38   18   19 ar  
    39   18   23 1   
    40   19   52 1   
    41   20   21 2   
    42   20   22 1   
    43   22   53 1   
    44   22   54 1   
    45   22   67 1   
    46   23   24 1   
    47   23   55 1   
    48   24   25 ar  
    49   24   29 ar  
    50   25   26 ar  
    51   25   56 1   
    52   26   27 ar  
    53   26   34 1   
    54   27   28 ar  
    55   27   32 1   
    56   28   29 ar  
    57   28   30 1   
    58   29   57 1   
    59   30   31 1   
    60   31   58 1   
    61   31   59 1   
    62   31   60 1   
    63   32   33 1   
    64   33   61 1   
    65   33   62 1   
    66   33   63 1   
    67   34   35 1   
    68   35   64 1   
    69   35   65 1   
    70   35   66 1   
@<TRIPOS>SUBSTRUCTURE
     1 SD1         1 TEMP              0 ****  ****    0 ROOT
