@<TRIPOS>MOLECULE
SD2
   62    63     1     0     0
SMALL
bcc


@<TRIPOS>ATOM
      1 CBE        -0.8680   -3.0950   -2.1540 c3        1 SD2     -0.051000
      2 SBD        -2.4870   -2.4260   -2.1840 ss        1 SD2     -0.294200
      3 CBC        -2.3060   -0.9580   -1.2090 c3        1 SD2     -0.020300
      4 CBB        -3.6880   -0.5120   -0.8110 c3        1 SD2     -0.072400
      5 CAY        -3.7600    1.0000   -0.5510 c3        1 SD2      0.040700
      6 CAZ        -5.2220    1.3500   -0.1680 c         1 SD2      0.638100
      7 OBA        -6.0620    0.4640    0.0850 o         1 SD2     -0.617100
      8 NBF        -5.5580    2.6750   -0.1300 n         1 SD2     -0.669000
      9 NAX        -2.8230    1.4420    0.4520 n         1 SD2     -0.555900
     10 CAS        -2.3180    2.7170    0.4810 c         1 SD2      0.655100
     11 OAT        -2.7330    3.6080   -0.2910 o         1 SD2     -0.634100
     12 CAR        -1.2220    3.0080    1.5360 c3        1 SD2      0.035700
     13 CAU        -0.8780    4.5120    1.5750 c3        1 SD2     -0.086400
     14 CAV         0.5580    4.6410    1.0800 c3        1 SD2     -0.089400
     15 CAW         1.0930    3.2100    0.9110 c3        1 SD2      0.090000
     16 NAQ         0.0140    2.2930    1.2310 n         1 SD2     -0.465800
     17 CAG         0.1980    0.9750    1.5990 c         1 SD2      0.629100
     18 OAH        -0.7130    0.3630    2.1980 o         1 SD2     -0.623100
     19 CAF         1.5160    0.2590    1.1950 c3        1 SD2      0.060700
     20 NAA         1.7640   -0.9150    1.9910 n         1 SD2     -0.526900
     21 CAB         1.0400   -2.0960    1.8740 c         1 SD2      0.666100
     22 OAC         0.3510   -2.3810    0.8760 o         1 SD2     -0.602100
     23 CAD         1.1970   -3.1040    2.9950 c3        1 SD2     -0.091300
     24 SAE         1.2070   -2.4160    4.6160 sh        1 SD2     -0.357900
     25 CAI         1.4630    0.0190   -0.3260 c3        1 SD2     -0.037100
     26 CAJ         2.7380   -0.5360   -0.8520 ca        1 SD2     -0.118300
     27 CAK         2.8080   -1.8760   -1.2510 ca        1 SD2     -0.087000
     28 CAM         3.9890   -2.4000   -1.7690 ca        1 SD2     -0.184500
     29 CAO         5.1130   -1.5700   -1.8870 ca        1 SD2      0.127100
     30 OAP         6.3160   -2.0130   -2.3870 oh        1 SD2     -0.497100
     31 CAN         5.0590   -0.2230   -1.4910 ca        1 SD2     -0.184500
     32 CAL         3.8690    0.2800   -0.9780 ca        1 SD2     -0.087000
     33 HBE1       -0.4720   -3.1770   -1.1150 h1        1 SD2      0.067367
     34 HBE2       -0.9420   -4.1120   -2.6020 h1        1 SD2      0.067367
     35 HBE3       -0.1580   -2.4840   -2.7540 h1        1 SD2      0.067367
     36 HBC1       -1.6710   -1.1670   -0.3100 h1        1 SD2      0.067200
     37 HBC2       -1.7880   -0.1720   -1.8120 h1        1 SD2      0.067200
     38 HBB1       -4.4260   -0.7390   -1.6290 hc        1 SD2      0.082700
     39 HBB2       -4.0340   -1.0700    0.0990 hc        1 SD2      0.082700
     40 HAY        -3.5250    1.5460   -1.5180 h1        1 SD2      0.082700
     41 HBF1       -4.8930    3.3770   -0.3460 hn        1 SD2      0.322000
     42 HBF2       -6.4860    2.9380    0.0920 hn        1 SD2      0.322000
     43 HAX        -2.5050    0.7630    1.1100 hn        1 SD2      0.348500
     44 HAR        -1.6180    2.6690    2.5400 h1        1 SD2      0.087700
     45 HAU1       -1.5800    5.0970    0.9300 hc        1 SD2      0.076200
     46 HAU2       -0.9730    4.8860    2.6240 hc        1 SD2      0.076200
     47 HAV1        0.5930    5.1810    0.1020 hc        1 SD2      0.060700
     48 HAV2        1.1860    5.2070    1.8100 hc        1 SD2      0.060700
     49 HAW1        1.4320    3.0350   -0.1470 h1        1 SD2      0.047200
     50 HAW2        1.9710    3.0380    1.5940 h1        1 SD2      0.047200
     51 HAF         2.3820    0.9610    1.4050 h1        1 SD2      0.073700
     52 HAA         2.1110   -0.7220    2.9110 hn        1 SD2      0.322500
     53 HAD1        0.3920   -3.8720    2.8800 h1        1 SD2      0.110700
     54 HAD2        2.1870   -3.6180    2.8830 h1        1 SD2      0.110700
     55 HAE        -0.0610   -2.0410    4.7130 hs        1 SD2      0.222800
     56 HAI1        0.6060   -0.6690   -0.5680 hc        1 SD2      0.075700
     57 HAI2        1.2600    1.0040   -0.8260 hc        1 SD2      0.075700
     58 HAK         1.9160   -2.5190   -1.1480 ha        1 SD2      0.138000
     59 HAM         4.0400   -3.4510   -2.0840 ha        1 SD2      0.143500
     60 HAP         6.2130   -2.9450   -2.6310 ho        1 SD2      0.421000
     61 HAN         5.9510    0.4100   -1.5940 ha        1 SD2      0.143500
     62 HAL         3.8160    1.3360   -0.6710 ha        1 SD2      0.138000
@<TRIPOS>BOND
     1    1    2 1   
     2    1   33 1   
     3    1   34 1   
     4    1   35 1   
     5    2    3 1   
     6    3    4 1   
     7    3   36 1   
     8    3   37 1   
     9    4    5 1   
    10    4   38 1   
    11    4   39 1   
    12    5    6 1   
    13    5    9 1   
    14    5   40 1   
    15    6    7 2   
    16    6    8 1   
    17    8   41 1   
    18    8   42 1   
    19    9   10 1   
    20    9   43 1   
    21   10   11 2   
    22   10   12 1   
    23   12   13 1   
    24   12   16 1   
    25   12   44 1   
    26   13   14 1   
    27   13   45 1   
    28   13   46 1   
    29   14   15 1   
    30   14   47 1   
    31   14   48 1   
    32   15   16 1   
    33   15   49 1   
    34   15   50 1   
    35   16   17 1   
    36   17   18 2   
    37   17   19 1   
    38   19   20 1   
    39   19   25 1   
    40   19   51 1   
    41   20   21 1   
    42   20   52 1   
    43   21   22 2   
    44   21   23 1   
    45   23   24 1   
    46   23   53 1   
    47   23   54 1   
    48   24   55 1   
    49   25   26 1   
    50   25   56 1   
    51   25   57 1   
    52   26   27 ar  
    53   26   32 ar  
    54   27   28 ar  
    55   27   58 1   
    56   28   29 ar  
    57   28   59 1   
    58   29   30 1   
    59   29   31 ar  
    60   30   60 1   
    61   31   32 ar  
    62   31   61 1   
    63   32   62 1   
@<TRIPOS>SUBSTRUCTURE
     1 SD2         1 TEMP              0 ****  ****    0 ROOT
