@<TRIPOS>MOLECULE
SD3
   19    17     1     0     0
SMALL
bcc


@<TRIPOS>ATOM
      1 C          -1.8360   -0.5640   -2.2860 c1        1 SD3      0.447000
      2 N           1.3020   -0.1540    0.1810 n4        1 SD3      0.088000
      3 OXT        -0.8770   -0.4550   -1.5770 o         1 SD3     -0.223000
      4 CA          1.8530    0.3690    1.3870 c2        1 SD3     -0.690000
      5 CB          2.5550   -0.4640    2.3080 c3        1 SD3      0.009000
      6 CG          3.9720   -0.6980    1.6940 c2        1 SD3      0.207000
      7 OAD         6.2000    0.1790    1.6080 oh        1 SD3     -0.207000
      8 OD1         4.2520   -1.2430    0.6480 o         1 SD3     -0.192000
      9 ND2         5.1400    0.0530    2.4340 n4        1 SD3     -0.014000
     10 O          -2.7830   -0.6720   -2.9850 o         1 SD3     -0.223000
     11 HN          0.5750   -0.8540    0.3690 hn        1 SD3      0.219667
     12 HNA         2.0310   -0.6020   -0.3880 hn        1 SD3      0.219667
     13 HA          1.7030    1.4350    1.5600 hx        1 SD3      0.179000
     14 HB          2.6400    0.0150    3.3160 hc        1 SD3      0.119500
     15 HBA         2.1660   -1.5130    2.4300 hc        1 SD3      0.119500
     16 HOAD        6.9490    0.5860    2.0950 ho        1 SD3      0.248000
     17 HND2        5.3840   -0.4950    3.2730 hn        1 SD3      0.236500
     18 HN3         0.8770    0.6020   -0.3610 hn        1 SD3      0.219667
     19 HD23        4.7930    0.9800    2.7260 hn        1 SD3      0.236500
@<TRIPOS>BOND
     1    1    3 1   
     2    1   10 1   
     3    2    4 1   
     4    2   11 1   
     5    2   12 1   
     6    2   18 1   
     7    4    5 1   
     8    4   13 1   
     9    5    6 1   
    10    5   14 1   
    11    5   15 1   
    12    6    8 1   
    13    6    9 1   
    14    7    9 1   
    15    7   16 1   
    16    9   17 1   
    17    9   19 1   
@<TRIPOS>SUBSTRUCTURE
     1 SD3         1 TEMP              0 ****  ****    0 ROOT
