@<TRIPOS>MOLECULE
SD3
   19    17     1     0     0
SMALL
bcc


@<TRIPOS>ATOM
      1 C          -1.9310   -0.5670   -2.1550 c1        1 SD3      0.447000
      2 N           1.2800   -0.1460    0.2150 nz        1 SD3      0.088000
      3 OXT        -0.9520   -0.4560   -1.4740 o         1 SD3     -0.223000
      4 CA          1.8890    0.4210    1.3720 c2        1 SD3     -0.690000
      5 CB          2.5790   -0.3870    2.3230 c3        1 SD3      0.009000
      6 CG          3.9670   -0.7210    1.6860 c2        1 SD3      0.207000
      7 OAD         6.2260    0.0490    1.4860 oh        1 SD3     -0.207000
      8 OD1         4.1910   -1.3390    0.6680 o         1 SD3     -0.192000
      9 ND2         5.1870    0.0190    2.3470 ny        1 SD3     -0.014000
     10 O          -2.8960   -0.6760   -2.8270 o         1 SD3     -0.223000
     11 HN          0.8730    0.5950   -0.3610 hn        1 SD3      0.219667
     12 HNA         1.9710   -0.6600   -0.3440 hn        1 SD3      0.219667
     13 HA          1.7900    1.5020    1.4840 hx        1 SD3      0.179000
     14 HB          2.7160    0.1460    3.2970 hc        1 SD3      0.119500
     15 HBA         2.1480   -1.4080    2.5180 hc        1 SD3      0.119500
     16 HOAD        7.0060    0.4500    1.9270 ho        1 SD3      0.248000
     17 HND2        5.4330   -0.4890    3.2100 hn        1 SD3      0.236500
     18 HN3         0.5290   -0.7990    0.4640 hn        1 SD3      0.219667
     19 HD23        4.8890    0.9760    2.5940 hn        1 SD3      0.236500
@<TRIPOS>BOND
     1    1    3 1   
     2    1   10 1   
     3    2    4 1   
     4    2   11 1   
     5    2   12 1   
     6    2   18 1   
     7    4    5 1   
     8    4   13 1   
     9    5    6 1   
    10    5   14 1   
    11    5   15 1   
    12    6    8 1   
    13    6    9 1   
    14    7    9 1   
    15    7   16 1   
    16    9   17 1   
    17    9   19 1   
@<TRIPOS>SUBSTRUCTURE
     1 SD3         1 TEMP              0 ****  ****    0 ROOT
