@<TRIPOS>MOLECULE
SD3
   19    17     1     0     0
SMALL
bcc


@<TRIPOS>ATOM
      1 C          -1.6730   -1.2070   -1.7940 c1        1 SD3      0.923000
      2 N           1.7040   -0.0520    0.0060 n4        1 SD3     -0.842600
      3 OXT        -0.6900   -0.8350   -1.2140 o         1 SD3     -0.460000
      4 CA          2.0350    0.8670    1.1290 c3        1 SD3      0.118800
      5 CB          2.7940    0.2020    2.2680 c3        1 SD3     -0.197400
      6 CG          4.1410   -0.3350    1.8210 c         1 SD3      0.604100
      7 OAD         6.2400   -1.0770    2.4670 oh        1 SD3     -0.403100
      8 OD1         4.3190   -0.6870    0.6360 o         1 SD3     -0.611100
      9 ND2         5.2080   -0.2840    2.7400 n         1 SD3     -0.326400
     10 O          -2.6390   -1.5730   -2.3630 o         1 SD3     -0.460000
     11 HN          1.1080   -0.8220    0.3270 hn        1 SD3      0.473467
     12 HNA         2.5780   -0.4510   -0.3850 hn        1 SD3      0.473467
     13 HA          1.0680    1.2950    1.5260 hx        1 SD3      0.115200
     14 HB          2.9120    0.9770    3.0770 hc        1 SD3      0.112700
     15 HBA         2.2090   -0.6530    2.7050 hc        1 SD3      0.112700
     16 HOAD        6.7840   -0.6040    1.8020 ho        1 SD3      0.449000
     17 HND2        2.6580    1.7080    0.7020 hx        1 SD3      0.115200
     18 HN3         1.2000    0.4530   -0.7310 hn        1 SD3      0.473467
     19 HD23        4.9420   -0.4140    3.7100 hn        1 SD3      0.329500
@<TRIPOS>BOND
     1    1    3 2   
     2    1   10 2   
     3    2    4 1   
     4    2   11 1   
     5    2   12 1   
     6    2   18 1   
     7    4    5 1   
     8    4   13 1   
     9    4   17 1   
    10    5    6 1   
    11    5   14 1   
    12    5   15 1   
    13    6    8 2   
    14    6    9 1   
    15    7    9 1   
    16    7   16 1   
    17    9   19 1   
@<TRIPOS>SUBSTRUCTURE
     1 SD3         1 TEMP              0 ****  ****    0 ROOT
