@<TRIPOS>MOLECULE
SD3
   17    16     1     0     0
SMALL
bcc


@<TRIPOS>ATOM
      1 C          -2.1710   -0.2050   -0.3330 c         1 SD3      0.894600
      2 N          -0.3800    1.2740    0.7170 n3        1 SD3     -0.906800
      3 OXT        -2.9950    0.6950   -0.0130 o         1 SD3     -0.832800
      4 CA         -0.6820   -0.0250    0.1340 c3        1 SD3      0.002500
      5 CB          0.2160   -0.3710   -1.0490 c3        1 SD3     -0.132400
      6 CG          1.6950   -0.2370   -0.8080 c         1 SD3      0.607100
      7 OAD         3.4660   -0.0930    0.7050 oh        1 SD3     -0.458100
      8 OD1         2.5060   -0.0190   -1.7320 o         1 SD3     -0.632100
      9 ND2         2.2140   -0.5230    0.4920 n         1 SD3     -0.360400
     10 O          -2.4470   -1.2520   -0.9780 o         1 SD3     -0.832800
     11 HN         -0.4110    1.9680   -0.0090 hn        1 SD3      0.340800
     12 HNA        -1.1290    1.4970    1.3530 hn        1 SD3      0.340800
     13 HA         -0.5280   -0.7910    0.9500 h1        1 SD3      0.045700
     14 HB         -0.0080   -1.4330   -1.3430 hc        1 SD3      0.090200
     15 HBA        -0.0430    0.2790   -1.9280 hc        1 SD3      0.090200
     16 HOAD        4.0140   -0.5050    0.0090 ho        1 SD3      0.421000
     17 HND2        1.6380   -0.1520    1.2410 hn        1 SD3      0.322500
@<TRIPOS>BOND
     1    1    3 1   
     2    1    4 1   
     3    1   10 1   
     4    2    4 1   
     5    2   11 1   
     6    2   12 1   
     7    4    5 1   
     8    4   13 1   
     9    5    6 1   
    10    5   14 1   
    11    5   15 1   
    12    6    8 2   
    13    6    9 1   
    14    7    9 1   
    15    7   16 1   
    16    9   17 1   
@<TRIPOS>SUBSTRUCTURE
     1 SD3         1 TEMP              0 ****  ****    0 ROOT
