@<TRIPOS>MOLECULE
SD4
   17    16     1     0     0
SMALL
bcc


@<TRIPOS>ATOM
      1 C           2.1640    0.2760    0.3170 c         1 SD4      0.894600
      2 N           0.4100   -1.2640   -0.7080 n3        1 SD4     -0.906800
      3 OXT         3.0120   -0.6040    0.0020 o         1 SD4     -0.832800
      4 CA          0.6790    0.0500   -0.1390 c3        1 SD4      0.002500
      5 CB         -0.2230    0.3810    1.0460 c3        1 SD4     -0.132400
      6 CG         -1.6980    0.2040    0.8140 c         1 SD4      0.607100
      7 OD1        -2.4980   -0.0270    1.7450 o         1 SD4     -0.632100
      8 ND2        -2.2320    0.4630   -0.4860 n         1 SD4     -0.360400
      9 O           2.4140    1.3360    0.9510 o         1 SD4     -0.832800
     10 H5          0.5000    0.8030   -0.9620 h1        1 SD4      0.045700
     11 H6          0.0590   -0.2520    1.9290 hc        1 SD4      0.090200
     12 H7         -0.0260    1.4530    1.3280 hc        1 SD4      0.090200
     13 H8         -4.0280    0.3990    0.0080 ho        1 SD4      0.421000
     14 H9         -1.6490    0.1010   -1.2350 hn        1 SD4      0.322500
     15 H1          1.1610   -1.4720   -1.3460 hn        1 SD4      0.340800
     16 OAD        -3.4730   -0.0040   -0.6880 oh        1 SD4     -0.458100
     17 H2          0.4650   -1.9490    0.0240 hn        1 SD4      0.340800
@<TRIPOS>BOND
     1    1    3 1   
     2    1    4 1   
     3    1    9 1   
     4    2    4 1   
     5    2   15 1   
     6    2   17 1   
     7    4    5 1   
     8    4   10 1   
     9    5    6 1   
    10    5   11 1   
    11    5   12 1   
    12    6    7 2   
    13    6    8 1   
    14    8   14 1   
    15    8   16 1   
    16   13   16 1   
@<TRIPOS>SUBSTRUCTURE
     1 SD4         1 TEMP              0 ****  ****    0 ROOT
