@<TRIPOS>MOLECULE
SD5
   50    49     1     0     0
SMALL
bcc


@<TRIPOS>ATOM
      1 N01        -6.7640    1.0090    0.2170 n3        1 SD5     -0.332000
      2 C02        -5.3430    0.9390    0.2020 c2        1 SD5      0.133000
      3 C03        -4.7080   -0.2870    0.3890 c2        1 SD5     -0.217000
      4 C04        -3.3510   -0.3650    0.3610 c1        1 SD5     -0.039000
      5 C05        -2.6120    0.7540    0.1510 c2        1 SD5     -0.102000
      6 C06        -3.2470    1.9860   -0.0380 c1        1 SD5     -0.007000
      7 N07        -4.6050    2.0610   -0.0100 n1        1 SD5     -0.183000
      8 C08        -1.0700    0.6730    0.1690 c2        1 SD5      0.107000
      9 C09        -0.3630    0.7290   -1.0150 c2        1 SD5     -0.305000
     10 C10         1.0330    0.7920   -0.9900 c1        1 SD5      0.181000
     11 N11         1.6920    0.7980    0.2150 n2        1 SD5     -0.276000
     12 C12         0.9750    0.7420    1.3940 c1        1 SD5      0.172000
     13 N13        -0.4060    0.6800    1.3630 n1        1 SD5     -0.225000
     14 N14         1.6710    0.8430    2.6830 n3        1 SD5     -0.191000
     15 C15         2.9800    1.2940    2.4710 c3        1 SD5     -0.089000
     16 C16         3.8600    0.2390    1.7850 c3        1 SD5     -0.056000
     17 O17         3.8100   -1.0070    2.4410 os        1 SD5     -0.273000
     18 C18         2.4980   -1.4530    2.6520 c3        1 SD5     -0.056000
     19 C19         1.6260   -0.4010    3.3380 c3        1 SD5     -0.089000
     20 N20         1.7720    1.0510   -2.2240 n2        1 SD5     -0.239000
     21 C21         0.9330    0.5690   -3.4360 c3        1 SD5     -0.073000
     22 C22         0.4410   -0.8450   -3.2820 c3        1 SD5     -0.033000
     23 O23         1.1170   -1.4750   -2.4280 os        1 SD5     -0.275000
     24 C24         2.3920   -1.4160   -2.2460 c3        1 SD5     -0.033000
     25 C25         2.8960    0.0020   -2.3840 c3        1 SD5     -0.073000
     26 C26        -2.6630   -1.6930    0.6720 c2        1 SD5      0.471000
     27 F27        -3.5760   -2.6440    0.7990 f         1 SD5     -0.161333
     28 F28        -1.9700   -1.5830    1.8210 f         1 SD5     -0.161333
     29 F29        -1.8420   -2.0010   -0.3090 f         1 SD5     -0.161333
     30 HN01       -7.1730    1.7790    0.0630 hn        1 SD5      0.217000
     31 HN0A       -7.2400    0.2790    0.3800 hn        1 SD5      0.217000
     32 H03        -5.2340   -1.0850    0.5410 ha        1 SD5      0.163000
     33 H06        -2.7180    2.7890   -0.1880 ha        1 SD5      0.175000
     34 H09        -0.8680    0.7240   -1.9230 ha        1 SD5      0.156000
     35 H15         3.3740    1.5260    3.3200 h1        1 SD5      0.119500
     36 H15A        2.9500    2.0780    1.9220 h1        1 SD5      0.119500
     37 H16         4.8420    0.5750    1.7840 h1        1 SD5      0.097500
     38 H16A        3.5700    0.1300    0.8780 h1        1 SD5      0.097500
     39 H18         2.0930   -1.6800    1.7790 h1        1 SD5      0.097500
     40 H18A        2.5210   -2.2610    3.2120 h1        1 SD5      0.097500
     41 H19         0.7130   -0.7140    3.3500 h1        1 SD5      0.119500
     42 H19A        1.9360   -0.2860    4.2660 h1        1 SD5      0.119500
     43 H21         0.1830    1.1430   -3.5410 h1        1 SD5      0.102250
     44 H21A        1.5000    0.6210   -4.2620 h1        1 SD5      0.102250
     45 H22        -0.4640   -0.8270   -3.0050 h1        1 SD5      0.095500
     46 H22A        0.5000   -1.2900   -4.1190 h1        1 SD5      0.095500
     47 H24         2.8560   -2.0040   -2.9370 h1        1 SD5      0.095500
     48 H24A        2.6070   -1.7530   -1.3320 h1        1 SD5      0.095500
     49 H25         3.2960    0.1080   -3.2520 h1        1 SD5      0.102250
     50 H25A        3.5800    0.1610   -1.6990 h1        1 SD5      0.102250
@<TRIPOS>BOND
     1    1    2 1   
     2    1   30 1   
     3    1   31 1   
     4    2    3 1   
     5    2    7 1   
     6    3    4 1   
     7    3   32 1   
     8    4    5 1   
     9    5    6 1   
    10    5    8 1   
    11    6   33 1   
    12    8    9 1   
    13    8   13 1   
    14    9   10 1   
    15    9   34 1   
    16   10   11 1   
    17   11   12 1   
    18   12   14 1   
    19   14   15 1   
    20   14   19 1   
    21   15   16 1   
    22   15   35 1   
    23   15   36 1   
    24   16   17 1   
    25   16   37 1   
    26   16   38 1   
    27   17   18 1   
    28   18   19 1   
    29   18   39 1   
    30   18   40 1   
    31   19   41 1   
    32   19   42 1   
    33   20   21 1   
    34   20   25 1   
    35   21   22 1   
    36   21   43 1   
    37   21   44 1   
    38   22   23 1   
    39   22   45 1   
    40   22   46 1   
    41   23   24 1   
    42   24   25 1   
    43   24   47 1   
    44   24   48 1   
    45   25   49 1   
    46   25   50 1   
    47   26   27 1   
    48   26   28 1   
    49   26   29 1   
@<TRIPOS>SUBSTRUCTURE
     1 SD5         1 TEMP              0 ****  ****    0 ROOT
