@<TRIPOS>MOLECULE
SD5
   51    54     1     0     0
SMALL
bcc


@<TRIPOS>ATOM
      1 N01        -0.1200   -0.5120   -0.1130 n4        1 SD5     -0.811300
      2 C02         1.3520   -0.4030   -0.0430 ca        1 SD5      0.414200
      3 C03         1.9400    0.4740    0.8820 ca        1 SD5     -0.157300
      4 C04         3.3470    0.5390    0.9270 ca        1 SD5     -0.096300
      5 C05         4.0970   -0.2640    0.0670 cp        1 SD5     -0.112800
      6 C06         3.3890   -1.1130   -0.8400 ca        1 SD5      0.440200
      7 N07         2.0620   -1.1930   -0.9080 nb        1 SD5     -0.630000
      8 C08         5.5730   -0.3190    0.0370 cp        1 SD5      0.494800
      9 C09         6.2200   -0.2600   -1.2020 ca        1 SD5     -0.453600
     10 C10         7.6590   -0.3370   -1.1870 ca        1 SD5      0.736200
     11 N11         8.3300   -0.5120   -0.0090 nb        1 SD5     -0.794000
     12 C12         7.5970   -0.5240    1.1670 ca        1 SD5      0.933900
     13 N13         6.2050   -0.4560    1.2220 nb        1 SD5     -0.782000
     14 N14         8.3020   -0.5430    2.3840 nh        1 SD5     -0.720300
     15 C15         9.6990   -0.9530    2.3610 c3        1 SD5      0.167300
     16 C16        10.4150   -0.7200    3.6990 c3        1 SD5      0.116900
     17 O17         9.6720   -1.2350    4.7940 os        1 SD5     -0.401600
     18 C18         8.3860   -0.6370    4.8740 c3        1 SD5      0.116900
     19 C19         7.5680   -0.8710    3.5970 c3        1 SD5      0.167300
     20 N20         8.3940   -0.1790   -2.3660 nh        1 SD5     -0.740300
     21 C21         9.8040   -0.5400   -2.3530 c3        1 SD5      0.167300
     22 C22        10.5450   -0.1810   -3.6460 c3        1 SD5      0.116900
     23 O23         9.8300   -0.6120   -4.7970 os        1 SD5     -0.396600
     24 C24         8.5470   -0.0120   -4.8600 c3        1 SD5      0.116900
     25 C25         7.6930   -0.3410   -3.6270 c3        1 SD5      0.167300
     26 C26         3.9650    1.5160    1.9450 c3        1 SD5      0.704200
     27 F27         5.0120    2.2520    1.4650 f         1 SD5     -0.210633
     28 F28         3.0640    2.4630    2.3810 f         1 SD5     -0.210633
     29 F29         4.4020    0.9190    3.0950 f         1 SD5     -0.210633
     30 HN01       -0.4080   -1.4680    0.1330 hn        1 SD5      0.473800
     31 HN0A       -0.5410    0.1540    0.5420 hn        1 SD5      0.473800
     32 H03         1.3450    1.1070    1.5640 ha        1 SD5      0.186000
     33 H06         3.9490   -1.7680   -1.5420 h4        1 SD5      0.079100
     34 H09         5.6490   -0.1400   -2.1270 ha        1 SD5      0.151000
     35 H15        10.2490   -0.3580    1.5780 h1        1 SD5      0.065700
     36 H15A        9.7710   -2.0460    2.0950 h1        1 SD5      0.065700
     37 H16        11.3780   -1.2960    3.7130 h1        1 SD5      0.065450
     38 H16A       10.6160    0.3730    3.8550 h1        1 SD5      0.065450
     39 H18         7.8870   -1.1510    5.7380 h1        1 SD5      0.065450
     40 H18A        8.4880    0.4600    5.0830 h1        1 SD5      0.065450
     41 H19         6.6470   -0.2230    3.6640 h1        1 SD5      0.065700
     42 H19A        7.2420   -1.9510    3.5670 h1        1 SD5      0.065700
     43 H21        10.3110    0.0070   -1.5080 h1        1 SD5      0.058950
     44 H21A        9.9100   -1.6490   -2.1710 h1        1 SD5      0.058950
     45 H22        11.5170   -0.7400   -3.6910 h1        1 SD5      0.067450
     46 H22A       10.7310    0.9240   -3.7050 h1        1 SD5      0.067450
     47 H24         8.6520    1.1000   -4.9760 h1        1 SD5      0.067450
     48 H24A        8.0700   -0.4530   -5.7750 h1        1 SD5      0.067450
     49 H25         6.8140    0.3640   -3.6450 h1        1 SD5      0.058950
     50 H25A        7.3090   -1.3980   -3.7230 h1        1 SD5      0.058950
     51 H013       -0.4400   -0.3060   -1.0690 hn        1 SD5      0.473800
@<TRIPOS>BOND
     1    1    2 1   
     2    1   30 1   
     3    1   31 1   
     4    1   51 1   
     5    2    3 ar  
     6    2    7 ar  
     7    3    4 ar  
     8    3   32 1   
     9    4    5 ar  
    10    4   26 1   
    11    5    6 ar  
    12    5    8 1   
    13    6    7 ar  
    14    6   33 1   
    15    8    9 ar  
    16    8   13 ar  
    17    9   10 ar  
    18    9   34 1   
    19   10   11 ar  
    20   10   20 1   
    21   11   12 ar  
    22   12   13 ar  
    23   12   14 1   
    24   14   15 1   
    25   14   19 1   
    26   15   16 1   
    27   15   35 1   
    28   15   36 1   
    29   16   17 1   
    30   16   37 1   
    31   16   38 1   
    32   17   18 1   
    33   18   19 1   
    34   18   39 1   
    35   18   40 1   
    36   19   41 1   
    37   19   42 1   
    38   20   21 1   
    39   20   25 1   
    40   21   22 1   
    41   21   43 1   
    42   21   44 1   
    43   22   23 1   
    44   22   45 1   
    45   22   46 1   
    46   23   24 1   
    47   24   25 1   
    48   24   47 1   
    49   24   48 1   
    50   25   49 1   
    51   25   50 1   
    52   26   27 1   
    53   26   28 1   
    54   26   29 1   
@<TRIPOS>SUBSTRUCTURE
     1 SD5         1 TEMP              0 ****  ****    0 ROOT
