@<TRIPOS>MOLECULE
SD5
   50    53     1     0     0
SMALL
bcc


@<TRIPOS>ATOM
      1 N01        -0.0850   -0.4780   -0.0550 nh        1 SD5     -0.937500
      2 C02         1.2990   -0.3490   -0.0560 ca        1 SD5      0.657200
      3 C03         1.9300    0.4950    0.9100 ca        1 SD5     -0.283300
      4 C04         3.3200    0.5490    0.9720 ca        1 SD5     -0.044300
      5 C05         4.0820   -0.2200    0.0820 cp        1 SD5     -0.275800
      6 C06         3.3730   -1.0150   -0.8520 ca        1 SD5      0.457200
      7 N07         2.0440   -1.0900   -0.9480 nb        1 SD5     -0.711000
      8 C08         5.5530   -0.2750    0.0540 cp        1 SD5      0.542800
      9 C09         6.2050   -0.1870   -1.1890 ca        1 SD5     -0.427600
     10 C10         7.6300   -0.2910   -1.1900 ca        1 SD5      0.693200
     11 N11         8.3230   -0.4690   -0.0280 nb        1 SD5     -0.795000
     12 C12         7.5970   -0.4940    1.1520 ca        1 SD5      0.902900
     13 N13         6.2110   -0.4390    1.2220 nb        1 SD5     -0.757000
     14 N14         8.3200   -0.5110    2.3740 nh        1 SD5     -0.719300
     15 C15         9.6850   -1.0130    2.3310 c3        1 SD5      0.162300
     16 C16        10.4260   -0.8290    3.6620 c3        1 SD5      0.118900
     17 O17         9.6760   -1.3220    4.7640 os        1 SD5     -0.412600
     18 C18         8.4050   -0.6920    4.8550 c3        1 SD5      0.118900
     19 C19         7.5800   -0.8750    3.5750 c3        1 SD5      0.162300
     20 N20         8.3290   -0.1290   -2.4150 nh        1 SD5     -0.733300
     21 C21         9.7840   -0.0600   -2.3530 c3        1 SD5      0.153800
     22 C22        10.3980    0.2890   -3.7160 c3        1 SD5      0.121400
     23 O23         9.9380   -0.5840   -4.7420 os        1 SD5     -0.411600
     24 C24         8.5210   -0.5820   -4.8460 c3        1 SD5      0.121400
     25 C25         7.8530   -0.9580   -3.5160 c3        1 SD5      0.153800
     26 C26         3.9410    1.4780    2.0220 c3        1 SD5      0.692200
     27 F27         4.9910    2.2400    1.5800 f         1 SD5     -0.230967
     28 F28         3.0620    2.4170    2.5180 f         1 SD5     -0.230967
     29 F29         4.3970    0.8470    3.1510 f         1 SD5     -0.230967
     30 HN01       -0.5090   -0.9280   -0.8330 hn        1 SD5      0.422800
     31 HN0A       -0.5890    0.2810    0.3400 hn        1 SD5      0.422800
     32 H03         1.3220    1.0930    1.6050 ha        1 SD5      0.163000
     33 H06         3.9310   -1.6380   -1.5780 h4        1 SD5      0.034100
     34 H09         5.6340   -0.0080   -2.1060 ha        1 SD5      0.156000
     35 H15        10.2630   -0.4500    1.5450 h1        1 SD5      0.064200
     36 H15A        9.6930   -2.1080    2.0610 h1        1 SD5      0.064200
     37 H16        10.6750    0.2520    3.8300 h1        1 SD5      0.057950
     38 H16A       11.3630   -1.4450    3.6590 h1        1 SD5      0.057950
     39 H18         8.5400    0.3970    5.0880 h1        1 SD5      0.057950
     40 H18A        7.8940   -1.2090    5.7090 h1        1 SD5      0.057950
     41 H19         6.6680   -0.2160    3.6610 h1        1 SD5      0.064200
     42 H19A        7.2370   -1.9480    3.5150 h1        1 SD5      0.064200
     43 H21        10.2250   -1.0360   -2.0000 h1        1 SD5      0.056450
     44 H21A       10.0720    0.7440   -1.6200 h1        1 SD5      0.056450
     45 H22        11.5070    0.1260   -3.6850 h1        1 SD5      0.058200
     46 H22A       10.1700    1.3510   -3.9960 h1        1 SD5      0.058200
     47 H24         8.1690    0.4250   -5.1960 h1        1 SD5      0.058200
     48 H24A        8.2930   -1.3620   -5.6190 h1        1 SD5      0.058200
     49 H25         8.0560   -2.0490   -3.3110 h1        1 SD5      0.056450
     50 H25A        6.7430   -0.8220   -3.6300 h1        1 SD5      0.056450
@<TRIPOS>BOND
     1    1    2 1   
     2    1   30 1   
     3    1   31 1   
     4    2    3 ar  
     5    2    7 ar  
     6    3    4 ar  
     7    3   32 1   
     8    4    5 ar  
     9    4   26 1   
    10    5    6 ar  
    11    5    8 1   
    12    6    7 ar  
    13    6   33 1   
    14    8    9 ar  
    15    8   13 ar  
    16    9   10 ar  
    17    9   34 1   
    18   10   11 ar  
    19   10   20 1   
    20   11   12 ar  
    21   12   13 ar  
    22   12   14 1   
    23   14   15 1   
    24   14   19 1   
    25   15   16 1   
    26   15   35 1   
    27   15   36 1   
    28   16   17 1   
    29   16   37 1   
    30   16   38 1   
    31   17   18 1   
    32   18   19 1   
    33   18   39 1   
    34   18   40 1   
    35   19   41 1   
    36   19   42 1   
    37   20   21 1   
    38   20   25 1   
    39   21   22 1   
    40   21   43 1   
    41   21   44 1   
    42   22   23 1   
    43   22   45 1   
    44   22   46 1   
    45   23   24 1   
    46   24   25 1   
    47   24   47 1   
    48   24   48 1   
    49   25   49 1   
    50   25   50 1   
    51   26   27 1   
    52   26   28 1   
    53   26   29 1   
@<TRIPOS>SUBSTRUCTURE
     1 SD5         1 TEMP              0 ****  ****    0 ROOT
