@<TRIPOS>MOLECULE
SD5
   50    53     1     0     0
SMALL
bcc


@<TRIPOS>ATOM
      1 N01         5.2720    3.6380    0.7250 nh        1 SD5     -0.937500
      2 C02         4.0890    2.9450    0.4920 ca        1 SD5      0.657200
      3 C03         4.0950    1.8130   -0.3810 ca        1 SD5     -0.283300
      4 C04         2.9320    1.0620   -0.5390 ca        1 SD5     -0.044300
      5 C05         1.7720    1.4300    0.1560 cp        1 SD5     -0.275800
      6 C06         1.8540    2.5750    0.9860 ca        1 SD5      0.457200
      7 N07         2.9440    3.3240    1.1590 nb        1 SD5     -0.711000
      8 C08         0.4870    0.7130    0.1000 cp        1 SD5      0.542800
      9 C09        -0.6940    1.4610   -0.0570 ca        1 SD5     -0.427600
     10 C10        -1.9280    0.7420   -0.0610 ca        1 SD5      0.693200
     11 N11        -1.9530   -0.6150    0.0840 nb        1 SD5     -0.795000
     12 C12        -0.7360   -1.2690    0.1830 ca        1 SD5      0.902900
     13 N13         0.4960   -0.6310    0.2340 nb        1 SD5     -0.757000
     14 N14        -0.7450   -2.6890    0.1660 nh        1 SD5     -0.719300
     15 C15        -1.9780   -3.3510    0.5640 c3        1 SD5      0.162300
     16 C16        -1.9330   -4.8690    0.3470 c3        1 SD5      0.118900
     17 O17        -0.7690   -5.4550    0.9130 os        1 SD5     -0.412600
     18 C18         0.4180   -4.8790    0.3820 c3        1 SD5      0.118900
     19 C19         0.4700   -3.3630    0.6050 c3        1 SD5      0.162300
     20 N20        -3.1350    1.4530   -0.2950 nh        1 SD5     -0.733300
     21 C21        -4.3510    0.6690   -0.4730 c3        1 SD5      0.153800
     22 C22        -5.5400    1.5460   -0.8890 c3        1 SD5      0.121400
     23 O23        -5.7250    2.6430   -0.0010 os        1 SD5     -0.411600
     24 C24        -4.5570    3.4460    0.1020 c3        1 SD5      0.121400
     25 C25        -3.3400    2.6230    0.5490 c3        1 SD5      0.153800
     26 C26         2.9940   -0.1350   -1.4940 c3        1 SD5      0.692200
     27 F27         1.9230   -0.2640   -2.3400 f         1 SD5     -0.230967
     28 F28         4.0690   -0.0990   -2.3560 f         1 SD5     -0.230967
     29 F29         3.1230   -1.3550   -0.8800 f         1 SD5     -0.230967
     30 HN01        5.2120    4.5130    1.1920 hn        1 SD5      0.422800
     31 HN0A        5.9600    3.5680    0.0120 hn        1 SD5      0.422800
     32 H03         5.0120    1.5330   -0.9200 ha        1 SD5      0.163000
     33 H06         0.9620    2.9060    1.5530 h4        1 SD5      0.034100
     34 H09        -0.6510    2.5440   -0.2080 ha        1 SD5      0.156000
     35 H15        -2.2010   -3.1470    1.6510 h1        1 SD5      0.064200
     36 H15A       -2.8300   -2.9490   -0.0540 h1        1 SD5      0.064200
     37 H16        -2.7870   -5.3520    0.8910 h1        1 SD5      0.057950
     38 H16A       -1.9840   -5.1140   -0.7470 h1        1 SD5      0.057950
     39 H18         1.2500   -5.3720    0.9490 h1        1 SD5      0.057950
     40 H18A        0.4980   -5.1230   -0.7110 h1        1 SD5      0.057950
     41 H19         1.3470   -2.9630    0.0180 h1        1 SD5      0.064200
     42 H19A        0.6560   -3.1640    1.6990 h1        1 SD5      0.064200
     43 H21        -4.1710   -0.0900   -1.2850 h1        1 SD5      0.056450
     44 H21A       -4.6250    0.1190    0.4730 h1        1 SD5      0.056450
     45 H22        -5.4070    1.9280   -1.9350 h1        1 SD5      0.058200
     46 H22A       -6.4920    0.9580   -0.8100 h1        1 SD5      0.058200
     47 H24        -4.3560    3.9490   -0.8810 h1        1 SD5      0.058200
     48 H24A       -4.8080    4.2090    0.8840 h1        1 SD5      0.058200
     49 H25        -3.4920    2.3180    1.6250 h1        1 SD5      0.056450
     50 H25A       -2.4320    3.2840    0.4950 h1        1 SD5      0.056450
@<TRIPOS>BOND
     1    1    2 1   
     2    1   30 1   
     3    1   31 1   
     4    2    3 ar  
     5    2    7 ar  
     6    3    4 ar  
     7    3   32 1   
     8    4    5 ar  
     9    4   26 1   
    10    5    6 ar  
    11    5    8 1   
    12    6    7 ar  
    13    6   33 1   
    14    8    9 ar  
    15    8   13 ar  
    16    9   10 ar  
    17    9   34 1   
    18   10   11 ar  
    19   10   20 1   
    20   11   12 ar  
    21   12   13 ar  
    22   12   14 1   
    23   14   15 1   
    24   14   19 1   
    25   15   16 1   
    26   15   35 1   
    27   15   36 1   
    28   16   17 1   
    29   16   37 1   
    30   16   38 1   
    31   17   18 1   
    32   18   19 1   
    33   18   39 1   
    34   18   40 1   
    35   19   41 1   
    36   19   42 1   
    37   20   21 1   
    38   20   25 1   
    39   21   22 1   
    40   21   43 1   
    41   21   44 1   
    42   22   23 1   
    43   22   45 1   
    44   22   46 1   
    45   23   24 1   
    46   24   25 1   
    47   24   47 1   
    48   24   48 1   
    49   25   49 1   
    50   25   50 1   
    51   26   27 1   
    52   26   28 1   
    53   26   29 1   
@<TRIPOS>SUBSTRUCTURE
     1 SD5         1 TEMP              0 ****  ****    0 ROOT
