@<TRIPOS>MOLECULE
SD5
   50    53     1     0     0
SMALL
bcc


@<TRIPOS>ATOM
      1 N01        -0.0860   -0.4380   -0.0530 nv        1 SD5     -0.937500
      2 C02         1.2990   -0.3180   -0.0550 ca        1 SD5      0.657200
      3 C03         1.9350    0.5250    0.9090 ca        1 SD5     -0.283300
      4 C04         3.3250    0.5720    0.9700 ca        1 SD5     -0.044300
      5 C05         4.0820   -0.2040    0.0830 cp        1 SD5     -0.275800
      6 C06         3.3690   -0.9970   -0.8490 ca        1 SD5      0.457200
      7 N07         2.0390   -1.0650   -0.9450 nb        1 SD5     -0.711000
      8 C08         5.5530   -0.2680    0.0540 cp        1 SD5      0.542800
      9 C09         6.2060   -0.1870   -1.1890 ca        1 SD5     -0.427600
     10 C10         7.6300   -0.2990   -1.1890 ca        1 SD5      0.693200
     11 N11         8.3220   -0.4790   -0.0270 nb        1 SD5     -0.795000
     12 C12         7.5960   -0.4960    1.1530 ca        1 SD5      0.902900
     13 N13         6.2110   -0.4330    1.2220 nb        1 SD5     -0.757000
     14 N14         8.3190   -0.5140    2.3750 nh        1 SD5     -0.719300
     15 C15         9.6810   -1.0250    2.3330 c3        1 SD5      0.162300
     16 C16        10.4230   -0.8420    3.6630 c3        1 SD5      0.118900
     17 O17         9.6710   -1.3280    4.7670 os        1 SD5     -0.412600
     18 C18         8.4030   -0.6890    4.8560 c3        1 SD5      0.118900
     19 C19         7.5770   -0.8700    3.5770 c3        1 SD5      0.162300
     20 N20         8.3300   -0.1450   -2.4160 nh        1 SD5     -0.733300
     21 C21         9.7850   -0.0840   -2.3540 c3        1 SD5      0.153800
     22 C22        10.4000    0.2570   -3.7170 c3        1 SD5      0.121400
     23 O23         9.9360   -0.6160   -4.7410 os        1 SD5     -0.411600
     24 C24         8.5180   -0.6060   -4.8450 c3        1 SD5      0.121400
     25 C25         7.8490   -0.9750   -3.5140 c3        1 SD5      0.153800
     26 C26         3.9510    1.5000    2.0180 c3        1 SD5      0.692200
     27 F27         5.0070    2.2540    1.5730 f         1 SD5     -0.230967
     28 F28         3.0780    2.4460    2.5110 f         1 SD5     -0.230967
     29 F29         4.4040    0.8690    3.1480 f         1 SD5     -0.230967
     30 HN01       -0.5130   -0.8880   -0.8300 hn        1 SD5      0.422800
     31 HN0A       -0.5850    0.3250    0.3400 hn        1 SD5      0.422800
     32 H03         1.3300    1.1300    1.6030 ha        1 SD5      0.163000
     33 H06         3.9230   -1.6260   -1.5740 h4        1 SD5      0.034100
     34 H09         5.6360   -0.0080   -2.1070 ha        1 SD5      0.156000
     35 H15         9.6820   -2.1210    2.0660 h1        1 SD5      0.064200
     36 H15A       10.2620   -0.4680    1.5450 h1        1 SD5      0.064200
     37 H16        10.6790    0.2380    3.8280 h1        1 SD5      0.057950
     38 H16A       11.3570   -1.4640    3.6620 h1        1 SD5      0.057950
     39 H18         8.5460    0.4000    5.0860 h1        1 SD5      0.057950
     40 H18A        7.8890   -1.2000    5.7120 h1        1 SD5      0.057950
     41 H19         7.2280   -1.9410    3.5200 h1        1 SD5      0.064200
     42 H19A        6.6690   -0.2060    3.6620 h1        1 SD5      0.064200
     43 H21        10.0770    0.7210   -1.6230 h1        1 SD5      0.056450
     44 H21A       10.2200   -1.0620   -1.9980 h1        1 SD5      0.056450
     45 H22        11.5090    0.0880   -3.6870 h1        1 SD5      0.058200
     46 H22A       10.1790    1.3200   -4.0010 h1        1 SD5      0.058200
     47 H24         8.2870   -1.3870   -5.6160 h1        1 SD5      0.058200
     48 H24A        8.1720    0.4010   -5.1980 h1        1 SD5      0.058200
     49 H25         8.0460   -2.0670   -3.3060 h1        1 SD5      0.056450
     50 H25A        6.7400   -0.8330   -3.6280 h1        1 SD5      0.056450
@<TRIPOS>BOND
     1    1    2 1   
     2    1   30 1   
     3    1   31 1   
     4    2    3 ar  
     5    2    7 ar  
     6    3    4 ar  
     7    3   32 1   
     8    4    5 ar  
     9    4   26 1   
    10    5    6 ar  
    11    5    8 1   
    12    6    7 ar  
    13    6   33 1   
    14    8    9 ar  
    15    8   13 ar  
    16    9   10 ar  
    17    9   34 1   
    18   10   11 ar  
    19   10   20 1   
    20   11   12 ar  
    21   12   13 ar  
    22   12   14 1   
    23   14   15 1   
    24   14   19 1   
    25   15   16 1   
    26   15   35 1   
    27   15   36 1   
    28   16   17 1   
    29   16   37 1   
    30   16   38 1   
    31   17   18 1   
    32   18   19 1   
    33   18   39 1   
    34   18   40 1   
    35   19   41 1   
    36   19   42 1   
    37   20   21 1   
    38   20   25 1   
    39   21   22 1   
    40   21   43 1   
    41   21   44 1   
    42   22   23 1   
    43   22   45 1   
    44   22   46 1   
    45   23   24 1   
    46   24   25 1   
    47   24   47 1   
    48   24   48 1   
    49   25   49 1   
    50   25   50 1   
    51   26   27 1   
    52   26   28 1   
    53   26   29 1   
@<TRIPOS>SUBSTRUCTURE
     1 SD5         1 TEMP              0 ****  ****    0 ROOT
