@<TRIPOS>MOLECULE
SD8
   46    49     1     0     0
SMALL
bcc


@<TRIPOS>ATOM
      1 C1          0.2330    0.3900   -0.2160 c2        1 SD8      0.596200
      2 C2          1.6190   -0.1230    0.1240 c3        1 SD8     -0.123600
      3 C3          0.2350   -1.5390    1.9440 ca        1 SD8     -0.049100
      4 C4          0.1170   -2.5130    2.9400 ca        1 SD8     -0.106000
      5 C5         -1.0900   -3.1720    3.1420 ca        1 SD8     -0.119000
      6 C6         -2.1920   -2.8680    2.3390 ca        1 SD8     -0.132000
      7 C7         -2.1010   -1.8930    1.3540 ca        1 SD8     -0.087000
      8 C8         -0.8860   -1.1960    1.1490 ca        1 SD8      0.135400
      9 C9          0.8550    1.4140   -2.3290 c3        1 SD8      0.175300
     10 C10        -0.0970    0.9210   -3.4410 c3        1 SD8      0.147300
     11 C11        -1.9820    1.8720   -2.2140 c3        1 SD8      0.147300
     12 C12        -1.0020    2.3370   -1.1170 c3        1 SD8      0.175300
     13 C13        -2.1490    1.4080   -4.5940 cc        1 SD8      0.610300
     14 C14        -2.9830    1.1720   -6.8670 cc        1 SD8     -0.209400
     15 C15        -3.9420    1.0350   -5.8660 cd        1 SD8      0.321800
     16 C16        -5.3490    0.7640   -6.2000 c         1 SD8      0.566600
     17 C17        -7.6000    0.5150   -5.4740 c3        1 SD8      0.137400
     18 C18        -8.3520    0.5840   -4.1680 c3        1 SD8     -0.100100
     19 N1         -0.8790   -0.1550    0.2090 ne        1 SD8     -0.619100
     20 N2          0.2340    1.5740   -1.0230 nh        1 SD8     -0.680600
     21 N3         -1.3170    1.7200   -3.5050 nh        1 SD8     -0.707300
     22 N4         -3.4700    1.1540   -4.5640 nd        1 SD8     -0.627000
     23 O1         -5.7900    0.5370   -7.3320 o         1 SD8     -0.552000
     24 O2         -6.2200    0.7800   -5.1520 os        1 SD8     -0.406900
     25 S1          1.7300   -0.7740    1.7550 ss        1 SD8     -0.134000
     26 S2         -1.4860    1.4840   -6.2230 ss        1 SD8     -0.090300
     27 H21         1.9000   -0.9030   -0.6280 h1        1 SD8      0.092700
     28 H22         2.3880    0.6910    0.0810 h1        1 SD8      0.092700
     29 H4          0.9920   -2.7590    3.5610 ha        1 SD8      0.141000
     30 H5         -1.1750   -3.9360    3.9290 ha        1 SD8      0.136000
     31 H6         -3.1430   -3.4010    2.4900 ha        1 SD8      0.136000
     32 H7         -2.9790   -1.6550    0.7330 ha        1 SD8      0.149000
     33 H91         1.2590    2.4280   -2.6130 h1        1 SD8      0.071200
     34 H92         1.7160    0.6940   -2.2710 h1        1 SD8      0.071200
     35 H101        0.4390    1.0160   -4.4280 h1        1 SD8      0.061450
     36 H102       -0.3280   -0.1700   -3.2690 h1        1 SD8      0.061450
     37 H111       -2.4770    0.9120   -1.8890 h1        1 SD8      0.061450
     38 H112       -2.7810    2.6570   -2.3260 h1        1 SD8      0.061450
     39 H121       -0.6860    3.3990   -1.3300 h1        1 SD8      0.071200
     40 H122       -1.5480    2.3250   -0.1350 h1        1 SD8      0.071200
     41 H14        -3.1990    1.0780   -7.9330 h4        1 SD8      0.203000
     42 H171       -7.9540    1.2880   -6.2050 h1        1 SD8      0.051700
     43 H172       -7.6710   -0.4980   -5.9490 h1        1 SD8      0.051700
     44 H181       -8.2430    1.5930   -3.7050 hc        1 SD8      0.048700
     45 H182       -7.9590   -0.1750   -3.4490 hc        1 SD8      0.048700
     46 H183       -9.4330    0.3820   -4.3600 hc        1 SD8      0.048700
@<TRIPOS>BOND
     1    1    2 1   
     2    1   19 2   
     3    1   20 1   
     4    2   25 1   
     5    2   27 1   
     6    2   28 1   
     7    3    4 ar  
     8    3    8 ar  
     9    3   25 1   
    10    4    5 ar  
    11    4   29 1   
    12    5    6 ar  
    13    5   30 1   
    14    6    7 ar  
    15    6   31 1   
    16    7    8 ar  
    17    7   32 1   
    18    8   19 1   
    19    9   10 1   
    20    9   20 1   
    21    9   33 1   
    22    9   34 1   
    23   10   21 1   
    24   10   35 1   
    25   10   36 1   
    26   11   12 1   
    27   11   21 1   
    28   11   37 1   
    29   11   38 1   
    30   12   20 1   
    31   12   39 1   
    32   12   40 1   
    33   13   21 1   
    34   13   22 2   
    35   13   26 1   
    36   14   15 2   
    37   14   26 1   
    38   14   41 1   
    39   15   16 1   
    40   15   22 1   
    41   16   23 2   
    42   16   24 1   
    43   17   18 1   
    44   17   24 1   
    45   17   42 1   
    46   17   43 1   
    47   18   44 1   
    48   18   45 1   
    49   18   46 1   
@<TRIPOS>SUBSTRUCTURE
     1 SD8         1 TEMP              0 ****  ****    0 ROOT
