@<TRIPOS>MOLECULE
SD8
   46    49     1     0     0
SMALL
bcc


@<TRIPOS>ATOM
      1 C1          0.2470    0.3720   -0.2350 c2        1 SD8      0.596200
      2 C2          1.6320   -0.1510    0.0960 c3        1 SD8     -0.123600
      3 C3          0.2500   -1.5600    1.9220 ca        1 SD8     -0.049100
      4 C4          0.1310   -2.5350    2.9180 ca        1 SD8     -0.106000
      5 C5         -1.0790   -3.1850    3.1260 ca        1 SD8     -0.119000
      6 C6         -2.1840   -2.8720    2.3310 ca        1 SD8     -0.132000
      7 C7         -2.0920   -1.8970    1.3470 ca        1 SD8     -0.087000
      8 C8         -0.8740   -1.2080    1.1360 ca        1 SD8      0.135400
      9 C9          0.8630    1.3960   -2.3500 c3        1 SD8      0.175300
     10 C10        -0.1000    0.9120   -3.4570 c3        1 SD8      0.147300
     11 C11        -1.9700    1.8730   -2.2150 c3        1 SD8      0.147300
     12 C12        -0.9790    2.3300   -1.1240 c3        1 SD8      0.175300
     13 C13        -2.1550    1.4150   -4.5950 cc        1 SD8      0.609300
     14 C14        -3.0060    1.1920   -6.8630 cc        1 SD8     -0.209400
     15 C15        -3.9590    1.0550   -5.8560 cd        1 SD8      0.320800
     16 C16        -5.3700    0.7920   -6.1810 c         1 SD8      0.566600
     17 C17        -7.6160    0.5480   -5.4410 c3        1 SD8      0.137400
     18 C18        -8.3580    0.6120   -4.1280 c3        1 SD8     -0.100100
     19 N1         -0.8650   -0.1650    0.1970 ne        1 SD8     -0.619100
     20 N2          0.2510    1.5580   -1.0390 nh        1 SD8     -0.680600
     21 N3         -1.3140    1.7200   -3.5110 nh        1 SD8     -0.707300
     22 N4         -3.4770    1.1670   -4.5570 nd        1 SD8     -0.627000
     23 O1         -5.8190    0.5720   -7.3120 o         1 SD8     -0.552000
     24 O2         -6.2330    0.8050   -5.1270 os        1 SD8     -0.406900
     25 S1          1.7490   -0.8050    1.7240 ss        1 SD8     -0.134000
     26 S2         -1.5030    1.4950   -6.2290 ss        1 SD8     -0.089300
     27 H21         1.9020   -0.9320   -0.6600 h1        1 SD8      0.092700
     28 H22         2.4060    0.6580    0.0490 h1        1 SD8      0.092700
     29 H4          1.0090   -2.7880    3.5330 ha        1 SD8      0.141000
     30 H5         -1.1640   -3.9500    3.9120 ha        1 SD8      0.136000
     31 H6         -3.1370   -3.3990    2.4870 ha        1 SD8      0.136000
     32 H7         -2.9730   -1.6510    0.7320 ha        1 SD8      0.149000
     33 H91         1.2730    2.4070   -2.6340 h1        1 SD8      0.071200
     34 H92         1.7190    0.6690   -2.2990 h1        1 SD8      0.071200
     35 H101       -0.3370   -0.1780   -3.2850 h1        1 SD8      0.061450
     36 H102        0.4300    1.0050   -4.4470 h1        1 SD8      0.061450
     37 H111       -2.4690    0.9160   -1.8890 h1        1 SD8      0.061450
     38 H112       -2.7650    2.6640   -2.3210 h1        1 SD8      0.061450
     39 H121       -1.5200    2.3200   -0.1390 h1        1 SD8      0.071200
     40 H122       -0.6580    3.3900   -1.3370 h1        1 SD8      0.071200
     41 H14        -3.2300    1.1030   -7.9280 h4        1 SD8      0.203000
     42 H171       -7.6940   -0.4630   -5.9200 h1        1 SD8      0.051700
     43 H172       -7.9720    1.3260   -6.1650 h1        1 SD8      0.051700
     44 H181       -9.4410    0.4160   -4.3140 hc        1 SD8      0.048700
     45 H182       -8.2420    1.6190   -3.6610 hc        1 SD8      0.048700
     46 H183       -7.9630   -0.1520   -3.4170 hc        1 SD8      0.048700
@<TRIPOS>BOND
     1    1    2 1   
     2    1   19 2   
     3    1   20 1   
     4    2   25 1   
     5    2   27 1   
     6    2   28 1   
     7    3    4 ar  
     8    3    8 ar  
     9    3   25 1   
    10    4    5 ar  
    11    4   29 1   
    12    5    6 ar  
    13    5   30 1   
    14    6    7 ar  
    15    6   31 1   
    16    7    8 ar  
    17    7   32 1   
    18    8   19 1   
    19    9   10 1   
    20    9   20 1   
    21    9   33 1   
    22    9   34 1   
    23   10   21 1   
    24   10   35 1   
    25   10   36 1   
    26   11   12 1   
    27   11   21 1   
    28   11   37 1   
    29   11   38 1   
    30   12   20 1   
    31   12   39 1   
    32   12   40 1   
    33   13   21 1   
    34   13   22 2   
    35   13   26 1   
    36   14   15 2   
    37   14   26 1   
    38   14   41 1   
    39   15   16 1   
    40   15   22 1   
    41   16   23 2   
    42   16   24 1   
    43   17   18 1   
    44   17   24 1   
    45   17   42 1   
    46   17   43 1   
    47   18   44 1   
    48   18   45 1   
    49   18   46 1   
@<TRIPOS>SUBSTRUCTURE
     1 SD8         1 TEMP              0 ****  ****    0 ROOT
