@<TRIPOS>MOLECULE
SD8
   46    49     1     0     0
SMALL
bcc


@<TRIPOS>ATOM
      1 C1          0.2370    0.3960   -0.2210 c2        1 SD8      0.596200
      2 C2          1.6250   -0.1130    0.1190 c3        1 SD8     -0.123600
      3 C3          0.2470   -1.5210    1.9490 ca        1 SD8     -0.049100
      4 C4          0.1330   -2.4900    2.9510 ca        1 SD8     -0.106000
      5 C5         -1.0720   -3.1500    3.1590 ca        1 SD8     -0.119000
      6 C6         -2.1770   -2.8520    2.3570 ca        1 SD8     -0.132000
      7 C7         -2.0890   -1.8830    1.3670 ca        1 SD8     -0.087000
      8 C8         -0.8760   -1.1850    1.1550 ca        1 SD8      0.135400
      9 C9          0.8530    1.4100   -2.3410 c3        1 SD8      0.175300
     10 C10        -0.1010    0.9100   -3.4490 c3        1 SD8      0.147300
     11 C11        -1.9850    1.8650   -2.2210 c3        1 SD8      0.147300
     12 C12        -1.0020    2.3370   -1.1290 c3        1 SD8      0.175300
     13 C13        -2.1550    1.3890   -4.5990 cc        1 SD8      0.610300
     14 C14        -2.9920    1.1400   -6.8700 cc        1 SD8     -0.209400
     15 C15        -3.9510    1.0140   -5.8670 cd        1 SD8      0.321800
     16 C16        -5.3590    0.7450   -6.1980 c         1 SD8      0.566600
     17 C17        -7.6110    0.5130   -5.4690 c3        1 SD8      0.137400
     18 C18        -8.3620    0.5990   -4.1630 c3        1 SD8     -0.100100
     19 N1         -0.8730   -0.1480    0.2100 ne        1 SD8     -0.619100
     20 N2          0.2340    1.5750   -1.0340 nh        1 SD8     -0.680600
     21 N3         -1.3220    1.7080   -3.5130 nh        1 SD8     -0.707300
     22 N4         -3.4770    1.1400   -4.5660 nd        1 SD8     -0.627000
     23 O1         -5.8010    0.5080   -7.3280 o         1 SD8     -0.552000
     24 O2         -6.2300    0.7750   -5.1500 os        1 SD8     -0.406900
     25 S1          1.7400   -0.7550    1.7530 ss        1 SD8     -0.134000
     26 S2         -1.4930    1.4520   -6.2300 ss        1 SD8     -0.090300
     27 H21         1.9050   -0.8970   -0.6300 h1        1 SD8      0.092700
     28 H22         2.3930    0.7020    0.0690 h1        1 SD8      0.092700
     29 H4          1.0100   -2.7310    3.5720 ha        1 SD8      0.141000
     30 H5         -1.1540   -3.9090    3.9500 ha        1 SD8      0.136000
     31 H6         -3.1260   -3.3860    2.5130 ha        1 SD8      0.136000
     32 H7         -2.9690   -1.6490    0.7460 ha        1 SD8      0.149000
     33 H91         1.7150    0.6910   -2.2810 h1        1 SD8      0.071200
     34 H92         1.2550    2.4230   -2.6310 h1        1 SD8      0.071200
     35 H101       -0.3300   -0.1800   -3.2710 h1        1 SD8      0.061700
     36 H102        0.4330    1.0010   -4.4370 h1        1 SD8      0.061700
     37 H111       -2.4780    0.9060   -1.8910 h1        1 SD8      0.061700
     38 H112       -2.7850    2.6480   -2.3360 h1        1 SD8      0.061700
     39 H121       -0.6890    3.3980   -1.3480 h1        1 SD8      0.071200
     40 H122       -1.5470    2.3290   -0.1460 h1        1 SD8      0.071200
     41 H14        -3.2100    1.0400   -7.9350 h4        1 SD8      0.203000
     42 H171       -7.6860   -0.5050   -5.9320 h1        1 SD8      0.051700
     43 H172       -7.9610    1.2790   -6.2080 h1        1 SD8      0.051700
     44 H181       -7.9720   -0.1530   -3.4360 hc        1 SD8      0.048700
     45 H182       -9.4440    0.4000   -4.3530 hc        1 SD8      0.048700
     46 H183       -8.2490    1.6130   -3.7120 hc        1 SD8      0.048700
@<TRIPOS>BOND
     1    1    2 1   
     2    1   19 2   
     3    1   20 1   
     4    2   25 1   
     5    2   27 1   
     6    2   28 1   
     7    3    4 ar  
     8    3    8 ar  
     9    3   25 1   
    10    4    5 ar  
    11    4   29 1   
    12    5    6 ar  
    13    5   30 1   
    14    6    7 ar  
    15    6   31 1   
    16    7    8 ar  
    17    7   32 1   
    18    8   19 1   
    19    9   10 1   
    20    9   20 1   
    21    9   33 1   
    22    9   34 1   
    23   10   21 1   
    24   10   35 1   
    25   10   36 1   
    26   11   12 1   
    27   11   21 1   
    28   11   37 1   
    29   11   38 1   
    30   12   20 1   
    31   12   39 1   
    32   12   40 1   
    33   13   21 1   
    34   13   22 2   
    35   13   26 1   
    36   14   15 2   
    37   14   26 1   
    38   14   41 1   
    39   15   16 1   
    40   15   22 1   
    41   16   23 2   
    42   16   24 1   
    43   17   18 1   
    44   17   24 1   
    45   17   42 1   
    46   17   43 1   
    47   18   44 1   
    48   18   45 1   
    49   18   46 1   
@<TRIPOS>SUBSTRUCTURE
     1 SD8         1 TEMP              0 ****  ****    0 ROOT
