@<TRIPOS>MOLECULE
SD8
   46    49     1     0     0
SMALL
bcc


@<TRIPOS>ATOM
      1 C1         -0.7720    0.7180   -2.7140 c2        1 SD8      0.596200
      2 C2         -1.6290    0.2810   -3.8880 c3        1 SD8     -0.123600
      3 C3          0.7660   -0.4380   -4.8780 ca        1 SD8     -0.049100
      4 C4          1.5920   -1.0460   -5.8290 ca        1 SD8     -0.106000
      5 C5          2.8300   -1.5590   -5.4630 ca        1 SD8     -0.119000
      6 C6          3.2520   -1.4770   -4.1330 ca        1 SD8     -0.132000
      7 C7          2.4540   -0.8640   -3.1760 ca        1 SD8     -0.087000
      8 C8          1.2000   -0.3160   -3.5360 ca        1 SD8      0.135400
      9 C9         -2.6120    1.0040   -1.1540 c3        1 SD8      0.175300
     10 C10        -2.3110    0.2270    0.1470 c3        1 SD8      0.147300
     11 C11        -0.3090    1.5890    0.4670 c3        1 SD8      0.147300
     12 C12        -0.6360    2.3340   -0.8450 c3        1 SD8      0.175300
     13 C13        -1.3290    0.4120    2.3330 cc        1 SD8      0.610300
     14 C14        -1.7900   -0.4870    4.5460 cc        1 SD8     -0.209400
     15 C15        -0.4440   -0.2680    4.2630 cd        1 SD8      0.320800
     16 C16         0.5960   -0.5740    5.2580 c         1 SD8      0.566600
     17 C17         2.8860   -0.4970    5.8960 c3        1 SD8      0.137400
     18 C18         4.1810    0.0030    5.3020 c3        1 SD8     -0.100100
     19 N1          0.4810    0.3790   -2.5510 ne        1 SD8     -0.619100
     20 N2         -1.4450    1.5890   -1.7970 nh        1 SD8     -0.680600
     21 N3         -1.5060    1.0150    1.0760 nh        1 SD8     -0.707300
     22 N4         -0.1720    0.2330    2.9950 nd        1 SD8     -0.627000
     23 O1          0.4100   -1.1240    6.3490 o         1 SD8     -0.552000
     24 O2          1.8640   -0.1990    4.9240 os        1 SD8     -0.406900
     25 S1         -0.7250    0.1680   -5.3930 ss        1 SD8     -0.134000
     26 S2         -2.7500   -0.0490    3.2650 ss        1 SD8     -0.089300
     27 H21        -2.0930   -0.7060   -3.6360 h1        1 SD8      0.092700
     28 H22        -2.4550    1.0090   -4.0960 h1        1 SD8      0.092700
     29 H4          1.2490   -1.1200   -6.8730 ha        1 SD8      0.141000
     30 H5          3.4740   -2.0350   -6.2170 ha        1 SD8      0.136000
     31 H6          4.2260   -1.8970   -3.8410 ha        1 SD8      0.136000
     32 H7          2.8010   -0.7960   -2.1320 ha        1 SD8      0.149000
     33 H91        -3.1400    0.3030   -1.8560 h1        1 SD8      0.071200
     34 H92        -3.3060    1.8610   -0.9190 h1        1 SD8      0.071200
     35 H101       -1.8020   -0.7450   -0.1160 h1        1 SD8      0.061450
     36 H102       -3.2920   -0.0130    0.6460 h1        1 SD8      0.061450
     37 H111        0.1270    2.3320    1.1920 h1        1 SD8      0.061450
     38 H112        0.4700    0.8000    0.2630 h1        1 SD8      0.061450
     39 H121        0.3340    2.6510   -1.3150 h1        1 SD8      0.071200
     40 H122       -1.2300    3.2630   -0.6030 h1        1 SD8      0.071200
     41 H14        -2.1540   -0.8990    5.4890 h4        1 SD8      0.203000
     42 H171        2.9030   -1.6040    6.0720 h1        1 SD8      0.051700
     43 H172        2.6330    0.0250    6.8550 h1        1 SD8      0.051700
     44 H181        5.0120   -0.2060    6.0170 hc        1 SD8      0.048700
     45 H182        4.3910   -0.5100    4.3330 hc        1 SD8      0.048700
     46 H183        4.1260    1.1010    5.1120 hc        1 SD8      0.048700
@<TRIPOS>BOND
     1    1    2 1   
     2    1   19 2   
     3    1   20 1   
     4    2   25 1   
     5    2   27 1   
     6    2   28 1   
     7    3    4 ar  
     8    3    8 ar  
     9    3   25 1   
    10    4    5 ar  
    11    4   29 1   
    12    5    6 ar  
    13    5   30 1   
    14    6    7 ar  
    15    6   31 1   
    16    7    8 ar  
    17    7   32 1   
    18    8   19 1   
    19    9   10 1   
    20    9   20 1   
    21    9   33 1   
    22    9   34 1   
    23   10   21 1   
    24   10   35 1   
    25   10   36 1   
    26   11   12 1   
    27   11   21 1   
    28   11   37 1   
    29   11   38 1   
    30   12   20 1   
    31   12   39 1   
    32   12   40 1   
    33   13   21 1   
    34   13   22 2   
    35   13   26 1   
    36   14   15 2   
    37   14   26 1   
    38   14   41 1   
    39   15   16 1   
    40   15   22 1   
    41   16   23 2   
    42   16   24 1   
    43   17   18 1   
    44   17   24 1   
    45   17   42 1   
    46   17   43 1   
    47   18   44 1   
    48   18   45 1   
    49   18   46 1   
@<TRIPOS>SUBSTRUCTURE
     1 SD8         1 TEMP              0 ****  ****    0 ROOT
