@<TRIPOS>MOLECULE
SDA
   20    20     1     0     0
SMALL
bcc


@<TRIPOS>ATOM
      1 S1         -0.2730   -0.0450    0.0160 sy        1 SDA      1.515200
      2 N13         1.6750   -0.1710    0.0140 nz        1 SDA     -0.782500
      3 O12        -0.4730    0.0780    1.3750 o         1 SDA     -0.575800
      4 O11        -0.4130    1.0300   -0.8370 o         1 SDA     -0.575800
      5 C2         -0.5850   -1.4580   -0.6010 ca        1 SDA     -0.648500
      6 C7         -0.7470   -1.6370   -2.0000 ca        1 SDA      0.063000
      7 C6         -1.0900   -2.8480   -2.5480 ca        1 SDA     -0.105600
      8 Cl8        -1.2600   -2.9830   -4.2300 cl        1 SDA     -0.027400
      9 C5         -1.3200   -4.0060   -1.7170 ca        1 SDA      0.329600
     10 N10        -1.6710   -5.1930   -2.2370 nv        1 SDA     -0.779200
     11 C4         -1.1510   -3.8170   -0.2950 ca        1 SDA     -0.105600
     12 Cl9        -1.3960   -5.1270    0.7540 cl        1 SDA     -0.027400
     13 C3         -0.8070   -2.5940    0.2230 ca        1 SDA      0.063000
     14 H131        2.0010   -1.0560   -0.3570 hn        1 SDA      0.449133
     15 H132        2.0330   -0.0740    0.9610 hn        1 SDA      0.449133
     16 H7         -0.6070   -0.7600   -2.6650 ha        1 SDA      0.180000
     17 H101       -1.7960   -5.3030   -3.2200 hn        1 SDA      0.474800
     18 H102       -1.8390   -5.9800   -1.6470 hn        1 SDA      0.474800
     19 H3         -0.7150   -2.4750    1.3230 ha        1 SDA      0.180000
     20 H133        2.0740    0.5760   -0.5490 hn        1 SDA      0.449133
@<TRIPOS>BOND
     1    1    2 1   
     2    1    3 2   
     3    1    4 2   
     4    1    5 1   
     5    2   14 1   
     6    2   15 1   
     7    2   20 1   
     8    5    6 ar  
     9    5   13 ar  
    10    6    7 ar  
    11    6   16 1   
    12    7    8 1   
    13    7    9 ar  
    14    9   10 1   
    15    9   11 ar  
    16   10   17 1   
    17   10   18 1   
    18   11   12 1   
    19   11   13 ar  
    20   13   19 1   
@<TRIPOS>SUBSTRUCTURE
     1 SDA         1 TEMP              0 ****  ****    0 ROOT
