@<TRIPOS>MOLECULE
SDA
   21    21     1     0     0
SMALL
bcc


@<TRIPOS>ATOM
      1 S1         -0.1980    0.0170   -0.0690 sy        1 SDA      1.453200
      2 N13         1.6760   -0.0520   -0.0080 n4        1 SDA     -0.806500
      3 O12        -0.5000    0.1210    1.2660 o         1 SDA     -0.519800
      4 O11        -0.3950    0.9870   -1.0190 o         1 SDA     -0.519800
      5 C2         -0.5170   -1.5050   -0.6590 ca        1 SDA     -0.418500
      6 C7         -0.6730   -1.7120   -2.0380 ca        1 SDA      0.016000
      7 C6         -1.0890   -2.9500   -2.5420 ca        1 SDA      0.016900
      8 CL8        -1.2720   -3.1550   -4.2010 cl        1 SDA      0.050600
      9 C5         -1.3620   -4.0080   -1.6460 ca        1 SDA      0.026600
     10 N10        -1.8340   -5.2910   -2.1660 n4        1 SDA     -0.720000
     11 C4         -1.1940   -3.8170   -0.2570 ca        1 SDA      0.016900
     12 CL9        -1.5010   -5.0580    0.8380 cl        1 SDA      0.050600
     13 C3         -0.7770   -2.5670    0.2180 ca        1 SDA      0.016000
     14 H131        2.0110    0.1080    0.9490 hn        1 SDA      0.476467
     15 H132        2.0800   -0.9310   -0.3230 hn        1 SDA      0.476467
     16 H7         -0.4980   -0.8770   -2.7520 ha        1 SDA      0.216000
     17 H101       -1.9720   -5.9680   -1.3950 hn        1 SDA      0.492467
     18 H102       -1.1450   -5.6740   -2.8320 hn        1 SDA      0.492467
     19 H3         -0.6860   -2.4190    1.3170 ha        1 SDA      0.216000
     20 H133        2.0820    0.6910   -0.5890 hn        1 SDA      0.476467
     21 H103       -2.7320   -5.1550   -2.6590 hn        1 SDA      0.492467
@<TRIPOS>BOND
     1    1    2 1   
     2    1    3 2   
     3    1    4 2   
     4    1    5 1   
     5    2   14 1   
     6    2   15 1   
     7    2   20 1   
     8    5    6 ar  
     9    5   13 ar  
    10    6    7 ar  
    11    6   16 1   
    12    7    8 1   
    13    7    9 ar  
    14    9   10 1   
    15    9   11 ar  
    16   10   17 1   
    17   10   18 1   
    18   10   21 1   
    19   11   12 1   
    20   11   13 ar  
    21   13   19 1   
@<TRIPOS>SUBSTRUCTURE
     1 SDA         1 TEMP              0 ****  ****    0 ROOT
