@<TRIPOS>MOLECULE
SDA
   20    20     1     0     0
SMALL
bcc


@<TRIPOS>ATOM
      1 S1         -0.2580   -0.0260   -0.0310 sy        1 SDA      1.515200
      2 N13         1.6890   -0.1220   -0.1390 n4        1 SDA     -0.782500
      3 O12        -0.3840    0.1180    1.3340 o         1 SDA     -0.575800
      4 O11        -0.4630    1.0300   -0.8930 o         1 SDA     -0.575800
      5 C2         -0.5800   -1.4550   -0.6050 ca        1 SDA     -0.648500
      6 C7         -0.8170   -1.6620   -1.9900 ca        1 SDA      0.063000
      7 C6         -1.1700   -2.8870   -2.4970 ca        1 SDA     -0.105600
      8 CL8        -1.4310   -3.0550   -4.1640 cl        1 SDA     -0.027400
      9 C5         -1.3340   -4.0330   -1.6340 ca        1 SDA      0.329600
     10 N10        -1.6940   -5.2350   -2.1140 nh        1 SDA     -0.779200
     11 C4         -1.0900   -3.8160   -0.2280 ca        1 SDA     -0.105600
     12 CL9        -1.2540   -5.1110    0.8550 cl        1 SDA     -0.027400
     13 C3         -0.7380   -2.5790    0.2490 ca        1 SDA      0.063000
     14 H131        2.0440    0.6200   -0.7370 hn        1 SDA      0.449133
     15 H132        2.0970   -0.0020    0.7840 hn        1 SDA      0.449133
     16 H7         -0.7290   -0.7940   -2.6760 ha        1 SDA      0.180000
     17 H101       -1.8160   -6.0130   -1.5020 hn        1 SDA      0.474800
     18 H102       -1.8720   -5.3650   -3.0860 hn        1 SDA      0.474800
     19 H3         -0.5870   -2.4390    1.3400 ha        1 SDA      0.180000
     20 H133        2.0080   -1.0090   -0.5130 hn        1 SDA      0.449133
@<TRIPOS>BOND
     1    1    2 1   
     2    1    3 2   
     3    1    4 2   
     4    1    5 1   
     5    2   14 1   
     6    2   15 1   
     7    2   20 1   
     8    5    6 ar  
     9    5   13 ar  
    10    6    7 ar  
    11    6   16 1   
    12    7    8 1   
    13    7    9 ar  
    14    9   10 1   
    15    9   11 ar  
    16   10   17 1   
    17   10   18 1   
    18   11   12 1   
    19   11   13 ar  
    20   13   19 1   
@<TRIPOS>SUBSTRUCTURE
     1 SDA         1 TEMP              0 ****  ****    0 ROOT
