@<TRIPOS>MOLECULE
SDA
   19    19     1     0     0
SMALL
bcc


@<TRIPOS>ATOM
      1 S1         -2.6230    0.0470    0.1170 sy        1 SDA      1.536200
      2 N13        -3.0600    0.0260   -1.4250 n3        1 SDA     -1.026700
      3 O12        -3.0220    1.2740    0.6900 o         1 SDA     -0.659800
      4 O11        -3.0620   -1.1440    0.7350 o         1 SDA     -0.659800
      5 C2         -0.9410    0.0180    0.0480 ca        1 SDA     -0.443500
      6 C7         -0.2450   -1.1960    0.0590 ca        1 SDA      0.043000
      7 C6          1.1410   -1.2320    0.0150 ca        1 SDA     -0.100600
      8 CL8         1.9280   -2.7430    0.0300 cl        1 SDA     -0.089400
      9 C5          1.9100   -0.0310   -0.0370 ca        1 SDA      0.275600
     10 N10         3.2720   -0.0550   -0.1130 nh        1 SDA     -0.854200
     11 C4          1.1810    1.1970   -0.0300 ca        1 SDA     -0.100600
     12 CL9         2.0180    2.6800   -0.0700 cl        1 SDA     -0.089400
     13 C3         -0.2050    1.2080    0.0140 ca        1 SDA      0.043000
     14 H131       -3.2060    0.8410   -1.9640 hn        1 SDA      0.446800
     15 H132       -3.2340   -0.8040   -1.9330 hn        1 SDA      0.446800
     16 H7         -0.8150   -2.1420    0.1220 ha        1 SDA      0.169000
     17 H101        3.7850    0.7910   -0.0650 hn        1 SDA      0.446800
     18 H102        3.7560   -0.9150   -0.0330 hn        1 SDA      0.446800
     19 H3         -0.7440    2.1750    0.0420 ha        1 SDA      0.169000
@<TRIPOS>BOND
     1    1    2 1   
     2    1    3 2   
     3    1    4 2   
     4    1    5 1   
     5    2   14 1   
     6    2   15 1   
     7    5    6 ar  
     8    5   13 ar  
     9    6    7 ar  
    10    6   16 1   
    11    7    8 1   
    12    7    9 ar  
    13    9   10 1   
    14    9   11 ar  
    15   10   17 1   
    16   10   18 1   
    17   11   12 1   
    18   11   13 ar  
    19   13   19 1   
@<TRIPOS>SUBSTRUCTURE
     1 SDA         1 TEMP              0 ****  ****    0 ROOT
