@<TRIPOS>MOLECULE
SDB
   26    26     1     0     0
SMALL
bcc


@<TRIPOS>ATOM
      1 O          -0.2820   -0.0900    0.3560 oh        1 SDB     -0.576100
      2 C           1.0390    0.2130    0.2000 c         1 SDB      0.604100
      3 CA1         1.9950    0.1400    1.3880 c3        1 SDB      0.110500
      4 CB1         2.3030   -1.3460    1.6440 c3        1 SDB     -0.123400
      5 CG          2.8900   -1.5540    3.0380 c3        1 SDB      0.110800
      6 NE          2.2180   -0.8500    4.0960 n2        1 SDB     -0.651900
      7 N1          1.5280    0.8770    2.5450 nh        1 SDB     -0.842200
      8 C1          1.5620    0.2400    3.8040 c2        1 SDB      0.593200
      9 CA          0.8130    0.9800    4.9390 c3        1 SDB      0.101200
     10 N          -0.5880    1.1290    4.5960 n3        1 SDB     -0.934800
     11 CB          1.5290    2.3260    5.1800 c3        1 SDB      0.119400
     12 OG          0.9620    2.9890    6.2910 oh        1 SDB     -0.598800
     13 OXT         1.3510    0.5230   -0.9470 o         1 SDB     -0.474000
     14 HA1         2.9540    0.6500    1.0570 h1        1 SDB      0.099700
     15 HB11        1.3640   -1.9490    1.5380 hc        1 SDB      0.063700
     16 HB12        3.0270   -1.7010    0.8680 hc        1 SDB      0.063700
     17 H1          0.7410    1.4680    2.3830 hn        1 SDB      0.431800
     18 HG1C        3.9770   -1.2500    3.0330 h1        1 SDB      0.066200
     19 HG2C        2.8450   -2.6500    3.2970 h1        1 SDB      0.066200
     20 HA          0.9360    0.3660    5.8850 h1        1 SDB      0.058700
     21 HN1        -0.4580   -0.3800    1.2620 ho        1 SDB      0.432000
     22 HN2        -1.1230    0.3650    4.9540 hn        1 SDB      0.371300
     23 HB1C        1.3820    3.0350    4.3210 h1        1 SDB      0.068200
     24 HB2C        2.6230    2.1380    5.3320 h1        1 SDB      0.068200
     25 HG          1.2210    2.5030    7.0830 ho        1 SDB      0.402000
     26 HN3        -0.9460    1.9940    4.9540 hn        1 SDB      0.371300
@<TRIPOS>BOND
     1    1    2 1   
     2    1   21 1   
     3    2    3 1   
     4    2   13 2   
     5    3    4 1   
     6    3    7 1   
     7    3   14 1   
     8    4    5 1   
     9    4   15 1   
    10    4   16 1   
    11    5    6 1   
    12    5   18 1   
    13    5   19 1   
    14    6    8 2   
    15    7    8 1   
    16    7   17 1   
    17    8    9 1   
    18    9   10 1   
    19    9   11 1   
    20    9   20 1   
    21   10   22 1   
    22   10   26 1   
    23   11   12 1   
    24   11   23 1   
    25   11   24 1   
    26   12   25 1   
@<TRIPOS>SUBSTRUCTURE
     1 SDB         1 TEMP              0 ****  ****    0 ROOT
