@<TRIPOS>MOLECULE
SDB
   25    24     1     0     0
SMALL
bcc


@<TRIPOS>ATOM
      1 O          -3.8230    0.7570   -2.2010 o         1 SDB     -0.798000
      2 C          -2.5680    0.8640   -2.1790 c1        1 SDB      0.800000
      3 CA1        -1.7800    0.8790   -0.7600 c2        1 SDB      0.152200
      4 CB1        -1.2620    2.0140   -0.5440 c3        1 SDB     -0.178700
      5 CG         -0.4580    2.1410    0.8570 c3        1 SDB      0.117800
      6 NE          0.4930    1.0810    1.0170 n2        1 SDB     -0.717900
      7 N1         -0.6940   -0.2710   -0.7070 nh        1 SDB     -0.425200
      8 C1          0.1010   -0.3240    0.3650 c2        1 SDB      0.436800
      9 CA          0.9740   -1.5360    0.5990 c3        1 SDB      0.088200
     10 N           0.8010   -1.9940    1.9340 n3        1 SDB     -0.903800
     11 CB          2.4220   -1.1630    0.3770 c3        1 SDB      0.130400
     12 OG          3.1740   -2.3290    0.1250 oh        1 SDB     -0.608800
     13 OXT        -1.9260    0.9630   -3.2570 o         1 SDB     -0.798000
     14 HA1        -2.5110    0.7020   -0.1350 h4        1 SDB     -0.041200
     15 HB11       -2.0190    2.6300   -0.4630 hc        1 SDB      0.053700
     16 HB12       -0.5810    2.1210   -1.2410 hc        1 SDB      0.053700
     17 H1         -0.7710   -0.9970   -1.2550 hn        1 SDB      0.269700
     18 HG1C       -1.0150    2.1200    1.6620 h1        1 SDB      0.031200
     19 HG2C        0.0300    2.9830    0.7470 h1        1 SDB      0.031200
     20 HA          0.7210   -2.2450   -0.0250 h1        1 SDB      0.079700
     21 HN1        -0.0370   -2.3520    2.0280 hn        1 SDB      0.352300
     22 HN2         1.4290   -2.6350    2.1210 hn        1 SDB      0.352300
     23 HB1C        2.4900   -0.5590   -0.3900 h1        1 SDB      0.059700
     24 HB2C        2.7700   -0.7160    1.1770 h1        1 SDB      0.059700
     25 HG          4.0410   -2.1340    0.1510 ho        1 SDB      0.403000
@<TRIPOS>BOND
     1    1    2 2   
     2    2   13 2   
     3    3    4 1   
     4    3    7 2   
     5    3   14 1   
     6    4    5 1   
     7    4   15 1   
     8    4   16 1   
     9    5    6 1   
    10    5   18 1   
    11    5   19 1   
    12    6    8 2   
    13    7    8 1   
    14    7   17 1   
    15    8    9 1   
    16    9   10 1   
    17    9   11 1   
    18    9   20 1   
    19   10   21 1   
    20   10   22 1   
    21   11   12 1   
    22   11   23 1   
    23   11   24 1   
    24   12   25 1   
@<TRIPOS>SUBSTRUCTURE
     1 SDB         1 TEMP              0 ****  ****    0 ROOT
