@<TRIPOS>MOLECULE
SDB
   25    25     1     0     0
SMALL
bcc


@<TRIPOS>ATOM
      1 O          -1.8990   -1.9740   -0.0430 o         1 SDB     -0.832300
      2 C          -2.4270   -0.8880    0.3280 c         1 SDB      0.910600
      3 CA1        -1.4790    0.3290    0.6320 c3        1 SDB      0.039500
      4 CB1        -1.7990    1.4390   -0.3710 c3        1 SDB     -0.099400
      5 CG         -0.6500    2.4380   -0.4940 c3        1 SDB      0.111800
      6 NE          0.6550    1.8460   -0.6260 n2        1 SDB     -0.686900
      7 N1         -0.0730   -0.0540    0.6920 nh        1 SDB     -0.800200
      8 C1          0.8350    0.6530   -0.1150 c2        1 SDB      0.539200
      9 CA          2.2050   -0.0330   -0.3420 c3        1 SDB      0.089200
     10 N           2.1270   -1.2050   -1.1900 n3        1 SDB     -0.920800
     11 CB          2.8310   -0.3420    1.0320 c3        1 SDB      0.139400
     12 OG          4.2180   -0.5980    0.9250 oh        1 SDB     -0.616800
     13 OXT        -3.6600   -0.6910    0.4830 o         1 SDB     -0.832300
     14 HA1        -1.7370    0.6960    1.6680 h1        1 SDB      0.049700
     15 HB11       -2.0080    0.9820   -1.3730 hc        1 SDB      0.052700
     16 HB12       -2.7320    1.9560   -0.0380 hc        1 SDB      0.052700
     17 H1          0.0200   -1.0550    0.6330 hn        1 SDB      0.414800
     18 HG1C       -0.8060    3.0830   -1.4040 h1        1 SDB      0.033200
     19 HG2C       -0.6540    3.1180    0.4060 h1        1 SDB      0.033200
     20 HA          2.8940    0.6980   -0.8650 h1        1 SDB      0.085700
     21 HN1         1.5410   -1.9100   -0.7820 hn        1 SDB      0.360300
     22 HN2         1.7490   -0.9550   -2.0830 hn        1 SDB      0.360300
     23 HB1C        2.7540    0.5650    1.6880 h1        1 SDB      0.054200
     24 HB2C        2.3220   -1.2100    1.5290 h1        1 SDB      0.054200
     25 HG          4.3330   -1.3000    0.2740 ho        1 SDB      0.407000
@<TRIPOS>BOND
     1    1    2 1   
     2    2    3 1   
     3    2   13 1   
     4    3    4 1   
     5    3    7 1   
     6    3   14 1   
     7    4    5 1   
     8    4   15 1   
     9    4   16 1   
    10    5    6 1   
    11    5   18 1   
    12    5   19 1   
    13    6    8 2   
    14    7    8 1   
    15    7   17 1   
    16    8    9 1   
    17    9   10 1   
    18    9   11 1   
    19    9   20 1   
    20   10   21 1   
    21   10   22 1   
    22   11   12 1   
    23   11   23 1   
    24   11   24 1   
    25   12   25 1   
@<TRIPOS>SUBSTRUCTURE
     1 SDB         1 TEMP              0 ****  ****    0 ROOT
