@<TRIPOS>MOLECULE
SDB
   26    26     1     0     0
SMALL
bcc


@<TRIPOS>ATOM
      1 O          -0.1570    0.0690    0.2720 oh        1 SDB     -0.577100
      2 C           1.1730    0.3660    0.2000 c         1 SDB      0.604100
      3 CA1         2.0690    0.2050    1.4240 c3        1 SDB      0.109500
      4 CB1         2.3490   -1.2980    1.6000 c3        1 SDB     -0.123400
      5 CG          2.8720   -1.5990    3.0030 c3        1 SDB      0.110800
      6 NE          2.1610   -0.9520    4.0720 n2        1 SDB     -0.645900
      7 N1          1.5550    0.8750    2.6020 nu        1 SDB     -0.843200
      8 C1          1.5290    0.1610    3.8210 c2        1 SDB      0.588200
      9 CA          0.7310    0.8350    4.9650 c3        1 SDB      0.136200
     10 N          -0.6540    1.0060    4.5670 n8        1 SDB     -0.931800
     11 CB          1.4400    2.1600    5.3080 c3        1 SDB      0.122400
     12 OG          0.7900    2.6700    6.4630 oh        1 SDB     -0.613800
     13 OXT         1.5420    0.7490   -0.9080 o         1 SDB     -0.475000
     14 HA1         3.0480    0.7210    1.1720 h1        1 SDB      0.099700
     15 HB11        1.4080   -1.8800    1.4170 hc        1 SDB      0.063700
     16 HB12        3.1020   -1.6150    0.8350 hc        1 SDB      0.063700
     17 H1          0.7740    1.4760    2.4410 hn        1 SDB      0.429800
     18 HG1C        2.8030   -2.7080    3.1920 h1        1 SDB      0.066200
     19 HG2C        3.9600   -1.3100    3.0640 h1        1 SDB      0.066200
     20 HA          0.8150    0.1740    5.8830 h1        1 SDB      0.076700
     21 HN1        -0.3780   -0.2800    1.1470 ho        1 SDB      0.433000
     22 HN2        -1.0390    1.8280    4.9910 hn        1 SDB      0.369800
     23 HB1C        2.5210    1.9520    5.5250 h1        1 SDB      0.044700
     24 HB2C        1.3610    2.9030    4.4710 h1        1 SDB      0.044700
     25 HG          1.2790    3.4570    6.7310 ho        1 SDB      0.411000
     26 HN3        -1.1930    0.2070    4.8370 hn        1 SDB      0.369800
@<TRIPOS>BOND
     1    1    2 1   
     2    1   21 1   
     3    2    3 1   
     4    2   13 2   
     5    3    4 1   
     6    3    7 1   
     7    3   14 1   
     8    4    5 1   
     9    4   15 1   
    10    4   16 1   
    11    5    6 1   
    12    5   18 1   
    13    5   19 1   
    14    6    8 2   
    15    7    8 1   
    16    7   17 1   
    17    8    9 1   
    18    9   10 1   
    19    9   11 1   
    20    9   20 1   
    21   10   22 1   
    22   10   26 1   
    23   11   12 1   
    24   11   23 1   
    25   11   24 1   
    26   12   25 1   
@<TRIPOS>SUBSTRUCTURE
     1 SDB         1 TEMP              0 ****  ****    0 ROOT
