@<TRIPOS>MOLECULE
SDB
   26    26     1     0     0
SMALL
bcc


@<TRIPOS>ATOM
      1 O          -0.2610   -0.7570    1.0160 oh        1 SDB     -0.574100
      2 C           0.9330   -0.3640    0.4910 c         1 SDB      0.588100
      3 CA1         2.0260    0.3000    1.3320 c3        1 SDB      0.110500
      4 CB1         3.1030   -0.7530    1.6470 c3        1 SDB     -0.106400
      5 CG          2.7520   -1.5850    2.8800 c3        1 SDB      0.099800
      6 NE          2.0110   -0.9290    3.9210 n2        1 SDB     -0.638900
      7 N1          1.5810    0.9980    2.5150 nh        1 SDB     -0.834200
      8 C1          1.4570    0.2290    3.7000 c2        1 SDB      0.569200
      9 CA          0.6300    0.8820    4.8350 c3        1 SDB      0.135200
     10 N          -0.7300    1.0990    4.3760 n3        1 SDB     -0.933800
     11 CB          1.3550    2.1750    5.2600 c3        1 SDB      0.122400
     12 OG          0.6590    2.6640    6.3960 oh        1 SDB     -0.612800
     13 OXT         1.0380   -0.5920   -0.7150 o         1 SDB     -0.491000
     14 HA1         2.4860    1.0820    0.6490 h1        1 SDB      0.100700
     15 HB11        4.0740   -0.2190    1.8200 hc        1 SDB      0.071200
     16 HB12        3.2310   -1.4190    0.7550 hc        1 SDB      0.071200
     17 H1          0.8430    1.6520    2.3550 hn        1 SDB      0.428800
     18 HG1C        3.7060   -1.9630    3.3460 h1        1 SDB      0.069200
     19 HG2C        2.1540   -2.4890    2.5640 h1        1 SDB      0.069200
     20 HA          0.6540    0.1880    5.7310 h1        1 SDB      0.078700
     21 HN1        -1.1000    1.9460    4.7610 hn        1 SDB      0.370800
     22 HN2        -1.3130    0.3300    4.6400 hn        1 SDB      0.370800
     23 HB1C        1.3400    2.9480    4.4470 h1        1 SDB      0.043700
     24 HB2C        2.4170    1.9280    5.5230 h1        1 SDB      0.043700
     25 HG          1.1670    3.4120    6.7320 ho        1 SDB      0.412000
     26 HN3        -0.2910   -0.6030    1.9710 ho        1 SDB      0.436000
@<TRIPOS>BOND
     1    1    2 1   
     2    1   26 1   
     3    2    3 1   
     4    2   13 2   
     5    3    4 1   
     6    3    7 1   
     7    3   14 1   
     8    4    5 1   
     9    4   15 1   
    10    4   16 1   
    11    5    6 1   
    12    5   18 1   
    13    5   19 1   
    14    6    8 2   
    15    7    8 1   
    16    7   17 1   
    17    8    9 1   
    18    9   10 1   
    19    9   11 1   
    20    9   20 1   
    21   10   21 1   
    22   10   22 1   
    23   11   12 1   
    24   11   23 1   
    25   11   24 1   
    26   12   25 1   
@<TRIPOS>SUBSTRUCTURE
     1 SDB         1 TEMP              0 ****  ****    0 ROOT
