@<TRIPOS>MOLECULE
SDC
   24    22     1     0     0
SMALL
bcc


@<TRIPOS>ATOM
      1 O01        -0.6480   -2.8990    3.3500 o         1 SDC     -0.587000
      2 NP2        -2.5150   -3.2590    0.4660 n3        1 SDC     -0.314000
      3 C03        -1.4420   -2.5770    1.1050 c3        1 SDC     -0.124000
      4 C04        -1.6290   -2.6380    2.6040 c2        1 SDC      0.312000
      5 O05        -2.7640   -2.4280    3.1060 o         1 SDC     -0.587000
      6 C06        -1.4250   -1.1330    0.6580 c3        1 SDC     -0.232000
      7 S07         0.2330   -0.6630    0.2420 ss        1 SDC     -0.002000
      8 C08         0.2330    0.9840   -0.4160 c3        1 SDC     -0.213000
      9 C09         1.6140    1.3200   -0.9330 c3        1 SDC     -0.889000
     10 S10         1.7000    3.0520   -1.3050 s4        1 SDC      2.036800
     11 O11         1.4670    3.8490   -0.1330 o         1 SDC     -0.578900
     12 N12         3.1460    3.4140   -1.9940 n2        1 SDC     -0.958000
     13 O13         0.6070    3.4600   -2.1430 o         1 SDC     -0.578900
     14 HP21       -2.6770   -4.0480    0.9010 hn        1 SDC      0.129500
     15 HP22       -2.2910   -3.4300   -0.4050 hn        1 SDC      0.129500
     16 H03        -0.5960   -3.0020    0.8650 h1        1 SDC      0.102000
     17 H061       -1.7530   -0.5640    1.3830 h1        1 SDC      0.114500
     18 H062       -2.0010   -1.0280   -0.1250 h1        1 SDC      0.114500
     19 H081       -0.4130    1.0420   -1.1480 h1        1 SDC      0.113000
     20 H082       -0.0150    1.6160    0.2880 h1        1 SDC      0.113000
     21 H091        2.2800    1.0990   -0.2520 h1        1 SDC      0.186500
     22 H092        1.7930    0.8030   -1.7440 h1        1 SDC      0.186500
     23 H121        3.2390    3.3870   -2.9030 hn        1 SDC      0.264000
     24 H122        3.8580    3.6420   -1.4680 hn        1 SDC      0.264000
@<TRIPOS>BOND
     1    1    4 1   
     2    2    3 1   
     3    2   14 1   
     4    2   15 1   
     5    3    4 1   
     6    3    6 1   
     7    3   16 1   
     8    4    5 1   
     9    6    7 1   
    10    6   17 1   
    11    6   18 1   
    12    7    8 1   
    13    8    9 1   
    14    8   19 1   
    15    8   20 1   
    16    9   10 1   
    17    9   21 1   
    18    9   22 1   
    19   10   11 1   
    20   10   13 1   
    21   12   23 1   
    22   12   24 1   
@<TRIPOS>SUBSTRUCTURE
     1 SDC         1 TEMP              0 ****  ****    0 ROOT
