@<TRIPOS>MOLECULE
SDC
   26    25     1     0     0
SMALL
bcc


@<TRIPOS>ATOM
      1 O01         3.4550   -0.9210   -4.6940 o         1 SDC     -0.793300
      2 NP2         2.7380    0.5170   -1.6440 n4        1 SDC     -0.829600
      3 C03         3.4630   -0.6370   -2.2760 c3        1 SDC     -0.000500
      4 C04         2.7590   -0.9110   -3.6440 c         1 SDC      0.882600
      5 O05         1.5280   -1.1800   -3.6180 o         1 SDC     -0.793300
      6 C06         3.4120   -1.8800   -1.3850 c3        1 SDC     -0.067300
      7 S07         4.7020   -3.0410   -1.7030 ss        1 SDC     -0.179200
      8 C08         4.0170   -4.3150   -2.7300 c3        1 SDC      0.024700
      9 C09         3.3650   -3.6900   -3.9310 c3        1 SDC     -0.441600
     10 S10         2.9300   -4.5430   -5.2850 s6        1 SDC      1.410900
     11 O11         1.8250   -5.3500   -5.1190 o         1 SDC     -0.564300
     12 N12         2.2230   -3.0950   -6.2190 n4        1 SDC     -0.818500
     13 O13         3.9830   -4.9280   -6.0860 o         1 SDC     -0.564300
     14 H03         4.5340   -0.3250   -2.4550 hx        1 SDC      0.131700
     15 H061        2.3990   -2.3520   -1.4640 h1        1 SDC      0.098700
     16 H062        3.5760   -1.5990   -0.3090 h1        1 SDC      0.098700
     17 H081        3.2930   -4.9520   -2.1650 h1        1 SDC      0.106200
     18 H082        4.9070   -4.9420   -3.0020 h1        1 SDC      0.106200
     19 H091        2.4400   -3.1710   -3.5130 h1        1 SDC      0.186200
     20 H092        4.0910   -2.8540   -4.2290 h1        1 SDC      0.186200
     21 H121        1.2280   -3.2240   -6.4020 hn        1 SDC      0.480133
     22 H122        2.6930   -2.9720   -7.1150 hn        1 SDC      0.480133
     23 HP22        1.7260    0.3270   -1.7020 hn        1 SDC      0.460133
     24 HP21        2.9440    1.3710   -2.1690 hn        1 SDC      0.460133
     25 H123        2.3190   -2.1910   -5.7100 hn        1 SDC      0.480133
     26 HP23        3.0120    0.6360   -0.6680 hn        1 SDC      0.460133
@<TRIPOS>BOND
     1    1    4 1   
     2    2    3 1   
     3    2   23 1   
     4    2   24 1   
     5    2   26 1   
     6    3    4 1   
     7    3    6 1   
     8    3   14 1   
     9    4    5 1   
    10    6    7 1   
    11    6   15 1   
    12    6   16 1   
    13    7    8 1   
    14    8    9 1   
    15    8   17 1   
    16    8   18 1   
    17    9   10 1   
    18    9   19 1   
    19    9   20 1   
    20   10   11 2   
    21   10   12 1   
    22   10   13 2   
    23   12   21 1   
    24   12   22 1   
    25   12   25 1   
@<TRIPOS>SUBSTRUCTURE
     1 SDC         1 TEMP              0 ****  ****    0 ROOT
