@<TRIPOS>MOLECULE
SDC
   26    25     1     0     0
SMALL
bcc


@<TRIPOS>ATOM
      1 O01         2.0160   -2.2500   -3.6130 o         1 SDC     -0.802300
      2 NP2         2.2870    0.3490   -1.2310 nz        1 SDC     -0.828600
      3 C03         3.0100   -0.6650   -2.0670 c3        1 SDC     -0.021500
      4 C04         2.0780   -1.0330   -3.2760 c         1 SDC      0.917600
      5 O05         1.4800   -0.0890   -3.8370 o         1 SDC     -0.802300
      6 C06         3.4490   -1.8910   -1.2860 c3        1 SDC     -0.049300
      7 S07         4.8820   -2.6270   -2.0040 ss        1 SDC     -0.187200
      8 C08         4.2890   -3.8650   -3.1090 c3        1 SDC      0.001700
      9 C09         4.3370   -3.4330   -4.5590 c3        1 SDC     -0.349600
     10 S10         3.4500   -4.4180   -5.5830 s6        1 SDC      1.375900
     11 O11         2.8500   -5.5030   -4.9700 o         1 SDC     -0.566800
     12 N12         2.0030   -3.3850   -6.0610 nz        1 SDC     -0.815500
     13 O13         4.0810   -4.5580   -6.8110 o         1 SDC     -0.566800
     14 H03         3.9160   -0.1440   -2.4990 hx        1 SDC      0.117700
     15 H061        2.6040   -2.6240   -1.2290 h1        1 SDC      0.100700
     16 H062        3.7650   -1.6290   -0.2430 h1        1 SDC      0.100700
     17 H081        3.2420   -4.1620   -2.8330 h1        1 SDC      0.110700
     18 H082        4.9600   -4.7510   -2.9490 h1        1 SDC      0.110700
     19 H091        4.0360   -2.3420   -4.5830 h1        1 SDC      0.166700
     20 H092        5.4220   -3.4100   -4.8860 h1        1 SDC      0.166700
     21 H121        1.1350   -3.9000   -5.8970 hn        1 SDC      0.480133
     22 H122        2.0290   -3.1220   -7.0450 hn        1 SDC      0.480133
     23 HP22        1.6040   -0.1170   -0.6300 hn        1 SDC      0.459800
     24 HP21        2.9390    0.8810   -0.6550 hn        1 SDC      0.459800
     25 H123        1.9120   -2.5140   -5.4980 hn        1 SDC      0.480133
     26 HP23        1.7860    0.9800   -1.8820 hn        1 SDC      0.459800
@<TRIPOS>BOND
     1    1    4 1   
     2    2    3 1   
     3    2   23 1   
     4    2   24 1   
     5    2   26 1   
     6    3    4 1   
     7    3    6 1   
     8    3   14 1   
     9    4    5 1   
    10    6    7 1   
    11    6   15 1   
    12    6   16 1   
    13    7    8 1   
    14    8    9 1   
    15    8   17 1   
    16    8   18 1   
    17    9   10 1   
    18    9   19 1   
    19    9   20 1   
    20   10   11 2   
    21   10   12 1   
    22   10   13 2   
    23   12   21 1   
    24   12   22 1   
    25   12   25 1   
@<TRIPOS>SUBSTRUCTURE
     1 SDC         1 TEMP              0 ****  ****    0 ROOT
