@<TRIPOS>MOLECULE
SDC
   24    23     1     0     0
SMALL
bcc


@<TRIPOS>ATOM
      1 O01         0.6390    0.5480   -1.4990 o         1 SDC     -0.852300
      2 NP2         3.5560   -1.0120    0.1100 n3        1 SDC     -0.881800
      3 C03         2.1460   -0.6670   -0.0320 c3        1 SDC      0.023500
      4 C04         1.8100    0.0740   -1.3670 c         1 SDC      0.892600
      5 O05         2.6950    0.1460   -2.2600 o         1 SDC     -0.852300
      6 C06         1.6090    0.1360    1.1510 c3        1 SDC      0.028700
      7 S07         0.5090   -0.7910    2.2050 ss        1 SDC     -0.366200
      8 C08        -1.1050   -0.2940    1.6710 c3        1 SDC      0.047700
      9 C09        -1.4550   -0.7760    0.2940 c3        1 SDC     -0.349600
     10 S10        -2.7540    0.0640   -0.4550 s6        1 SDC      1.464900
     11 O11        -3.0230    1.2530    0.2630 o         1 SDC     -0.691300
     12 N12        -2.2450    0.3550   -1.9300 n3        1 SDC     -1.031700
     13 O13        -3.8670   -0.8250   -0.5260 o         1 SDC     -0.691300
     14 H03         1.5860   -1.6490   -0.0780 h1        1 SDC      0.062700
     15 H061        2.4260    0.4780    1.8310 h1        1 SDC      0.075200
     16 H062        1.0650    1.0350    0.7650 h1        1 SDC      0.075200
     17 H081       -1.8000   -0.7230    2.4350 h1        1 SDC      0.073700
     18 H082       -1.1840    0.8230    1.7140 h1        1 SDC      0.073700
     19 H091       -0.5030   -0.6990   -0.3290 h1        1 SDC      0.147200
     20 H092       -1.6850   -1.8740    0.3340 h1        1 SDC      0.147200
     21 H121       -2.7230    0.0450   -2.7360 hn        1 SDC      0.468800
     22 H122       -1.3420    0.7340   -2.1390 hn        1 SDC      0.468800
     23 HP21        3.8480   -1.4360   -0.7550 hn        1 SDC      0.334300
     24 HP22        4.0860   -0.1630    0.2030 hn        1 SDC      0.334300
@<TRIPOS>BOND
     1    1    4 1   
     2    2    3 1   
     3    2   23 1   
     4    2   24 1   
     5    3    4 1   
     6    3    6 1   
     7    3   14 1   
     8    4    5 1   
     9    6    7 1   
    10    6   15 1   
    11    6   16 1   
    12    7    8 1   
    13    8    9 1   
    14    8   17 1   
    15    8   18 1   
    16    9   10 1   
    17    9   19 1   
    18    9   20 1   
    19   10   11 2   
    20   10   12 1   
    21   10   13 2   
    22   12   21 1   
    23   12   22 1   
@<TRIPOS>SUBSTRUCTURE
     1 SDC         1 TEMP              0 ****  ****    0 ROOT
