@<TRIPOS>MOLECULE
SDC
   26    25     1     0     0
SMALL
bcc


@<TRIPOS>ATOM
      1 O01         3.1700   -0.9030   -4.5660 o         1 SDC     -0.802800
      2 NP2         2.2510    0.2810   -1.4680 n4        1 SDC     -0.830600
      3 C03         3.2540   -0.5950   -2.1640 c3        1 SDC      0.005500
      4 C04         2.5920   -1.1200   -3.4700 c         1 SDC      0.889600
      5 O05         1.5120   -1.7680   -3.3530 o         1 SDC     -0.802800
      6 C06         3.6610   -1.7770   -1.2910 c3        1 SDC     -0.067300
      7 S07         4.8610   -2.8200   -2.0420 ss        1 SDC     -0.156200
      8 C08         3.9190   -3.9220   -3.0500 c3        1 SDC     -0.020300
      9 C09         4.2530   -3.7520   -4.5130 c3        1 SDC     -0.385600
     10 S10         3.1500   -4.4460   -5.5620 s6        1 SDC      1.381900
     11 O11         2.3820   -5.4380   -4.9740 o         1 SDC     -0.568300
     12 N12         1.9560   -3.0870   -5.7820 n4        1 SDC     -0.831500
     13 O13         3.6680   -4.6120   -6.8350 o         1 SDC     -0.568300
     14 H03         4.1530    0.0380   -2.4220 hx        1 SDC      0.131700
     15 H061        4.1590   -1.4200   -0.3510 h1        1 SDC      0.100200
     16 H062        2.7520   -2.3690   -1.0100 h1        1 SDC      0.100200
     17 H081        2.8210   -3.7700   -2.8780 h1        1 SDC      0.105700
     18 H082        4.1750   -4.9620   -2.7170 h1        1 SDC      0.105700
     19 H091        4.4400   -2.6440   -4.7000 h1        1 SDC      0.184700
     20 H092        5.2820   -4.1950   -4.6910 h1        1 SDC      0.184700
     21 H121        1.3570   -3.2290   -6.5930 hn        1 SDC      0.486800
     22 H122        1.3430   -2.9710   -4.9540 hn        1 SDC      0.486800
     23 HP22        2.5450    0.4810   -0.5110 hn        1 SDC      0.460133
     24 HP21        2.1440    1.1550   -1.9880 hn        1 SDC      0.460133
     25 H123        2.4140   -2.1640   -5.8930 hn        1 SDC      0.486800
     26 HP23        1.3470   -0.2140   -1.4570 hn        1 SDC      0.460133
@<TRIPOS>BOND
     1    1    4 1   
     2    2    3 1   
     3    2   23 1   
     4    2   24 1   
     5    2   26 1   
     6    3    4 1   
     7    3    6 1   
     8    3   14 1   
     9    4    5 1   
    10    6    7 1   
    11    6   15 1   
    12    6   16 1   
    13    7    8 1   
    14    8    9 1   
    15    8   17 1   
    16    8   18 1   
    17    9   10 1   
    18    9   19 1   
    19    9   20 1   
    20   10   11 2   
    21   10   12 1   
    22   10   13 2   
    23   12   21 1   
    24   12   22 1   
    25   12   25 1   
@<TRIPOS>SUBSTRUCTURE
     1 SDC         1 TEMP              0 ****  ****    0 ROOT
