@<TRIPOS>MOLECULE
SDD
   24    23     1     0     0
SMALL
bcc


@<TRIPOS>ATOM
      1 C1         -2.8640    0.9500   -0.6110 c3        1 SDD      0.037400
      2 O1         -4.1790    0.8220   -0.1190 oh        1 SDD     -0.586800
      3 C2         -1.9600   -0.1750   -0.1820 c         1 SDD      0.519100
      4 O2         -2.2640   -0.9520    0.7270 o         1 SDD     -0.523100
      5 C3         -0.6280   -0.2860   -0.9060 c3        1 SDD      0.023100
      6 O3         -0.2110   -1.6310   -0.9780 oh        1 SDD     -0.579800
      7 C4          0.4150    0.6290   -0.2230 c3        1 SDD      0.117100
      8 O4          0.0120    0.9900    1.0830 oh        1 SDD     -0.600800
      9 C5          1.8020   -0.0340   -0.2110 c3        1 SDD      0.116100
     10 O5          1.7510   -1.0420    0.7890 oh        1 SDD     -0.620800
     11 C6          2.8780    1.0040    0.1230 c3        1 SDD      0.093400
     12 O6          4.0910    0.2810    0.2640 oh        1 SDD     -0.612800
     13 H1         -2.9690    0.9750   -1.7290 h1        1 SDD      0.073700
     14 H2         -2.4100    1.9160   -0.2490 h1        1 SDD      0.073700
     15 H3         -4.1250    0.4710    0.7820 ho        1 SDD      0.421000
     16 H4         -0.7480    0.0220   -1.9840 h1        1 SDD      0.092700
     17 H5         -0.1000   -1.9530   -0.0700 ho        1 SDD      0.433000
     18 H6          0.4690    1.6070   -0.7790 h1        1 SDD      0.082700
     19 H7          0.0680    0.1970    1.6370 ho        1 SDD      0.431000
     20 H8          2.0150   -0.5090   -1.2080 h1        1 SDD      0.073700
     21 H9          2.6490   -1.3860    0.8870 ho        1 SDD      0.437000
     22 H10         2.9710    1.7510   -0.7080 h1        1 SDD      0.043200
     23 H11         2.6160    1.5290    1.0800 h1        1 SDD      0.043200
     24 H12         4.7420    0.8940    0.6250 ho        1 SDD      0.413000
@<TRIPOS>BOND
     1    1    2 1   
     2    1    3 1   
     3    1   13 1   
     4    1   14 1   
     5    2   15 1   
     6    3    4 2   
     7    3    5 1   
     8    5    6 1   
     9    5    7 1   
    10    5   16 1   
    11    6   17 1   
    12    7    8 1   
    13    7    9 1   
    14    7   18 1   
    15    8   19 1   
    16    9   10 1   
    17    9   11 1   
    18    9   20 1   
    19   10   21 1   
    20   11   12 1   
    21   11   22 1   
    22   11   23 1   
    23   12   24 1   
@<TRIPOS>SUBSTRUCTURE
     1 SDD         1 TEMP              0 ****  ****    0 ROOT
