@<TRIPOS>MOLECULE
SDD
   24    23     1     0     0
SMALL
bcc


@<TRIPOS>ATOM
      1 C1          2.4170    0.4780   -2.0460 c3        1 SDD      0.040400
      2 O1          3.8270    0.4780   -2.0460 oh        1 SDD     -0.587800
      3 C2          1.9130    0.4780   -0.6200 c         1 SDD      0.547100
      4 O2          2.6760    0.2390    0.2940 o         1 SDD     -0.530100
      5 C3          0.4590    0.7780   -0.3320 c3        1 SDD      0.020100
      6 O3          0.3440    2.0770    0.1990 oh        1 SDD     -0.601800
      7 C4         -0.0740   -0.2230    0.6670 c3        1 SDD      0.116100
      8 O4          0.4160    0.0880    1.9500 oh        1 SDD     -0.587800
      9 C5         -1.5850   -0.1680    0.6780 c3        1 SDD      0.109100
     10 O5         -2.0140    0.7460    1.6580 oh        1 SDD     -0.630800
     11 C6         -2.1360   -1.5400    0.9930 c3        1 SDD      0.095400
     12 O6         -3.5460   -1.4930    0.9870 oh        1 SDD     -0.616800
     13 H1          2.0910   -0.3190   -2.5060 h1        1 SDD      0.088200
     14 H2          2.0910    1.2750   -2.5070 h1        1 SDD      0.088200
     15 H3          4.1230    0.5170   -2.8820 ho        1 SDD      0.414000
     16 H4         -0.0560    0.7180   -1.1590 h1        1 SDD      0.071700
     17 H5          0.2190    2.6570   -0.4620 ho        1 SDD      0.435000
     18 H6          0.2170   -1.1200    0.4160 h1        1 SDD      0.097700
     19 H7          0.7890   -0.6340    2.3070 ho        1 SDD      0.425000
     20 H8         -1.9060    0.1190   -0.1980 h1        1 SDD      0.057700
     21 H9         -2.7440    1.1640    1.3740 ho        1 SDD      0.438000
     22 H10        -1.8240   -1.8220    1.8740 h1        1 SDD      0.049200
     23 H11        -1.8290   -2.1770    0.3190 h1        1 SDD      0.049200
     24 H12        -3.8700   -2.3180    1.0450 ho        1 SDD      0.415000
@<TRIPOS>BOND
     1    1    2 1   
     2    1    3 1   
     3    1   13 1   
     4    1   14 1   
     5    2   15 1   
     6    3    4 2   
     7    3    5 1   
     8    5    6 1   
     9    5    7 1   
    10    5   16 1   
    11    6   17 1   
    12    7    8 1   
    13    7    9 1   
    14    7   18 1   
    15    8   19 1   
    16    9   10 1   
    17    9   11 1   
    18    9   20 1   
    19   10   21 1   
    20   11   12 1   
    21   11   22 1   
    22   11   23 1   
    23   12   24 1   
@<TRIPOS>SUBSTRUCTURE
     1 SDD         1 TEMP              0 ****  ****    0 ROOT
