@<TRIPOS>MOLECULE
SDF
   19    18     1     0     0
SMALL
bcc


@<TRIPOS>ATOM
      1 C1        341.1990 -336.6260  292.8710 c2        1 SDF     -0.084000
      2 P1      -1279.9340    0.5200-1097.0120 p2        1 SDF      2.361000
      3 S1        343.5160 -335.3770  293.4420 sh        1 SDF      0.098000
      4 CL1       342.1510 -336.9400  290.3890 cl        1 SDF     -0.155000
      5 C2        341.9070 -337.6360  292.0230 c3        1 SDF     -0.002000
      6 CL2       339.2880 -340.7070  292.1800 cl        1 SDF     -0.130000
      7 C3        341.2630 -338.9550  291.8540 c1        1 SDF     -0.209000
      8 C4        339.9780 -339.1200  292.3160 c2        1 SDF     -0.234000
      9 C5        339.1630 -338.1250  292.8230 c1        1 SDF     -0.203000
     10 C6        339.7130 -336.7740  292.9850 c3        1 SDF     -0.130000
     11 C7        341.8460 -335.6660  293.5520 c2        1 SDF     -0.370000
     12 O13     -1278.8470    0.5040-1097.1630 os        1 SDF     -1.120000
     13 H3        342.9500 -337.7930  292.4180 h1        1 SDF      0.122000
     14 H5        339.2300 -336.1330  292.1920 hc        1 SDF      0.098000
     15 H6        339.3720 -336.3780  293.9820 hc        1 SDF      0.098000
     16 H61       343.7000 -334.8420  294.6350 hs        1 SDF     -0.014000
     17 H7        341.2810 -334.9870  294.2050 h4        1 SDF      0.116000
     18 O11     -1279.7150    0.1150-1097.3980 o         1 SDF     -1.120000
     19 O12     -1281.2400    0.9420-1096.4740 o         1 SDF     -1.120000
@<TRIPOS>BOND
     1    1    5 1   
     2    1   10 1   
     3    1   11 1   
     4    2   12 1   
     5    2   19 1   
     6    3   11 1   
     7    3   16 1   
     8    4    5 1   
     9    5    7 1   
    10    5   13 1   
    11    6    8 1   
    12    7    8 1   
    13    8    9 1   
    14    9   10 1   
    15   10   14 1   
    16   10   15 1   
    17   11   17 1   
    18   12   18 1   
@<TRIPOS>SUBSTRUCTURE
     1 SDF         1 TEMP              0 ****  ****    0 ROOT
