@<TRIPOS>MOLECULE
SDF
   19    18     1     0     0
SMALL
bcc


@<TRIPOS>ATOM
      1 C1        354.8520  133.3900  261.4320 ca        1 SDF      0.145000
      2 P1      -1332.0550 -497.5400 -978.4290 p3        1 SDF      2.361000
      3 S1        354.5830  135.5570  263.0490 sh        1 SDF      0.043000
      4 CL1       352.6310  132.1050  260.4720 cl        1 SDF     -0.103000
      5 C2        354.3300  132.3110  260.6460 ca        1 SDF     -0.185000
      6 CL2       357.5460  130.3800  259.3030 cl        1 SDF     -0.113000
      7 C3        355.1450  131.3940  259.9990 ca        1 SDF     -0.056000
      8 C4        356.5310  131.5060  260.1050 ca        1 SDF     -0.221000
      9 C5        357.0960  132.5390  260.8700 ca        1 SDF     -0.069000
     10 C6        356.2850  133.4450  261.5100 ca        1 SDF     -0.245000
     11 C7        354.0540  134.3220  262.0580 c2        1 SDF     -0.595000
     12 O13     -1330.6810 -497.0610 -978.2000 o         1 SDF     -1.120000
     13 H3        354.7030  130.5810  259.4040 ha        1 SDF      0.116000
     14 H5        358.1900  132.6170  260.9550 ha        1 SDF      0.104000
     15 H6        356.7190  134.2490  262.1210 ha        1 SDF      0.127000
     16 H61       354.9290  136.4810  262.1620 hs        1 SDF     -0.063000
     17 H7        352.9680  134.2530  261.9450 h4        1 SDF      0.115000
     18 O11     -1332.3320 -498.4900 -979.5220 o         1 SDF     -1.120000
     19 O12     -1333.1530 -497.0710 -977.5660 o         1 SDF     -1.120000
@<TRIPOS>BOND
     1    1    5 1   
     2    1   10 1   
     3    1   11 1   
     4    2   12 1   
     5    2   18 1   
     6    2   19 1   
     7    3   11 1   
     8    3   16 1   
     9    4    5 1   
    10    5    7 1   
    11    6    8 1   
    12    7    8 1   
    13    7   13 1   
    14    8    9 1   
    15    9   10 1   
    16    9   14 1   
    17   10   15 1   
    18   11   17 1   
@<TRIPOS>SUBSTRUCTURE
     1 SDF         1 TEMP              0 ****  ****    0 ROOT
