@<TRIPOS>MOLECULE
SDG
   35    31     1     0     0
SMALL
bcc


@<TRIPOS>ATOM
      1 O3P        -0.9240    1.7010    5.7660 o         1 SDG     -0.914833
      2 C2         -0.9890    1.3330   -3.1280 c1        1 SDG      0.211000
      3 P          -1.2490    1.0430    4.3890 p5        1 SDG      1.574500
      4 O1P        -2.2420    1.9420    3.6110 o         1 SDG     -0.914833
      5 O2P        -1.8830   -0.3510    4.6180 o         1 SDG     -0.914833
      6 O5'         0.0940    0.8790    3.5490 os        1 SDG     -0.734000
      7 N9          0.3380   -1.0720   -0.6820 n2        1 SDG     -0.206000
      8 C4         -0.2500   -0.4170   -1.7230 c1        1 SDG      0.019000
      9 N3         -0.1670    0.8850   -2.1470 n1        1 SDG     -0.147000
     10 N2         -1.1890    2.4800   -3.8940 n3        1 SDG     -0.299000
     11 N1         -1.9110    0.4820   -3.7010 n1        1 SDG     -0.319000
     12 C6         -1.9950   -0.7900   -3.2890 c1        1 SDG     -0.003000
     13 SE         -3.4400   -1.4900   -4.4470 sh        1 SDG      0.099000
     14 C5         -1.1520   -1.2530   -2.2840 c1        1 SDG     -0.274000
     15 N7         -1.1250   -2.4160   -1.5990 n1        1 SDG     -0.147000
     16 C8         -0.2000   -2.3010   -0.6070 c1        1 SDG      0.019000
     17 C2'         2.5300   -0.3090    0.1990 c3        1 SDG     -0.180000
     18 C5'         0.0360    0.2130    2.3180 c3        1 SDG      0.074000
     19 C4'         1.2460   -0.3980    2.0730 c3        1 SDG     -0.032000
     20 O4'         1.0370   -1.7280    1.3220 os        1 SDG     -0.307000
     21 C1'         1.4340   -1.4880    0.1020 c2        1 SDG      0.167000
     22 C3'         2.1170    0.4950    1.1160 c3        1 SDG      0.027000
     23 O3'         3.2560    1.0630    1.8410 oh        1 SDG     -0.398000
     24 HN2        -0.6260    3.2690   -3.7510 hn        1 SDG      0.268000
     25 HN2A       -1.8770    2.5150   -4.4840 hn        1 SDG      0.268000
     26 H8          0.0760   -2.9800   -0.0440 DU        1 SDG      0.169000
     27 H2'         2.5950    0.1640   -0.6630 hc        1 SDG      0.090500
     28 H2'A        3.4190   -0.6890    0.4500 hc        1 SDG      0.090500
     29 H5'        -0.6680   -0.4580    2.3430 h1        1 SDG      0.046000
     30 H5'A       -0.1530    0.8590    1.6060 h1        1 SDG      0.046000
     31 H4'         1.6860   -0.5460    2.8560 h1        1 SDG      0.068000
     32 H1'         1.8550   -2.3190   -0.3000 h4        1 SDG      0.069000
     33 H3'         1.5800    1.1970    0.7310 h1        1 SDG      0.189000
     34 HO3'        3.3410    1.9530    1.6270 ho        1 SDG      0.279000
     35 HSE        -4.6000   -1.4690   -3.7730 hs        1 SDG      0.017000
@<TRIPOS>BOND
     1    1    3 1   
     2    2   10 1   
     3    2   11 1   
     4    3    4 1   
     5    3    5 1   
     6    3    6 1   
     7    6   18 1   
     8    7    8 1   
     9    7   16 1   
    10    8    9 1   
    11   10   24 1   
    12   10   25 1   
    13   12   13 1   
    14   12   14 1   
    15   13   35 1   
    16   15   16 1   
    17   17   21 1   
    18   17   22 1   
    19   17   27 1   
    20   17   28 1   
    21   18   19 1   
    22   18   29 1   
    23   18   30 1   
    24   19   20 1   
    25   19   22 1   
    26   19   31 1   
    27   20   21 1   
    28   21   32 1   
    29   22   23 1   
    30   22   33 1   
    31   23   34 1   
@<TRIPOS>SUBSTRUCTURE
     1 SDG         1 TEMP              0 ****  ****    0 ROOT
