@<TRIPOS>MOLECULE
SDG
   35    37     1     0     0
SMALL
bcc


@<TRIPOS>ATOM
      1 O3P        -6.7510    0.9480    0.6900 o         1 SDG     -0.929500
      2 C2          3.9940   -1.8460   -0.5910 ca        1 SDG      0.830900
      3 P          -5.3160    0.7110    1.0420 p5        1 SDG      1.330900
      4 O1P        -4.5210    1.8470    1.6200 o         1 SDG     -0.929500
      5 O2P        -4.9600   -0.6440    1.6230 o         1 SDG     -0.929500
      6 O5'        -4.5350    0.5120   -0.5110 os        1 SDG     -0.552200
      7 N9          0.4950   -0.8620   -0.1650 na        1 SDG     -0.267000
      8 C4          1.8820   -1.0180   -0.2580 ca        1 SDG      0.460800
      9 N3          2.6350   -2.0790   -0.6500 nb        1 SDG     -0.738000
     10 N1          4.6250   -0.6610   -0.2200 nb        1 SDG     -0.761000
     11 C6          3.8530    0.3740    0.1650 ca        1 SDG      0.616600
     12 SE          4.6520    1.8240    0.6290 sh        1 SDG     -0.374100
     13 C5          2.4510    0.2700    0.1740 ca        1 SDG     -0.200200
     14 N7          1.4110    1.1550    0.4970 nc        1 SDG     -0.600100
     15 C8          0.2790    0.4620    0.2800 cd        1 SDG      0.479700
     16 C2'        -1.2110   -2.5350    0.6330 c3        1 SDG     -0.130400
     17 C5'        -3.1800    0.3670   -0.4220 c3        1 SDG      0.227400
     18 C4'        -2.7750   -1.1170   -0.6030 c3        1 SDG      0.051100
     19 O4'        -1.5200   -1.1990   -1.3320 os        1 SDG     -0.434600
     20 C1'        -0.5220   -1.8410   -0.5600 c3        1 SDG      0.253800
     21 C3'        -2.5980   -1.8810    0.7250 c3        1 SDG      0.156100
     22 O3'        -3.5660   -2.8950    0.8650 oh        1 SDG     -0.670800
     23 HN2         5.7410   -2.6730   -1.2250 hn        1 SDG      0.390800
     24 HN2A        4.4110   -3.6410   -1.4560 hn        1 SDG      0.390800
     25 H8         -0.7550    0.8440    0.4130 h5        1 SDG      0.131800
     26 H2'        -1.3100   -3.6260    0.4070 hc        1 SDG      0.054700
     27 H2'A       -0.6490   -2.4240    1.5880 hc        1 SDG      0.054700
     28 H5'        -2.6770    0.9450   -1.2540 h1        1 SDG     -0.004800
     29 H5'A       -2.7980    0.7490    0.5690 h1        1 SDG     -0.004800
     30 H4'        -3.5280   -1.6320   -1.2570 h1        1 SDG      0.081700
     31 H1'        -0.0050   -2.5760   -1.2440 h2        1 SDG      0.071700
     32 H3'        -2.6630   -1.1770    1.6010 h1        1 SDG      0.104700
     33 HO3'       -4.3860   -2.4270    1.1490 ho        1 SDG      0.501000
     34 HSE         3.5860    2.5640    0.9180 hs        1 SDG      0.237800
     35 N2          4.8460   -2.9490   -0.8830 nh        1 SDG     -0.900500
@<TRIPOS>BOND
     1    1    3 1   
     2    2    9 ar  
     3    2   10 ar  
     4    2   35 1   
     5    3    4 1   
     6    3    5 1   
     7    3    6 1   
     8    6   17 1   
     9    7    8 1   
    10    7   15 1   
    11    7   20 1   
    12    8    9 ar  
    13    8   13 ar  
    14   10   11 ar  
    15   11   12 1   
    16   11   13 ar  
    17   12   34 1   
    18   13   14 1   
    19   14   15 2   
    20   15   25 1   
    21   16   20 1   
    22   16   21 1   
    23   16   26 1   
    24   16   27 1   
    25   17   18 1   
    26   17   28 1   
    27   17   29 1   
    28   18   19 1   
    29   18   21 1   
    30   18   30 1   
    31   19   20 1   
    32   20   31 1   
    33   21   22 1   
    34   21   32 1   
    35   22   33 1   
    36   23   35 1   
    37   24   35 1   
@<TRIPOS>SUBSTRUCTURE
     1 SDG         1 TEMP              0 ****  ****    0 ROOT
