@<TRIPOS>MOLECULE
SDK
   88    87     1     0     0
SMALL
bcc


@<TRIPOS>ATOM
      1 C1       -183.7260 -182.2710 -220.7980 ca        1 SDK      0.092000
      2 C2       -182.9990 -182.8250 -221.8670 ca        1 SDK     -0.183000
      3 C3       -183.6490 -183.5170 -222.8660 ca        1 SDK      0.039000
      4 C4       -185.0790 -183.6810 -222.8270 ca        1 SDK     -0.195000
      5 C5       -185.7970 -183.1040 -221.7210 ca        1 SDK      0.039000
      6 C6       -185.1240 -182.4160 -220.7340 ca        1 SDK     -0.183000
      7 C7       -185.7370 -184.3670 -223.8130 c2        1 SDK      0.126000
      8 O8         46.1590   36.9250   50.9720 o         1 SDK     -0.225000
      9 C9         45.5440   37.6990   51.6110 c1        1 SDK      0.455000
     10 O10        44.9090   38.4860   52.2650 o         1 SDK     -0.225000
     11 C11        45.9390   42.5140   54.7820 c3        1 SDK      0.000000
     12 C12        46.3650   43.4590   53.6420 c3        1 SDK     -0.184000
     13 C13        47.6390   44.2220   53.9920 c3        1 SDK     -0.105000
     14 C14        48.1760   44.8850   52.7380 c3        1 SDK     -0.220500
     15 C15        47.3910   45.2610   55.0660 c3        1 SDK     -0.220500
     16 C16        44.4810   42.0970   54.4580 c2        1 SDK      0.254000
     17 O17        43.4910   42.8080   54.4680 o         1 SDK     -0.214000
     18 N18        44.2290   40.6380   54.0790 n4        1 SDK     -0.100000
     19 C19        42.8610   40.3530   53.5760 c3        1 SDK     -0.172000
     20 N20        46.7740   41.3730   55.0050 n3        1 SDK     -0.404000
     21 C21        41.8290   40.1460   54.6620 c2        1 SDK      0.212000
     22 O22        42.1030   39.9490   55.8440 o         1 SDK     -0.232000
     23 C23        31.0070   45.1120   56.5710 ca        1 SDK     -0.033000
     24 C24        31.8680   44.8740   57.6470 ca        1 SDK     -0.131000
     25 C25        33.1640   44.4270   57.4180 ca        1 SDK     -0.063500
     26 C26        33.6180   44.2250   56.1000 ca        1 SDK     -0.189000
     27 C27        32.7420   44.4550   55.0220 ca        1 SDK     -0.063500
     28 C28        31.4470   44.9010   55.2600 ca        1 SDK     -0.131000
     29 C29        35.0000   43.8330   55.8520 c3        1 SDK      0.107000
     30 O30        34.9180   42.2840   55.8280 os        1 SDK     -0.228000
     31 C31        36.0180   41.6030   55.6770 c2        1 SDK      0.381000
     32 O32        37.1900   41.9700   55.5610 o         1 SDK     -0.372000
     33 C33        37.0040   39.3180   55.9260 c3        1 SDK     -0.065000
     34 C34        36.7450   37.8030   55.9840 c3        1 SDK     -0.199000
     35 C35        38.0120   37.0270   56.3260 c3        1 SDK     -0.101000
     36 C36        37.7120   35.5410   56.2340 c3        1 SDK     -0.228500
     37 C37        38.5410   37.3670   57.7030 c3        1 SDK     -0.228500
     38 C38        38.0330   39.5960   54.8170 c2        1 SDK      0.249000
     39 O39        37.8300   39.4580   53.6230 o         1 SDK     -0.128000
     40 N40        39.3870   40.0730   55.2690 n4        1 SDK     -0.091000
     41 C41        40.3910   40.1630   54.1640 c3        1 SDK     -0.187000
     42 N42        35.7510   40.0960   55.6510 n4        1 SDK     -0.106000
     43 H1       -183.1950 -181.7170 -220.0010 ha        1 SDK      0.188000
     44 H2       -181.9010 -182.7000 -221.8990 ha        1 SDK      0.191000
     45 H3       -183.0850 -183.9540 -223.7090 ha        1 SDK      0.177000
     46 H5       -186.8950 -183.2220 -221.6770 ha        1 SDK      0.177000
     47 H6       -185.6770 -181.9740 -219.8860 ha        1 SDK      0.191000
     48 H71      -185.2010 -184.8160 -224.6690 ha        1 SDK      0.170000
     49 H72      -186.8330 -184.5020 -223.7990 ha        1 SDK      0.170000
     50 H11        45.8130   43.1320   55.7310 h1        1 SDK      0.169000
     51 H121       45.5400   44.1960   53.4540 hc        1 SDK      0.109500
     52 H122       46.5310   42.8710   52.7020 hc        1 SDK      0.109500
     53 H13        48.4160   43.4960   54.3650 hc        1 SDK      0.092000
     54 H141       49.1160   45.4420   52.9780 hc        1 SDK      0.093167
     55 H142       48.4090   44.1240   51.9550 hc        1 SDK      0.093167
     56 H143       47.4340   45.6110   52.3260 hc        1 SDK      0.093167
     57 H151       46.6020   45.9830   54.7450 hc        1 SDK      0.093167
     58 H152       47.0750   44.7850   56.0250 hc        1 SDK      0.093167
     59 H153       48.3310   45.8360   55.2580 hc        1 SDK      0.093167
     60 HN8        44.9100   40.3700   53.3460 hn        1 SDK      0.288000
     61 H191       42.5420   41.2120   52.9110 hx        1 SDK      0.192500
     62 H192       42.9100   39.4090   52.9440 hx        1 SDK      0.192500
     63 HN2        47.1270   41.3300   55.9410 hn        1 SDK      0.210500
     64 H25        33.8430   44.2520   58.2680 ha        1 SDK      0.140000
     65 H27        33.0890   44.2990   53.9880 ha        1 SDK      0.140000
     66 H28        30.7660   45.0960   54.4140 ha        1 SDK      0.172000
     67 H291       35.7170   44.0600   56.6780 h1        1 SDK      0.129500
     68 H292       35.3970   44.0990   54.8430 h1        1 SDK      0.129500
     69 H33        37.3860   39.6690   56.9370 hx        1 SDK      0.184000
     70 H341       36.3450   37.4430   54.9960 hc        1 SDK      0.150000
     71 H342       35.9700   37.5920   56.7730 hc        1 SDK      0.150000
     72 H35        38.7990   37.2750   55.5560 hc        1 SDK      0.049000
     73 H361       36.9400   35.2470   56.9870 hc        1 SDK      0.103667
     74 H362       37.3400   35.2740   55.2150 hc        1 SDK      0.103667
     75 H363       38.6410   34.9530   56.4380 hc        1 SDK      0.103667
     76 H371       37.7530   37.2170   58.4830 hc        1 SDK      0.103667
     77 H372       39.4000   36.6960   57.9590 hc        1 SDK      0.103667
     78 H373       38.8980   38.4250   57.7550 hc        1 SDK      0.103667
     79 HN4        39.7440   39.4360   56.0050 hn        1 SDK      0.291000
     80 H411       40.2400   39.2880   53.4580 hx        1 SDK      0.195000
     81 H412       40.1960   41.1150   53.5830 hx        1 SDK      0.195000
     82 HN         35.3600   39.8430   54.7300 hn        1 SDK      0.291500
     83 H23        29.9800   45.4720   56.7560 ha        1 SDK      0.176000
     84 H182       44.4280   40.0580   54.9080 hn        1 SDK      0.288000
     85 H202       47.5210   41.3010   54.3420 hn        1 SDK      0.210500
     86 H402       39.2590   41.0120   55.6900 hn        1 SDK      0.291000
     87 H422       35.0420   39.8650   56.3670 hn        1 SDK      0.291500
     88 H24        31.5180   45.0480   58.6780 ha        1 SDK      0.172000
@<TRIPOS>BOND
     1    1    2 1   
     2    1    6 1   
     3    1   43 1   
     4    2    3 1   
     5    2   44 1   
     6    3    4 1   
     7    3   45 1   
     8    4    5 1   
     9    4    7 1   
    10    5    6 1   
    11    5   46 1   
    12    6   47 1   
    13    7   48 1   
    14    7   49 1   
    15    8    9 1   
    16    9   10 1   
    17   11   12 1   
    18   11   16 1   
    19   11   20 1   
    20   11   50 1   
    21   12   13 1   
    22   12   51 1   
    23   12   52 1   
    24   13   14 1   
    25   13   15 1   
    26   13   53 1   
    27   14   54 1   
    28   14   55 1   
    29   14   56 1   
    30   15   57 1   
    31   15   58 1   
    32   15   59 1   
    33   16   17 1   
    34   16   18 1   
    35   18   19 1   
    36   18   60 1   
    37   18   84 1   
    38   19   21 1   
    39   19   61 1   
    40   19   62 1   
    41   20   63 1   
    42   20   85 1   
    43   21   22 1   
    44   21   41 1   
    45   23   24 1   
    46   23   28 1   
    47   23   83 1   
    48   24   25 1   
    49   24   88 1   
    50   25   26 1   
    51   25   64 1   
    52   26   27 1   
    53   26   29 1   
    54   27   28 1   
    55   27   65 1   
    56   28   66 1   
    57   29   30 1   
    58   29   67 1   
    59   29   68 1   
    60   30   31 1   
    61   31   32 1   
    62   31   42 1   
    63   33   34 1   
    64   33   38 1   
    65   33   42 1   
    66   33   69 1   
    67   34   35 1   
    68   34   70 1   
    69   34   71 1   
    70   35   36 1   
    71   35   37 1   
    72   35   72 1   
    73   36   73 1   
    74   36   74 1   
    75   36   75 1   
    76   37   76 1   
    77   37   77 1   
    78   37   78 1   
    79   38   39 1   
    80   38   40 1   
    81   40   41 1   
    82   40   79 1   
    83   40   86 1   
    84   41   80 1   
    85   41   81 1   
    86   42   82 1   
    87   42   87 1   
@<TRIPOS>SUBSTRUCTURE
     1 SDK         1 TEMP              0 ****  ****    0 ROOT
