@<TRIPOS>MOLECULE
SDK
   84    85     1     0     0
SMALL
bcc


@<TRIPOS>ATOM
      1 C1         -4.1340   -0.4890   11.2770 ca        1 SDK     -0.124000
      2 C2         -3.1250   -1.3080   10.7700 ca        1 SDK     -0.131500
      3 C3         -2.1860   -0.7910    9.8790 ca        1 SDK     -0.111000
      4 C4         -2.2560    0.5490    9.4870 ca        1 SDK     -0.097300
      5 C5         -3.2740    1.3680    9.9900 ca        1 SDK     -0.111000
      6 C6         -4.2060    0.8490   10.8860 ca        1 SDK     -0.131500
      7 C7         -1.2440    1.1430    8.5660 c3        1 SDK      0.196700
      8 O8         -0.8530    0.1150    7.6300 os        1 SDK     -0.434900
      9 C9          0.0850    0.5120    6.7010 c         1 SDK      0.728100
     10 O10         0.4690    1.6940    6.6960 o         1 SDK     -0.586000
     11 C11         1.2260   -0.2320    4.6810 c3        1 SDK      0.032700
     12 C12         2.3860   -1.2010    4.3930 c3        1 SDK     -0.078400
     13 C13         3.5500   -1.0450    5.3590 c3        1 SDK     -0.067700
     14 C14         4.4710   -2.2440    5.2380 c3        1 SDK     -0.094100
     15 C15         4.3230    0.2320    5.1000 c3        1 SDK     -0.094100
     16 C16         0.2720   -0.3250    3.4600 c         1 SDK      0.622100
     17 O17        -0.6700   -1.1410    3.4340 o         1 SDK     -0.607100
     18 N18         0.4950    0.5620    2.4230 n         1 SDK     -0.541900
     19 C19        -0.2130    0.4590    1.1810 c3        1 SDK     -0.019000
     20 N20         0.5400   -0.5390    5.9160 n         1 SDK     -0.500900
     21 C21         0.6170   -0.0090   -0.0030 c         1 SDK      0.518100
     22 O22         1.8500   -0.0270   -0.0040 o         1 SDK     -0.534100
     23 C23        -4.1380    0.6080  -11.2730 ca        1 SDK     -0.124000
     24 C24        -3.1060    1.3970  -10.7680 ca        1 SDK     -0.131500
     25 C25        -2.1800    0.8540   -9.8790 ca        1 SDK     -0.111000
     26 C26        -2.2870   -0.4840   -9.4870 ca        1 SDK     -0.097300
     27 C27        -3.3290   -1.2730   -9.9890 ca        1 SDK     -0.111000
     28 C28        -4.2480   -0.7280  -10.8830 ca        1 SDK     -0.131500
     29 C29        -1.2910   -1.1060   -8.5680 c3        1 SDK      0.196700
     30 O30        -0.8690   -0.0910   -7.6330 os        1 SDK     -0.434900
     31 C31         0.0580   -0.5140   -6.7050 c         1 SDK      0.728100
     32 O32         0.4080   -1.7060   -6.7010 o         1 SDK     -0.586000
     33 C33         1.2240    0.1970   -4.6870 c3        1 SDK      0.032700
     34 C34         2.4120    1.1320   -4.4010 c3        1 SDK     -0.078400
     35 C35         3.5690    0.9430   -5.3700 c3        1 SDK     -0.067700
     36 C36         4.5240    2.1140   -5.2500 c3        1 SDK     -0.094100
     37 C37         4.3050   -0.3560   -5.1120 c3        1 SDK     -0.094100
     38 C38         0.2750    0.3170   -3.4640 c         1 SDK      0.622100
     39 O39        -0.6430    1.1590   -3.4370 o         1 SDK     -0.607100
     40 N40         0.4740   -0.5760   -2.4280 n         1 SDK     -0.541900
     41 C41        -0.2280   -0.4520   -1.1840 c3        1 SDK     -0.019000
     42 N42         0.5440    0.5240   -5.9210 n         1 SDK     -0.500900
     43 H1         -4.8730   -0.8960   11.9820 ha        1 SDK      0.132000
     44 H2         -3.0690   -2.3630   11.0730 ha        1 SDK      0.133000
     45 H3         -1.3910   -1.4340    9.4720 ha        1 SDK      0.138500
     46 H5         -3.3370    2.4210    9.6790 ha        1 SDK      0.138500
     47 H6         -5.0020    1.4960   11.2830 ha        1 SDK      0.133000
     48 H71        -0.3310    1.4750    9.1300 h1        1 SDK      0.064700
     49 H72        -1.6590    2.0110    7.9890 h1        1 SDK      0.064700
     50 H11         1.6390    0.8200    4.7690 h1        1 SDK      0.106700
     51 H121        2.7450   -1.0050    3.3470 hc        1 SDK      0.057700
     52 H122        2.0080   -2.2570    4.4290 hc        1 SDK      0.057700
     53 H13         3.1510   -1.0130    6.4120 hc        1 SDK      0.065700
     54 H141        5.3340   -2.1380    5.9390 hc        1 SDK      0.036867
     55 H142        3.9250   -3.1850    5.4880 hc        1 SDK      0.036867
     56 H143        4.8690   -2.3290    4.1980 hc        1 SDK      0.036867
     57 H151        4.7040    0.2560    4.0510 hc        1 SDK      0.036867
     58 H152        3.6780    1.1280    5.2670 hc        1 SDK      0.036867
     59 H153        5.1960    0.2970    5.7930 hc        1 SDK      0.036867
     60 HN8         1.3620    1.0500    2.3950 hn        1 SDK      0.321500
     61 H191       -1.0910   -0.2410    1.3080 h1        1 SDK      0.095200
     62 H192       -0.6130    1.4820    0.9130 h1        1 SDK      0.095200
     63 HN2        -0.0250   -1.3640    5.9050 hn        1 SDK      0.331500
     64 H24        -3.0200    2.4510  -11.0710 ha        1 SDK      0.133000
     65 H25        -1.3660    1.4740   -9.4730 ha        1 SDK      0.138500
     66 H27        -3.4220   -2.3240   -9.6770 ha        1 SDK      0.138500
     67 H28        -5.0630   -1.3510  -11.2790 ha        1 SDK      0.133000
     68 H291       -0.3890   -1.4650   -9.1330 h1        1 SDK      0.064700
     69 H292       -1.7300   -1.9630   -7.9900 h1        1 SDK      0.064700
     70 H33         1.6060   -0.8670   -4.7750 h1        1 SDK      0.106700
     71 H341        2.0640    2.1990   -4.4360 hc        1 SDK      0.057700
     72 H342        2.7670    0.9260   -3.3560 hc        1 SDK      0.057700
     73 H35         3.1670    0.9220   -6.4220 hc        1 SDK      0.065700
     74 H361        5.3820    1.9840   -5.9520 hc        1 SDK      0.036867
     75 H362        4.0050    3.0710   -5.4990 hc        1 SDK      0.036867
     76 H363        4.9260    2.1890   -4.2110 hc        1 SDK      0.036867
     77 H371        4.6880   -0.3910   -4.0630 hc        1 SDK      0.036867
     78 H372        3.6350   -1.2330   -5.2770 hc        1 SDK      0.036867
     79 H373        5.1750   -0.4460   -5.8060 hc        1 SDK      0.036867
     80 HN4         1.3270   -1.0890   -2.4010 hn        1 SDK      0.321500
     81 H411       -0.6570   -1.4640   -0.9150 h1        1 SDK      0.095200
     82 H412       -1.0860    0.2720   -1.3100 h1        1 SDK      0.095200
     83 HN          0.0040    1.3640   -5.9090 hn        1 SDK      0.331500
     84 H23        -4.8660    1.0360  -11.9770 ha        1 SDK      0.132000
@<TRIPOS>BOND
     1    1    2 ar  
     2    1    6 ar  
     3    1   43 1   
     4    2    3 ar  
     5    2   44 1   
     6    3    4 ar  
     7    3   45 1   
     8    4    5 ar  
     9    4    7 1   
    10    5    6 ar  
    11    5   46 1   
    12    6   47 1   
    13    7    8 1   
    14    7   48 1   
    15    7   49 1   
    16    8    9 1   
    17    9   10 2   
    18    9   20 1   
    19   11   12 1   
    20   11   16 1   
    21   11   20 1   
    22   11   50 1   
    23   12   13 1   
    24   12   51 1   
    25   12   52 1   
    26   13   14 1   
    27   13   15 1   
    28   13   53 1   
    29   14   54 1   
    30   14   55 1   
    31   14   56 1   
    32   15   57 1   
    33   15   58 1   
    34   15   59 1   
    35   16   17 2   
    36   16   18 1   
    37   18   19 1   
    38   18   60 1   
    39   19   21 1   
    40   19   61 1   
    41   19   62 1   
    42   20   63 1   
    43   21   22 2   
    44   21   41 1   
    45   23   24 ar  
    46   23   28 ar  
    47   23   84 1   
    48   24   25 ar  
    49   24   64 1   
    50   25   26 ar  
    51   25   65 1   
    52   26   27 ar  
    53   26   29 1   
    54   27   28 ar  
    55   27   66 1   
    56   28   67 1   
    57   29   30 1   
    58   29   68 1   
    59   29   69 1   
    60   30   31 1   
    61   31   32 2   
    62   31   42 1   
    63   33   34 1   
    64   33   38 1   
    65   33   42 1   
    66   33   70 1   
    67   34   35 1   
    68   34   71 1   
    69   34   72 1   
    70   35   36 1   
    71   35   37 1   
    72   35   73 1   
    73   36   74 1   
    74   36   75 1   
    75   36   76 1   
    76   37   77 1   
    77   37   78 1   
    78   37   79 1   
    79   38   39 2   
    80   38   40 1   
    81   40   41 1   
    82   40   80 1   
    83   41   81 1   
    84   41   82 1   
    85   42   83 1   
@<TRIPOS>SUBSTRUCTURE
     1 SDK         1 TEMP              0 ****  ****    0 ROOT
