@<TRIPOS>MOLECULE
SDK
   84    79     1     0     0
SMALL
bcc


@<TRIPOS>ATOM
      1 C1          5.3140    8.9070   -2.1480 c1        1 SDK     -0.064625
      2 C2          5.6060    7.5840   -1.8650 c1        1 SDK     -0.064625
      3 C3          4.9070    6.5670   -2.5030 c1        1 SDK     -0.064625
      4 C4          3.9180    6.8770   -3.4230 c1        1 SDK     -0.064100
      5 C5          3.6270    8.2010   -3.7060 c1        1 SDK     -0.061500
      6 C6          4.3250    9.2170   -3.0690 c1        1 SDK     -0.064625
      7 C7          3.1460    5.7490   -4.1330 c3        1 SDK      0.163500
      8 O8          2.5050    4.9200   -3.1550 os        1 SDK     -0.438400
      9 C9          2.3890    3.5320   -3.5490 c         1 SDK      0.733100
     10 O10         1.6910    3.2270   -4.4950 o         1 SDK     -0.588500
     11 C11         2.8280    1.1330   -3.0930 c3        1 SDK      0.034700
     12 C12         3.5660    0.8660   -4.3970 c3        1 SDK     -0.091900
     13 C13         2.7640    1.4510   -5.5730 c3        1 SDK     -0.064200
     14 C14         2.4660    0.3470   -6.5860 c3        1 SDK     -0.091850
     15 C15         3.5750    2.5480   -6.2400 c3        1 SDK     -0.091850
     16 C16         3.4030    0.2530   -1.9960 c         1 SDK      0.643600
     17 O17         4.6000    0.2300   -1.8020 o         1 SDK     -0.624600
     18 N18         2.5190   -0.5460   -1.1700 n         1 SDK     -0.556400
     19 C19         3.0070   -1.1220    0.0650 c3        1 SDK     -0.008000
     20 N20         2.9810    2.5020   -2.7320 n         1 SDK     -0.516900
     21 C21         1.8300   -1.8000    0.8230 c         1 SDK      0.520100
     22 O22         1.5420   -1.4340    1.9530 o         1 SDK     -0.503100
     23 C23        -5.3010   -6.7920    7.6530 c1        1 SDK     -0.064625
     24 C24        -5.3650   -5.4180    7.5010 c1        1 SDK     -0.064625
     25 C25        -5.4220   -4.8630    6.2320 c1        1 SDK     -0.064625
     26 C26        -5.4150   -5.6850    5.1130 c1        1 SDK     -0.064100
     27 C27        -5.3510   -7.0590    5.2650 c1        1 SDK     -0.061500
     28 C28        -5.2930   -7.6140    6.5350 c1        1 SDK     -0.064625
     29 C29        -5.5300   -5.0740    3.7170 c3        1 SDK      0.163500
     30 O30        -4.2830   -5.1930    3.0410 os        1 SDK     -0.438400
     31 C31        -3.9920   -4.0960    2.1590 c         1 SDK      0.733100
     32 O32        -4.8690   -3.6330    1.4620 o         1 SDK     -0.588500
     33 C33        -2.3670   -2.2570    1.7930 c3        1 SDK      0.034700
     34 C34        -2.5690   -1.4970    3.0880 c3        1 SDK     -0.091900
     35 C35        -3.6330   -0.3900    2.8760 c3        1 SDK     -0.064200
     36 C36        -3.2230    0.8740    3.6480 c3        1 SDK     -0.091850
     37 C37        -4.9860   -0.8800    3.3840 c3        1 SDK     -0.091850
     38 C38        -0.9190   -2.0800    1.3140 c         1 SDK      0.643600
     39 O39        -0.4250   -0.9740    1.2730 o         1 SDK     -0.624600
     40 N40        -0.1640   -3.2270    0.8530 n         1 SDK     -0.556400
     41 C41         1.1420   -3.0360    0.2190 c3        1 SDK     -0.008000
     42 N42        -2.6300   -3.6360    2.0060 n         1 SDK     -0.516900
     43 H1          5.8110    9.6320   -1.6940 ha        1 SDK      0.078375
     44 H2          6.3080    7.3650   -1.2110 ha        1 SDK      0.078375
     45 H3          5.1140    5.6280   -2.3010 ha        1 SDK      0.078375
     46 H5          2.9270    8.4210   -4.3580 ha        1 SDK      0.075500
     47 H6          4.1180   10.1530   -3.2690 ha        1 SDK      0.078375
     48 H71         2.4660    6.1410   -4.7280 h1        1 SDK      0.063700
     49 H72         3.7680    5.2110   -4.6600 h1        1 SDK      0.063700
     50 H11         1.8800    0.9310   -3.2090 h1        1 SDK      0.117700
     51 H121        3.6700   -0.1010   -4.5210 hc        1 SDK      0.067950
     52 H122        4.4530    1.2900   -4.3640 hc        1 SDK      0.067950
     53 H13         1.9270    1.8220   -5.2430 hc        1 SDK      0.054200
     54 H141        3.3130    0.0060   -6.9590 hc        1 SDK      0.036700
     55 H142        1.9100    0.7100   -7.3130 hc        1 SDK      0.036700
     56 H143        1.9860   -0.3840   -6.1410 hc        1 SDK      0.036700
     57 H151        3.7710    3.2520   -5.5870 hc        1 SDK      0.036700
     58 H152        3.0610    2.9290   -6.9880 hc        1 SDK      0.036700
     59 H153        4.4120    2.1750   -6.5770 hc        1 SDK      0.036700
     60 HN8         1.6650   -0.7190   -1.4490 hn        1 SDK      0.335500
     61 H191        3.6950   -1.7910   -0.1360 h1        1 SDK      0.082700
     62 H192        3.3920   -0.4150    0.6250 h1        1 SDK      0.082700
     63 HN2         3.3950    2.7240   -1.9500 hn        1 SDK      0.327500
     64 H23        -5.2600   -7.1860    8.5540 ha        1 SDK      0.078375
     65 H24        -5.3700   -4.8370    8.2910 ha        1 SDK      0.078375
     66 H25        -5.4680   -3.8930    6.1260 ha        1 SDK      0.078375
     67 H27        -5.3460   -7.6390    4.4740 ha        1 SDK      0.075500
     68 H28        -5.2480   -8.5810    6.6410 ha        1 SDK      0.078375
     69 H291       -5.7700   -4.1330    3.7930 h1        1 SDK      0.063700
     70 H292       -6.2230   -5.5480    3.2100 h1        1 SDK      0.063700
     71 H33        -2.9790   -1.9090    1.1130 h1        1 SDK      0.117700
     72 H341       -2.8700   -2.1060    3.7750 hc        1 SDK      0.067950
     73 H342       -1.7260   -1.0900    3.3610 hc        1 SDK      0.067950
     74 H35        -3.6990   -0.1800    1.9220 hc        1 SDK      0.054200
     75 H361       -2.9340    0.6250    4.5570 hc        1 SDK      0.036700
     76 H362       -2.4850    1.3160    3.1820 hc        1 SDK      0.036700
     77 H363       -3.9920    1.4890    3.7040 hc        1 SDK      0.036700
     78 H371       -4.8750   -1.2820    4.2760 hc        1 SDK      0.036700
     79 H372       -5.3440   -1.5530    2.7640 hc        1 SDK      0.036700
     80 H373       -5.6150   -0.1140    3.4420 hc        1 SDK      0.036700
     81 HN4        -0.5390   -4.0620    0.8820 hn        1 SDK      0.335500
     82 H411        1.0220   -2.9050   -0.7410 h1        1 SDK      0.082700
     83 H412        1.7040   -3.8340    0.3740 h1        1 SDK      0.082700
     84 HN         -1.9450   -4.2370    2.0010 hn        1 SDK      0.327500
@<TRIPOS>BOND
     1    1    6 3   
     2    1   43 1   
     3    2    3 3   
     4    2   44 1   
     5    3   45 1   
     6    4    5 3   
     7    4    7 1   
     8    5   46 1   
     9    6   47 1   
    10    7    8 1   
    11    7   48 1   
    12    7   49 1   
    13    8    9 1   
    14    9   10 2   
    15    9   20 1   
    16   11   12 1   
    17   11   16 1   
    18   11   20 1   
    19   11   50 1   
    20   12   13 1   
    21   12   51 1   
    22   12   52 1   
    23   13   14 1   
    24   13   15 1   
    25   13   53 1   
    26   14   54 1   
    27   14   55 1   
    28   14   56 1   
    29   15   57 1   
    30   15   58 1   
    31   15   59 1   
    32   16   17 2   
    33   16   18 1   
    34   18   19 1   
    35   18   60 1   
    36   19   21 1   
    37   19   61 1   
    38   19   62 1   
    39   20   63 1   
    40   21   22 2   
    41   21   41 1   
    42   23   28 3   
    43   23   64 1   
    44   24   25 3   
    45   24   65 1   
    46   25   66 1   
    47   26   27 3   
    48   26   29 1   
    49   27   67 1   
    50   28   68 1   
    51   29   30 1   
    52   29   69 1   
    53   29   70 1   
    54   30   31 1   
    55   31   32 2   
    56   31   42 1   
    57   33   34 1   
    58   33   38 1   
    59   33   42 1   
    60   33   71 1   
    61   34   35 1   
    62   34   72 1   
    63   34   73 1   
    64   35   36 1   
    65   35   37 1   
    66   35   74 1   
    67   36   75 1   
    68   36   76 1   
    69   36   77 1   
    70   37   78 1   
    71   37   79 1   
    72   37   80 1   
    73   38   39 2   
    74   38   40 1   
    75   40   41 1   
    76   40   81 1   
    77   41   82 1   
    78   41   83 1   
    79   42   84 1   
@<TRIPOS>SUBSTRUCTURE
     1 SDK         1 TEMP              0 ****  ****    0 ROOT
