@<TRIPOS>MOLECULE
SDK
   88    89     1     0     0
SMALL
bcc


@<TRIPOS>ATOM
      1 C1          0.5730   -1.5520    2.2050 ca        1 SDK     -0.017000
      2 C2          1.7300   -1.8960    2.9130 ca        1 SDK     -0.134000
      3 C3          2.1150   -1.1550    4.0220 ca        1 SDK     -0.055500
      4 C4          1.3330   -0.0610    4.4490 ca        1 SDK     -0.204300
      5 C5          0.1770    0.2880    3.7210 ca        1 SDK     -0.055500
      6 C6         -0.2000   -0.4590    2.6110 ca        1 SDK     -0.134000
      7 C7          1.6840    0.6630    5.6540 c3        1 SDK      0.279700
      8 O8          2.6090    1.8210    5.0960 os        1 SDK     -0.398900
      9 C9          3.1550    2.6570    5.9180 c         1 SDK      0.668100
     10 O10         3.1180    2.7390    7.1520 o         1 SDK     -0.593000
     11 C11         4.9600    4.3960    6.0990 c3        1 SDK      0.089500
     12 C12         5.8050    5.4600    5.3750 c3        1 SDK     -0.115400
     13 C13         6.5730    4.9140    4.1750 c3        1 SDK     -0.076700
     14 C14         7.4640    6.0210    3.6350 c3        1 SDK     -0.111600
     15 C15         7.4040    3.7000    4.5250 c3        1 SDK     -0.111600
     16 C16         4.1980    5.1020    7.2340 c         1 SDK      0.537100
     17 O17         3.3370    5.9500    7.0920 o         1 SDK     -0.362100
     18 N18         4.5690    4.7090    8.6520 ny        1 SDK     -0.665800
     19 C19         3.9210    5.5660    9.6910 c3        1 SDK      0.007800
     20 N20         3.9910    3.7140    5.1840 ny        1 SDK     -0.676800
     21 C21         4.6040    5.5070   11.0470 c         1 SDK      0.541100
     22 O22         5.6720    4.9270   11.2290 o         1 SDK     -0.459100
     23 C23         6.0490   13.9680   19.4480 ca        1 SDK     -0.017000
     24 C24         7.1050   13.1110   19.1180 ca        1 SDK     -0.134000
     25 C25         6.9800   12.2290   18.0520 ca        1 SDK     -0.055500
     26 C26         5.7930   12.2020   17.2900 ca        1 SDK     -0.204300
     27 C27         4.7280   13.0590   17.6400 ca        1 SDK     -0.055500
     28 C28         4.8620   13.9380   18.7080 ca        1 SDK     -0.134000
     29 C29         5.6890   11.3440   16.1270 c3        1 SDK      0.279700
     30 O30         5.0690   10.0210   16.7370 os        1 SDK     -0.398900
     31 C31         4.8760    8.9940   15.9750 c         1 SDK      0.668100
     32 O32         5.1070    8.8070   14.7750 o         1 SDK     -0.593000
     33 C33         4.4210    6.5230   16.0240 c3        1 SDK      0.089500
     34 C34         3.7940    5.3400   16.7860 c3        1 SDK     -0.115400
     35 C35         4.3250    5.1830   18.2080 c3        1 SDK     -0.076700
     36 C36         3.7340    3.9130   18.7990 c3        1 SDK     -0.111600
     37 C37         5.8360    5.1280   18.2580 c3        1 SDK     -0.111600
     38 C38         3.7440    6.5970   14.6450 c         1 SDK      0.537100
     39 O39         2.5720    6.8510   14.4390 o         1 SDK     -0.362100
     40 N40         4.6220    6.3130   13.4400 ny        1 SDK     -0.665800
     41 C41         3.8570    6.2230   12.1590 c3        1 SDK      0.007800
     42 N42         4.2480    7.8240   16.7440 ny        1 SDK     -0.676800
     43 H1          0.2670   -2.1480    1.3260 ha        1 SDK      0.182000
     44 H2          2.3320   -2.7640    2.5900 ha        1 SDK      0.177000
     45 H3          3.0210   -1.4360    4.5830 ha        1 SDK      0.141000
     46 H5         -0.4400    1.1410    4.0440 ha        1 SDK      0.141000
     47 H6         -1.1150   -0.1960    2.0520 ha        1 SDK      0.177000
     48 H71         2.3510    0.1290    6.3710 h1        1 SDK      0.089700
     49 H72         0.8550    1.2240    6.1460 h1        1 SDK      0.089700
     50 H11         5.6460    3.5870    6.5040 hx        1 SDK      0.143700
     51 H121        5.1490    6.3100    5.0400 hc        1 SDK      0.097700
     52 H122        6.5420    5.8630    6.1220 hc        1 SDK      0.097700
     53 H13         5.8430    4.6430    3.3600 hc        1 SDK      0.055700
     54 H141        7.9700    5.6730    2.7000 hc        1 SDK      0.064367
     55 H142        8.2520    6.2960    4.3770 hc        1 SDK      0.064367
     56 H143        6.8630    6.9300    3.3890 hc        1 SDK      0.064367
     57 H151        6.7630    2.8210    4.7780 hc        1 SDK      0.064367
     58 H152        8.0420    3.4150    3.6470 hc        1 SDK      0.064367
     59 H153        8.0870    3.9120    5.3820 hc        1 SDK      0.064367
     60 HN8         4.2640    3.7240    8.7760 hn        1 SDK      0.494800
     61 H191        3.9290    6.6430    9.3300 hx        1 SDK      0.161200
     62 H192        2.8370    5.2480    9.7870 hx        1 SDK      0.161200
     63 HN2         3.3570    4.3990    4.7470 hn        1 SDK      0.499300
     64 H25         7.8180   11.5640   17.7880 ha        1 SDK      0.141000
     65 H27         3.7960   13.0450   17.0530 ha        1 SDK      0.141000
     66 H28         4.0350   14.6200   18.9700 ha        1 SDK      0.177000
     67 H291        4.9320   11.6440   15.3640 h1        1 SDK      0.089700
     68 H292        6.6530   10.9950   15.6880 h1        1 SDK      0.089700
     69 H33         5.5390    6.3540   15.9270 hx        1 SDK      0.143700
     70 H341        2.6760    5.4530   16.8180 hc        1 SDK      0.097700
     71 H342        4.0340    4.4080   16.2060 hc        1 SDK      0.097700
     72 H35         3.9640    6.0450   18.8370 hc        1 SDK      0.055700
     73 H361        2.6190    3.9350   18.7520 hc        1 SDK      0.064367
     74 H362        4.0380    3.8230   19.8720 hc        1 SDK      0.064367
     75 H363        4.1040    3.0110   18.2550 hc        1 SDK      0.064367
     76 H371        6.1690    4.8860   19.3010 hc        1 SDK      0.064367
     77 H372        6.2330    4.3300   17.5850 hc        1 SDK      0.064367
     78 H373        6.2940    6.1060   17.9730 hc        1 SDK      0.064367
     79 HN4         5.1470    5.4380   13.5910 hn        1 SDK      0.494800
     80 H411        3.5880    7.2740   11.8320 hx        1 SDK      0.161200
     81 H412        2.8850    5.6690   12.3550 hx        1 SDK      0.161200
     82 HN          4.7020    7.7460   17.6740 hn        1 SDK      0.499300
     83 H23         6.1540   14.6720   20.2930 ha        1 SDK      0.182000
     84 H182        5.5940    4.7440    8.7640 hn        1 SDK      0.494800
     85 H202        4.5280    3.2550    4.4240 hn        1 SDK      0.499300
     86 H402        5.3060    7.0930   13.3800 hn        1 SDK      0.494800
     87 H422        3.2490    8.0240   16.9030 hn        1 SDK      0.499300
     88 H24         8.0410   13.1440   19.7020 ha        1 SDK      0.177000
@<TRIPOS>BOND
     1    1    2 ar  
     2    1    6 ar  
     3    1   43 1   
     4    2    3 ar  
     5    2   44 1   
     6    3    4 ar  
     7    3   45 1   
     8    4    5 ar  
     9    4    7 1   
    10    5    6 ar  
    11    5   46 1   
    12    6   47 1   
    13    7    8 1   
    14    7   48 1   
    15    7   49 1   
    16    8    9 1   
    17    9   10 2   
    18    9   20 1   
    19   11   12 1   
    20   11   16 1   
    21   11   20 1   
    22   11   50 1   
    23   12   13 1   
    24   12   51 1   
    25   12   52 1   
    26   13   14 1   
    27   13   15 1   
    28   13   53 1   
    29   14   54 1   
    30   14   55 1   
    31   14   56 1   
    32   15   57 1   
    33   15   58 1   
    34   15   59 1   
    35   16   17 2   
    36   16   18 1   
    37   18   19 1   
    38   18   60 1   
    39   18   84 1   
    40   19   21 1   
    41   19   61 1   
    42   19   62 1   
    43   20   63 1   
    44   20   85 1   
    45   21   22 2   
    46   21   41 1   
    47   23   24 ar  
    48   23   28 ar  
    49   23   83 1   
    50   24   25 ar  
    51   24   88 1   
    52   25   26 ar  
    53   25   64 1   
    54   26   27 ar  
    55   26   29 1   
    56   27   28 ar  
    57   27   65 1   
    58   28   66 1   
    59   29   30 1   
    60   29   67 1   
    61   29   68 1   
    62   30   31 1   
    63   31   32 2   
    64   31   42 1   
    65   33   34 1   
    66   33   38 1   
    67   33   42 1   
    68   33   69 1   
    69   34   35 1   
    70   34   70 1   
    71   34   71 1   
    72   35   36 1   
    73   35   37 1   
    74   35   72 1   
    75   36   73 1   
    76   36   74 1   
    77   36   75 1   
    78   37   76 1   
    79   37   77 1   
    80   37   78 1   
    81   38   39 2   
    82   38   40 1   
    83   40   41 1   
    84   40   79 1   
    85   40   86 1   
    86   41   80 1   
    87   41   81 1   
    88   42   82 1   
    89   42   87 1   
@<TRIPOS>SUBSTRUCTURE
     1 SDK         1 TEMP              0 ****  ****    0 ROOT
