@<TRIPOS>MOLECULE
SDK
   88    89     1     0     0
SMALL
bcc


@<TRIPOS>ATOM
      1 C1          0.5730   -1.6010    2.2450 ca        1 SDK     -0.017000
      2 C2          1.7390   -1.9310    2.9460 ca        1 SDK     -0.134000
      3 C3          2.1230   -1.1830    4.0520 ca        1 SDK     -0.055500
      4 C4          1.3330   -0.0960    4.4800 ca        1 SDK     -0.204300
      5 C5          0.1680    0.2390    3.7590 ca        1 SDK     -0.055500
      6 C6         -0.2090   -0.5150    2.6540 ca        1 SDK     -0.134000
      7 C7          1.6840    0.6350    5.6820 c3        1 SDK      0.279700
      8 O8          2.5930    1.8010    5.1140 os        1 SDK     -0.398900
      9 C9          3.1380    2.6430    5.9310 c         1 SDK      0.668100
     10 O10         3.1080    2.7270    7.1640 o         1 SDK     -0.593000
     11 C11         4.9270    4.3990    6.0950 c3        1 SDK      0.089500
     12 C12         5.7560    5.4710    5.3620 c3        1 SDK     -0.115400
     13 C13         6.5190    4.9310    4.1570 c3        1 SDK     -0.076700
     14 C14         7.3940    6.0460    3.6080 c3        1 SDK     -0.111600
     15 C15         7.3650    3.7250    4.5010 c3        1 SDK     -0.111600
     16 C16         4.1670    5.1000    7.2340 c         1 SDK      0.537100
     17 O17         3.2970    5.9400    7.0990 o         1 SDK     -0.362100
     18 N18         4.5530    4.7130    8.6500 n4        1 SDK     -0.664800
     19 C19         3.9070    5.5670    9.6930 c3        1 SDK      0.007800
     20 N20         3.9570    3.7070    5.1890 n4        1 SDK     -0.676800
     21 C21         4.5970    5.5110   11.0450 c         1 SDK      0.541100
     22 O22         5.6680    4.9350   11.2220 o         1 SDK     -0.459100
     23 C23         6.1120   13.9730   19.4300 ca        1 SDK     -0.017000
     24 C24         7.1620   13.1110   19.0960 ca        1 SDK     -0.134000
     25 C25         7.0280   12.2290   18.0310 ca        1 SDK     -0.055500
     26 C26         5.8380   12.2070   17.2750 ca        1 SDK     -0.204300
     27 C27         4.7780   13.0690   17.6290 ca        1 SDK     -0.055500
     28 C28         4.9210   13.9480   18.6950 ca        1 SDK     -0.134000
     29 C29         5.7240   11.3480   16.1130 c3        1 SDK      0.279700
     30 O30         5.1010   10.0290   16.7270 os        1 SDK     -0.398900
     31 C31         4.8990    9.0010   15.9680 c         1 SDK      0.668100
     32 O32         5.1260    8.8120   14.7670 o         1 SDK     -0.593000
     33 C33         4.4340    6.5330   16.0220 c3        1 SDK      0.089500
     34 C34         3.8040    5.3540   16.7880 c3        1 SDK     -0.115400
     35 C35         4.3390    5.1960   18.2080 c3        1 SDK     -0.076700
     36 C36         3.7440    3.9300   18.8030 c3        1 SDK     -0.111600
     37 C37         5.8500    5.1340   18.2530 c3        1 SDK     -0.111600
     38 C38         3.7530    6.6070   14.6450 c         1 SDK      0.537100
     39 O39         2.5810    6.8660   14.4430 o         1 SDK     -0.362100
     40 N40         4.6250    6.3180   13.4380 n4        1 SDK     -0.664800
     41 C41         3.8540    6.2260   12.1610 c3        1 SDK      0.007800
     42 N42         4.2690    7.8360   16.7410 n4        1 SDK     -0.676800
     43 H1          0.2670   -2.2020    1.3700 ha        1 SDK      0.182000
     44 H2          2.3470   -2.7930    2.6220 ha        1 SDK      0.177000
     45 H3          3.0350   -1.4530    4.6070 ha        1 SDK      0.141000
     46 H5         -0.4550    1.0870    4.0830 ha        1 SDK      0.141000
     47 H6         -1.1300   -0.2630    2.1000 ha        1 SDK      0.177000
     48 H71         2.3610    0.1090    6.3950 h1        1 SDK      0.089700
     49 H72         0.8520    1.1880    6.1780 h1        1 SDK      0.089700
     50 H11         5.6240    3.5980    6.4960 hx        1 SDK      0.143700
     51 H121        6.4950    5.8820    6.1030 hc        1 SDK      0.097700
     52 H122        5.0890    6.3140    5.0320 hc        1 SDK      0.097700
     53 H13         5.7850    4.6510    3.3480 hc        1 SDK      0.055700
     54 H141        6.7820    6.9480    3.3660 hc        1 SDK      0.064367
     55 H142        7.8960    5.7000    2.6690 hc        1 SDK      0.064367
     56 H143        8.1860    6.3290    4.3430 hc        1 SDK      0.064367
     57 H151        7.9970    3.4450    3.6190 hc        1 SDK      0.064367
     58 H152        6.7340    2.8400    4.7610 hc        1 SDK      0.064367
     59 H153        8.0530    3.9450    5.3530 hc        1 SDK      0.064367
     60 HN8         5.5780    4.7560    8.7540 hn        1 SDK      0.494800
     61 H191        2.8250    5.2440    9.7950 hx        1 SDK      0.161200
     62 H192        3.9080    6.6440    9.3320 hx        1 SDK      0.161200
     63 HN2         4.4920    3.2520    4.4250 hn        1 SDK      0.499300
     64 H25         7.8610   11.5600   17.7640 ha        1 SDK      0.141000
     65 H27         3.8430   13.0590   17.0470 ha        1 SDK      0.141000
     66 H28         4.0980   14.6340   18.9600 ha        1 SDK      0.177000
     67 H291        4.9650   11.6500   15.3540 h1        1 SDK      0.089700
     68 H292        6.6840   10.9930   15.6700 h1        1 SDK      0.089700
     69 H33         5.5510    6.3580   15.9220 hx        1 SDK      0.143700
     70 H341        4.0380    4.4200   16.2080 hc        1 SDK      0.097700
     71 H342        2.6860    5.4720   16.8240 hc        1 SDK      0.097700
     72 H35         3.9840    6.0620   18.8370 hc        1 SDK      0.055700
     73 H361        4.1080    3.0260   18.2590 hc        1 SDK      0.064367
     74 H362        2.6290    3.9570   18.7600 hc        1 SDK      0.064367
     75 H363        4.0510    3.8400   19.8760 hc        1 SDK      0.064367
     76 H371        6.1850    4.8930   19.2960 hc        1 SDK      0.064367
     77 H372        6.2410    4.3330   17.5800 hc        1 SDK      0.064367
     78 H373        6.3110    6.1100   17.9650 hc        1 SDK      0.064367
     79 HN4         5.1480    5.4410   13.5890 hn        1 SDK      0.494800
     80 H411        3.5820    7.2770   11.8350 hx        1 SDK      0.161200
     81 H412        2.8840    5.6710   12.3610 hx        1 SDK      0.161200
     82 HN          3.2720    8.0400   16.9030 hn        1 SDK      0.499300
     83 H23         6.2240   14.6780   20.2730 ha        1 SDK      0.182000
     84 H182        4.2570    3.7250    8.7790 hn        1 SDK      0.494800
     85 H202        3.3130    4.3850    4.7550 hn        1 SDK      0.499300
     86 H402        5.3110    7.0950   13.3730 hn        1 SDK      0.494800
     87 H422        4.7260    7.7570   17.6690 hn        1 SDK      0.499300
     88 H24         8.1010   13.1410   19.6750 ha        1 SDK      0.177000
@<TRIPOS>BOND
     1    1    2 ar  
     2    1    6 ar  
     3    1   43 1   
     4    2    3 ar  
     5    2   44 1   
     6    3    4 ar  
     7    3   45 1   
     8    4    5 ar  
     9    4    7 1   
    10    5    6 ar  
    11    5   46 1   
    12    6   47 1   
    13    7    8 1   
    14    7   48 1   
    15    7   49 1   
    16    8    9 1   
    17    9   10 2   
    18    9   20 1   
    19   11   12 1   
    20   11   16 1   
    21   11   20 1   
    22   11   50 1   
    23   12   13 1   
    24   12   51 1   
    25   12   52 1   
    26   13   14 1   
    27   13   15 1   
    28   13   53 1   
    29   14   54 1   
    30   14   55 1   
    31   14   56 1   
    32   15   57 1   
    33   15   58 1   
    34   15   59 1   
    35   16   17 2   
    36   16   18 1   
    37   18   19 1   
    38   18   60 1   
    39   18   84 1   
    40   19   21 1   
    41   19   61 1   
    42   19   62 1   
    43   20   63 1   
    44   20   85 1   
    45   21   22 2   
    46   21   41 1   
    47   23   24 ar  
    48   23   28 ar  
    49   23   83 1   
    50   24   25 ar  
    51   24   88 1   
    52   25   26 ar  
    53   25   64 1   
    54   26   27 ar  
    55   26   29 1   
    56   27   28 ar  
    57   27   65 1   
    58   28   66 1   
    59   29   30 1   
    60   29   67 1   
    61   29   68 1   
    62   30   31 1   
    63   31   32 2   
    64   31   42 1   
    65   33   34 1   
    66   33   38 1   
    67   33   42 1   
    68   33   69 1   
    69   34   35 1   
    70   34   70 1   
    71   34   71 1   
    72   35   36 1   
    73   35   37 1   
    74   35   72 1   
    75   36   73 1   
    76   36   74 1   
    77   36   75 1   
    78   37   76 1   
    79   37   77 1   
    80   37   78 1   
    81   38   39 2   
    82   38   40 1   
    83   40   41 1   
    84   40   79 1   
    85   40   86 1   
    86   41   80 1   
    87   41   81 1   
    88   42   82 1   
    89   42   87 1   
@<TRIPOS>SUBSTRUCTURE
     1 SDK         1 TEMP              0 ****  ****    0 ROOT
