@<TRIPOS>MOLECULE
SDN
   34    36     1     0     0
SMALL
bcc


@<TRIPOS>ATOM
      1 O4          4.4740   -1.6200    0.0790 oh        1 SDN     -0.525100
      2 C11         3.9540   -0.3590    0.1940 ca        1 SDN      0.202100
      3 C12         2.5860   -0.0240    0.0480 ca        1 SDN     -0.245600
      4 C13         1.5550   -1.0330   -0.2460 c         1 SDN      0.620900
      5 O5          1.8660   -2.2380   -0.4120 o         1 SDN     -0.660100
      6 C14         0.1670   -0.5910   -0.3220 cc        1 SDN     -0.337200
      7 C15        -0.8640   -1.4920   -0.5120 c2        1 SDN      0.261900
      8 O3         -2.1700   -1.1570   -0.4880 os        1 SDN     -0.328900
      9 C16        -0.6780   -2.9410   -0.7840 c3        1 SDN     -0.078900
     10 C10         4.9150    0.6260    0.4820 ca        1 SDN     -0.217000
     11 C9          4.5200    1.9530    0.6240 ca        1 SDN     -0.071000
     12 C8          3.1870    2.3080    0.4810 ca        1 SDN     -0.197000
     13 C7          2.2160    1.3330    0.1940 ca        1 SDN      0.063200
     14 C6          0.8390    1.7280    0.0400 cd        1 SDN     -0.194200
     15 C5         -0.1330    0.8190   -0.2090 cc        1 SDN      0.027800
     16 C4         -1.5420    1.2300   -0.4450 c3        1 SDN     -0.096200
     17 C3         -2.5280    0.1720    0.0100 c3        1 SDN      0.170100
     18 C2         -3.9340    0.4280   -0.4870 c3        1 SDN     -0.213400
     19 C1         -4.5980    1.6070    0.2610 c         1 SDN      0.917600
     20 O2         -3.8640    2.4100    0.9060 o         1 SDN     -0.835800
     21 O1         -5.8510    1.7000    0.1680 o         1 SDN     -0.835800
     22 HO4         3.7710   -2.2610   -0.1130 ho        1 SDN      0.460000
     23 H161       -0.1500   -3.4100    0.0860 hc        1 SDN      0.072033
     24 H162       -1.6590   -3.4480   -0.9500 hc        1 SDN      0.072033
     25 H163       -0.0250   -3.0690   -1.6840 hc        1 SDN      0.072033
     26 H10         5.9660    0.3300    0.5910 ha        1 SDN      0.139000
     27 H9          5.2740    2.7210    0.8500 ha        1 SDN      0.121000
     28 H8          2.8760    3.3570    0.5940 ha        1 SDN      0.133000
     29 H6          0.6000    2.7980    0.1300 ha        1 SDN      0.140000
     30 H41        -1.8110    2.1760    0.1120 hc        1 SDN      0.099200
     31 H42        -1.6740    1.4350   -1.5420 hc        1 SDN      0.099200
     32 H3         -2.5170    0.0900    1.1330 h1        1 SDN      0.076700
     33 H21        -3.9260    0.6640   -1.5790 hc        1 SDN      0.044700
     34 H22        -4.5590   -0.4870   -0.3350 hc        1 SDN      0.044700
@<TRIPOS>BOND
     1    1    2 1   
     2    1   22 1   
     3    2    3 ar  
     4    2   10 ar  
     5    3    4 1   
     6    3   13 ar  
     7    4    5 2   
     8    4    6 1   
     9    6    7 2   
    10    6   15 1   
    11    7    8 1   
    12    7    9 1   
    13    8   17 1   
    14    9   23 1   
    15    9   24 1   
    16    9   25 1   
    17   10   11 ar  
    18   10   26 1   
    19   11   12 ar  
    20   11   27 1   
    21   12   13 ar  
    22   12   28 1   
    23   13   14 1   
    24   14   15 2   
    25   14   29 1   
    26   15   16 1   
    27   16   17 1   
    28   16   30 1   
    29   16   31 1   
    30   17   18 1   
    31   17   32 1   
    32   18   19 1   
    33   18   33 1   
    34   18   34 1   
    35   19   20 1   
    36   19   21 1   
@<TRIPOS>SUBSTRUCTURE
     1 SDN         1 TEMP              0 ****  ****    0 ROOT
