@<TRIPOS>MOLECULE
SDN
   34    36     1     0     0
SMALL
bcc


@<TRIPOS>ATOM
      1 O4          0.1040    0.3770   -0.0690 oh        1 SDN     -0.460100
      2 C11         1.4630    0.1750   -0.0540 ca        1 SDN      0.179100
      3 C12         2.0700   -0.0780    1.1980 ca        1 SDN     -0.192600
      4 C13         1.2700   -0.1210    2.4380 c         1 SDN      0.608900
      5 O5          0.0460    0.1170    2.4210 o         1 SDN     -0.592100
      6 C14         1.9790   -0.4650    3.6720 cc        1 SDN     -0.338200
      7 C15         1.3000   -0.6280    4.8620 c2        1 SDN      0.249900
      8 O3          1.8790   -1.0360    6.0140 os        1 SDN     -0.332900
      9 C16        -0.1500   -0.3620    5.0460 c3        1 SDN     -0.077900
     10 C10         2.2170    0.2150   -1.2340 ca        1 SDN     -0.269000
     11 C9          3.5940    0.0020   -1.1740 ca        1 SDN     -0.070000
     12 C8          4.2150   -0.2460    0.0400 ca        1 SDN     -0.191000
     13 C7          3.4640   -0.2890    1.2320 ca        1 SDN      0.060200
     14 C6          4.1190   -0.5430    2.4880 cd        1 SDN     -0.201200
     15 C5          3.4160   -0.6240    3.6440 cc        1 SDN      0.036800
     16 C4          4.0970   -0.8150    4.9520 c3        1 SDN     -0.097200
     17 C3          3.2340   -1.5800    5.9360 c3        1 SDN      0.170100
     18 C2          3.7750   -1.5320    7.3490 c3        1 SDN     -0.211400
     19 C1          5.0360   -2.4110    7.5110 c         1 SDN      0.916600
     20 O2          5.6680   -2.7690    6.4760 o         1 SDN     -0.837300
     21 O1          5.3680   -2.7100    8.6900 o         1 SDN     -0.837300
     22 HO4        -0.1590    0.5270   -0.9900 ho        1 SDN      0.401000
     23 H161       -0.4590   -0.5340    6.1060 hc        1 SDN      0.070700
     24 H162       -0.7340   -1.0340    4.3660 hc        1 SDN      0.070700
     25 H163       -0.3730    0.6940    4.7510 hc        1 SDN      0.070700
     26 H10         1.7260    0.4100   -2.1960 ha        1 SDN      0.122000
     27 H9          4.1870    0.0320   -2.1000 ha        1 SDN      0.120000
     28 H8          5.3000   -0.4150    0.0860 ha        1 SDN      0.133000
     29 H6          5.2110   -0.6700    2.4810 ha        1 SDN      0.139000
     30 H41         5.0610   -1.3950    4.8530 hc        1 SDN      0.098200
     31 H42         4.3540    0.1970    5.3700 hc        1 SDN      0.098200
     32 H3          3.1180   -2.6480    5.5970 h1        1 SDN      0.074700
     33 H21         2.9940   -1.8950    8.0630 hc        1 SDN      0.044200
     34 H22         4.0390   -0.4830    7.6300 hc        1 SDN      0.044200
@<TRIPOS>BOND
     1    1    2 1   
     2    1   22 1   
     3    2    3 ar  
     4    2   10 ar  
     5    3    4 1   
     6    3   13 ar  
     7    4    5 2   
     8    4    6 1   
     9    6    7 2   
    10    6   15 1   
    11    7    8 1   
    12    7    9 1   
    13    8   17 1   
    14    9   23 1   
    15    9   24 1   
    16    9   25 1   
    17   10   11 ar  
    18   10   26 1   
    19   11   12 ar  
    20   11   27 1   
    21   12   13 ar  
    22   12   28 1   
    23   13   14 1   
    24   14   15 2   
    25   14   29 1   
    26   15   16 1   
    27   16   17 1   
    28   16   30 1   
    29   16   31 1   
    30   17   18 1   
    31   17   32 1   
    32   18   19 1   
    33   18   33 1   
    34   18   34 1   
    35   19   20 1   
    36   19   21 1   
@<TRIPOS>SUBSTRUCTURE
     1 SDN         1 TEMP              0 ****  ****    0 ROOT
