@<TRIPOS>MOLECULE
SDN
   34    36     1     0     0
SMALL
bcc


@<TRIPOS>ATOM
      1 O4          0.1180    0.4320   -0.0600 oh        1 SDN     -0.460100
      2 C11         1.4720    0.2020   -0.0490 ca        1 SDN      0.179100
      3 C12         2.0780   -0.0620    1.2020 ca        1 SDN     -0.192600
      4 C13         1.2800   -0.0890    2.4430 c         1 SDN      0.608900
      5 O5          0.0610    0.1730    2.4300 o         1 SDN     -0.592100
      6 C14         1.9850   -0.4470    3.6760 cc        1 SDN     -0.338200
      7 C15         1.3080   -0.5960    4.8690 c2        1 SDN      0.249900
      8 O3          1.8810   -1.0160    6.0180 os        1 SDN     -0.332900
      9 C16        -0.1370   -0.3010    5.0560 c3        1 SDN     -0.077900
     10 C10         2.2240    0.2270   -1.2300 ca        1 SDN     -0.269000
     11 C9          3.5970   -0.0130   -1.1740 ca        1 SDN     -0.070000
     12 C8          4.2150   -0.2730    0.0380 ca        1 SDN     -0.191000
     13 C7          3.4670   -0.3010    1.2320 ca        1 SDN      0.060200
     14 C6          4.1200   -0.5680    2.4860 cd        1 SDN     -0.201200
     15 C5          3.4190   -0.6340    3.6450 cc        1 SDN      0.036800
     16 C4          4.0990   -0.8380    4.9510 c3        1 SDN     -0.097200
     17 C3          3.2250   -1.5870    5.9370 c3        1 SDN      0.170100
     18 C2          3.7700   -1.5500    7.3490 c3        1 SDN     -0.211400
     19 C1          5.0140   -2.4530    7.5070 c         1 SDN      0.916600
     20 O2          5.6360   -2.8240    6.4710 o         1 SDN     -0.837300
     21 O1          5.3420   -2.7590    8.6850 o         1 SDN     -0.837300
     22 HO4        -0.1440    0.5870   -0.9800 ho        1 SDN      0.401000
     23 H161       -0.3400    0.7590    4.7610 hc        1 SDN      0.070700
     24 H162       -0.7360   -0.9610    4.3770 hc        1 SDN      0.070700
     25 H163       -0.4470   -0.4670    6.1160 hc        1 SDN      0.070700
     26 H10         1.7340    0.4320   -2.1910 ha        1 SDN      0.122000
     27 H9          4.1870    0.0050   -2.1020 ha        1 SDN      0.120000
     28 H8          5.2970   -0.4640    0.0810 ha        1 SDN      0.133000
     29 H6          5.2100   -0.7170    2.4770 ha        1 SDN      0.139000
     30 H41         5.0510   -1.4380    4.8490 hc        1 SDN      0.098200
     31 H42         4.3780    0.1680    5.3670 hc        1 SDN      0.098200
     32 H3          3.0860   -2.6510    5.5980 h1        1 SDN      0.074700
     33 H21         2.9830   -1.8960    8.0640 hc        1 SDN      0.044200
     34 H22         4.0560   -0.5060    7.6290 hc        1 SDN      0.044200
@<TRIPOS>BOND
     1    1    2 1   
     2    1   22 1   
     3    2    3 ar  
     4    2   10 ar  
     5    3    4 1   
     6    3   13 ar  
     7    4    5 2   
     8    4    6 1   
     9    6    7 2   
    10    6   15 1   
    11    7    8 1   
    12    7    9 1   
    13    8   17 1   
    14    9   23 1   
    15    9   24 1   
    16    9   25 1   
    17   10   11 ar  
    18   10   26 1   
    19   11   12 ar  
    20   11   27 1   
    21   12   13 ar  
    22   12   28 1   
    23   13   14 1   
    24   14   15 2   
    25   14   29 1   
    26   15   16 1   
    27   16   17 1   
    28   16   30 1   
    29   16   31 1   
    30   17   18 1   
    31   17   32 1   
    32   18   19 1   
    33   18   33 1   
    34   18   34 1   
    35   19   20 1   
    36   19   21 1   
@<TRIPOS>SUBSTRUCTURE
     1 SDN         1 TEMP              0 ****  ****    0 ROOT
