@<TRIPOS>MOLECULE
SDO
   68    67     1     0     0
SMALL
bcc


@<TRIPOS>ATOM
      1 P24         3.9660    5.1950   -0.6100 p3        1 SDO      0.311300
      2 O26         4.2210    3.6890   -1.1820 oh        1 SDO     -0.551600
      3 O23         5.0420    5.8000   -1.6790 oh        1 SDO     -0.551600
      4 O27         2.7540    5.4840   -1.6740 os        1 SDO     -0.374900
      5 C28         1.5560    4.8340   -1.2930 c3        1 SDO      0.137400
      6 C29         0.5800    4.8320   -2.4770 c3        1 SDO     -0.078000
      7 C30        -0.7450    4.2610   -1.9780 c3        1 SDO     -0.107600
      8 C31         0.3560    6.2460   -2.9880 c3        1 SDO     -0.107600
      9 C32         1.0690    3.9280   -3.6320 c3        1 SDO      0.099100
     10 O33         1.4910    2.6530   -3.1800 oh        1 SDO     -0.628800
     11 C34         2.2350    4.5430   -4.4040 c         1 SDO      0.570100
     12 O35         2.1440    5.3420   -5.3190 o         1 SDO     -0.409100
     13 N36         3.6310    4.1310   -3.9850 ny        1 SDO     -0.674800
     14 C37         4.6370    4.2210   -5.0680 c3        1 SDO      0.107800
     15 C38         6.0740    4.2450   -4.5360 c3        1 SDO     -0.183400
     16 C39         7.0100    4.4640   -5.6940 c         1 SDO      0.542100
     17 O40         6.6860    4.6170   -6.8630 o         1 SDO     -0.391100
     18 N41         8.4720    4.5200   -5.3800 ny        1 SDO     -0.679800
     19 C42         9.0890    3.1520   -5.2880 c3        1 SDO      0.116800
     20 C43        10.3270    3.0830   -4.4040 c3        1 SDO     -0.082300
     21 S1         11.5330    2.0260   -5.1330 ss        1 SDO     -0.186200
     22 C1         12.8770    3.0730   -5.6050 c3        1 SDO     -0.029300
     23 C2         12.8150    3.6990   -6.9790 c3        1 SDO     -0.186400
     24 C3         11.7710    4.7740   -7.0410 c         1 SDO      0.589100
     25 O3         10.6110    4.5270   -7.4120 o         1 SDO     -0.602100
     26 C4         12.1320    6.1530   -6.5420 c3        1 SDO     -0.190400
     27 C5         10.9320    6.6630   -5.7770 c3        1 SDO     -0.067400
     28 C6         11.0610    7.9540   -5.0110 c3        1 SDO     -0.194400
     29 C7          9.8380    8.1180   -4.1400 c         1 SDO      0.615100
     30 O7          8.9890    7.2090   -4.0540 o         1 SDO     -0.655100
     31 C8          9.7160    9.4060   -3.4090 c3        1 SDO     -0.209100
     32 H1          4.4440    3.1020   -0.4590 ho        1 SDO      0.460500
     33 H2          5.2010    6.7220   -1.4730 ho        1 SDO      0.460500
     34 H28A        1.1050    5.3970   -0.4310 h1        1 SDO      0.065200
     35 H28B        1.7890    3.7760   -0.9880 h1        1 SDO      0.065200
     36 H30A       -0.6030    3.2380   -1.5520 hc        1 SDO      0.064533
     37 H30B       -1.1650    4.9200   -1.1790 hc        1 SDO      0.064533
     38 H30C       -1.4860    4.2110   -2.8120 hc        1 SDO      0.064533
     39 H31A       -0.1260    6.8640   -2.1920 hc        1 SDO      0.064533
     40 H31B        1.3280    6.7240   -3.2620 hc        1 SDO      0.064533
     41 H31C       -0.3120    6.2390   -3.8840 hc        1 SDO      0.064533
     42 H32A        0.2320    3.8200   -4.3900 h1        1 SDO      0.118700
     43 H33A        0.7020    2.1720   -2.8860 ho        1 SDO      0.467000
     44 H36A        3.9050    4.7570   -3.1950 hn        1 SDO      0.492300
     45 H37A        4.4410    5.1660   -5.6630 hx        1 SDO      0.129700
     46 H37B        4.4960    3.3450   -5.7650 hx        1 SDO      0.129700
     47 H38A        6.3240    3.2740   -4.0250 hc        1 SDO      0.124700
     48 H38B        6.2030    5.0730   -3.7780 hc        1 SDO      0.124700
     49 H41A        8.9580    5.0290   -6.1500 hn        1 SDO      0.490800
     50 H42A        8.3070    2.4420   -4.8950 hx        1 SDO      0.120200
     51 H42B        9.3630    2.8420   -6.3470 hx        1 SDO      0.120200
     52 H43A       10.7610    4.0870   -4.1760 h1        1 SDO      0.098200
     53 H43B       10.0520    2.6160   -3.4220 h1        1 SDO      0.098200
     54 H1A        13.7530    2.3650   -5.5810 h1        1 SDO      0.101200
     55 H1B        13.0590    3.8580   -4.8300 h1        1 SDO      0.101200
     56 H2A        12.5880    2.9120   -7.7500 hc        1 SDO      0.103200
     57 H2B        13.8190    4.1390   -7.2280 hc        1 SDO      0.103200
     58 H4A        13.0450    6.1120   -5.8940 hc        1 SDO      0.097700
     59 H4B        12.3660    6.8130   -7.4200 hc        1 SDO      0.097700
     60 H5A        10.0710    6.7640   -6.4940 hc        1 SDO      0.028200
     61 H5B        10.6720    5.8700   -5.0200 hc        1 SDO      0.028200
     62 H6A        11.9760    7.9530   -4.3600 hc        1 SDO      0.099200
     63 H6B        11.1470    8.8330   -5.7040 hc        1 SDO      0.099200
     64 H8A         9.5460   10.2360   -4.1420 hc        1 SDO      0.086700
     65 H8B        10.6610    9.6230   -2.8500 hc        1 SDO      0.086700
     66 H8C         8.8630    9.3850   -2.6880 hc        1 SDO      0.086700
     67 H362        3.5910    3.1740   -3.5990 hn        1 SDO      0.492300
     68 H412        8.6220    5.0570   -4.5110 hn        1 SDO      0.490800
@<TRIPOS>BOND
     1    1    2 1   
     2    1    3 1   
     3    1    4 1   
     4    2   32 1   
     5    3   33 1   
     6    4    5 1   
     7    5    6 1   
     8    5   34 1   
     9    5   35 1   
    10    6    7 1   
    11    6    8 1   
    12    6    9 1   
    13    7   36 1   
    14    7   37 1   
    15    7   38 1   
    16    8   39 1   
    17    8   40 1   
    18    8   41 1   
    19    9   10 1   
    20    9   11 1   
    21    9   42 1   
    22   10   43 1   
    23   11   12 2   
    24   11   13 1   
    25   13   14 1   
    26   13   44 1   
    27   13   67 1   
    28   14   15 1   
    29   14   45 1   
    30   14   46 1   
    31   15   16 1   
    32   15   47 1   
    33   15   48 1   
    34   16   17 2   
    35   16   18 1   
    36   18   19 1   
    37   18   49 1   
    38   18   68 1   
    39   19   20 1   
    40   19   50 1   
    41   19   51 1   
    42   20   21 1   
    43   20   52 1   
    44   20   53 1   
    45   21   22 1   
    46   22   23 1   
    47   22   54 1   
    48   22   55 1   
    49   23   24 1   
    50   23   56 1   
    51   23   57 1   
    52   24   25 2   
    53   24   26 1   
    54   26   27 1   
    55   26   58 1   
    56   26   59 1   
    57   27   28 1   
    58   27   60 1   
    59   27   61 1   
    60   28   29 1   
    61   28   62 1   
    62   28   63 1   
    63   29   30 2   
    64   29   31 1   
    65   31   64 1   
    66   31   65 1   
    67   31   66 1   
@<TRIPOS>SUBSTRUCTURE
     1 SDO         1 TEMP              0 ****  ****    0 ROOT
