@<TRIPOS>MOLECULE
SDO
   68    67     1     0     0
SMALL
bcc


@<TRIPOS>ATOM
      1 P24         4.1220    3.4570   -0.3560 p3        1 SDO      0.313300
      2 O26         4.0610    2.4920   -1.6690 oh        1 SDO     -0.553100
      3 O23         5.2570    4.3860   -1.0710 oh        1 SDO     -0.553100
      4 O27         2.9520    4.4500   -0.9280 os        1 SDO     -0.374900
      5 C28         1.6650    3.8800   -0.7880 c3        1 SDO      0.136400
      6 C29         0.6630    4.6680   -1.6430 c3        1 SDO     -0.078000
      7 C30        -0.7290    4.1200   -1.3390 c3        1 SDO     -0.107600
      8 C31         0.7090    6.1460   -1.2940 c3        1 SDO     -0.107600
      9 C32         0.9150    4.4780   -3.1560 c3        1 SDO      0.099100
     10 O33         1.0910    3.1160   -3.5100 oh        1 SDO     -0.628800
     11 C34         2.1490    5.2340   -3.6450 c         1 SDO      0.570100
     12 O35         2.1830    6.4040   -3.9840 o         1 SDO     -0.408100
     13 N36         3.4500    4.4610   -3.7030 n4        1 SDO     -0.674800
     14 C37         4.4230    4.9880   -4.6890 c3        1 SDO      0.108800
     15 C38         5.8460    4.4820   -4.4360 c3        1 SDO     -0.187400
     16 C39         6.7920    5.2040   -5.3590 c         1 SDO      0.541100
     17 O40         6.4890    6.0910   -6.1440 o         1 SDO     -0.395100
     18 N41         8.2260    4.7980   -5.2940 n4        1 SDO     -0.667800
     19 C42         8.5510    3.7300   -6.2980 c3        1 SDO      0.129800
     20 C43         9.9470    3.1600   -6.1110 c3        1 SDO     -0.075300
     21 S1         10.5240    2.4210   -7.5930 ss        1 SDO     -0.183200
     22 C1         10.9230    3.7510   -8.6830 c3        1 SDO     -0.035300
     23 C2         11.9740    4.7240   -8.2190 c3        1 SDO     -0.194400
     24 C3         11.4470    5.8440   -7.3690 c         1 SDO      0.604100
     25 O3         10.2420    5.9440   -7.0800 o         1 SDO     -0.634100
     26 C4         12.4670    6.8320   -6.8760 c3        1 SDO     -0.189400
     27 C5         12.4710    6.9340   -5.3620 c3        1 SDO     -0.060400
     28 C6         11.2850    7.7240   -4.8330 c3        1 SDO     -0.205400
     29 C7         10.7380    7.1010   -3.5780 c         1 SDO      0.626100
     30 O7          9.8100    6.2720   -3.6330 o         1 SDO     -0.670100
     31 C8         11.3510    7.5260   -2.2920 c3        1 SDO     -0.211100
     32 H1          4.1970    1.5800   -1.4070 ho        1 SDO      0.460500
     33 H2          5.5970    5.0110   -0.4290 ho        1 SDO      0.460500
     34 H28A        1.3680    3.9380    0.2940 h1        1 SDO      0.065200
     35 H28B        1.6960    2.8070   -1.1260 h1        1 SDO      0.065200
     36 H30A       -1.4970    4.6430   -1.9600 hc        1 SDO      0.064533
     37 H30B       -0.9770    4.2930   -0.2620 hc        1 SDO      0.064533
     38 H30C       -0.7790    3.0230   -1.5390 hc        1 SDO      0.064533
     39 H31A        0.0180    6.7260   -1.9520 hc        1 SDO      0.064533
     40 H31B        1.7450    6.5470   -1.4120 hc        1 SDO      0.064533
     41 H31C        0.3950    6.2940   -0.2320 hc        1 SDO      0.064533
     42 H32A        0.0440    4.9240   -3.7300 h1        1 SDO      0.118700
     43 H33A        0.2350    2.6750   -3.4000 ho        1 SDO      0.467000
     44 H36A        3.2360    3.4690   -3.8920 hn        1 SDO      0.492300
     45 H37A        4.4100    6.1210   -4.6360 hx        1 SDO      0.129200
     46 H37B        4.0840    4.6920   -5.7240 hx        1 SDO      0.129200
     47 H38A        6.1480    4.6700   -3.3620 hc        1 SDO      0.122700
     48 H38B        5.9100    3.3740   -4.6190 hc        1 SDO      0.122700
     49 H41A        8.8320    5.6300   -5.4920 hn        1 SDO      0.491800
     50 H42A        8.4680    4.2150   -7.3170 hx        1 SDO      0.108700
     51 H42B        7.7810    2.9140   -6.2060 hx        1 SDO      0.108700
     52 H43A        9.9430    2.3380   -5.3490 h1        1 SDO      0.099200
     53 H43B       10.6610    3.9500   -5.7610 h1        1 SDO      0.099200
     54 H1A        10.0000    4.3100   -8.9790 h1        1 SDO      0.100700
     55 H1B        11.2960    3.2020   -9.5920 h1        1 SDO      0.100700
     56 H2A        12.4670    5.1900   -9.1200 hc        1 SDO      0.105700
     57 H2B        12.7820    4.1890   -7.6470 hc        1 SDO      0.105700
     58 H4A        12.2370    7.8360   -7.3290 hc        1 SDO      0.094200
     59 H4B        13.4900    6.5310   -7.2270 hc        1 SDO      0.094200
     60 H5A        13.4240    7.4350   -5.0400 hc        1 SDO      0.061700
     61 H5B        12.4780    5.9010   -4.9230 hc        1 SDO      0.061700
     62 H6A        10.4700    7.7580   -5.6080 hc        1 SDO      0.086700
     63 H6B        11.5950    8.7820   -4.6220 hc        1 SDO      0.086700
     64 H8A        10.9960    6.8940   -1.4410 hc        1 SDO      0.086033
     65 H8B        12.4660    7.4560   -2.3610 hc        1 SDO      0.086033
     66 H8C        11.0800    8.5930   -2.0850 hc        1 SDO      0.086033
     67 H362        3.8640    4.4970   -2.7450 hn        1 SDO      0.492300
     68 H412        8.4690    4.4850   -4.3460 hn        1 SDO      0.491800
@<TRIPOS>BOND
     1    1    2 1   
     2    1    3 1   
     3    1    4 1   
     4    2   32 1   
     5    3   33 1   
     6    4    5 1   
     7    5    6 1   
     8    5   34 1   
     9    5   35 1   
    10    6    7 1   
    11    6    8 1   
    12    6    9 1   
    13    7   36 1   
    14    7   37 1   
    15    7   38 1   
    16    8   39 1   
    17    8   40 1   
    18    8   41 1   
    19    9   10 1   
    20    9   11 1   
    21    9   42 1   
    22   10   43 1   
    23   11   12 2   
    24   11   13 1   
    25   13   14 1   
    26   13   44 1   
    27   13   67 1   
    28   14   15 1   
    29   14   45 1   
    30   14   46 1   
    31   15   16 1   
    32   15   47 1   
    33   15   48 1   
    34   16   17 2   
    35   16   18 1   
    36   18   19 1   
    37   18   49 1   
    38   18   68 1   
    39   19   20 1   
    40   19   50 1   
    41   19   51 1   
    42   20   21 1   
    43   20   52 1   
    44   20   53 1   
    45   21   22 1   
    46   22   23 1   
    47   22   54 1   
    48   22   55 1   
    49   23   24 1   
    50   23   56 1   
    51   23   57 1   
    52   24   25 2   
    53   24   26 1   
    54   26   27 1   
    55   26   58 1   
    56   26   59 1   
    57   27   28 1   
    58   27   60 1   
    59   27   61 1   
    60   28   29 1   
    61   28   62 1   
    62   28   63 1   
    63   29   30 2   
    64   29   31 1   
    65   31   64 1   
    66   31   65 1   
    67   31   66 1   
@<TRIPOS>SUBSTRUCTURE
     1 SDO         1 TEMP              0 ****  ****    0 ROOT
