@<TRIPOS>MOLECULE
SDP
   30    29     1     0     0
SMALL
bcc


@<TRIPOS>ATOM
      1 N           5.2680    3.6920   -0.6500 n3        1 SDP     -0.880800
      2 CA          4.9660    2.5160   -1.4560 c3        1 SDP     -0.008500
      3 CB          3.4800    2.4440   -1.8530 c3        1 SDP      0.197400
      4 OG          2.9070    1.2480   -1.3540 os        1 SDP     -0.589200
      5 C           5.8470    2.3820   -2.7420 c         1 SDP      0.889600
      6 O           5.4560    1.5690   -3.6290 o         1 SDP     -0.846300
      7 C31         0.5610   -0.4190   -0.6670 c3        1 SDP      0.159900
      8 C32        -0.9270   -0.4330   -0.4170 c3        1 SDP     -0.101600
      9 C41         3.2690    0.2880   -4.7490 c3        1 SDP      0.159900
     10 C42         2.6300   -0.4620   -5.8970 c3        1 SDP     -0.101600
     11 O1          0.8090    0.1530   -1.9330 os        1 SDP     -0.567700
     12 O2          2.2690    0.6820   -3.8190 os        1 SDP     -0.567700
     13 O3          2.9350   -1.2240   -2.1700 o         1 SDP     -0.820300
     14 P           2.3750    0.1110   -2.3340 p5        1 SDP      1.622500
     15 OXT         6.8960    3.0770   -2.8200 o         1 SDP     -0.846300
     16 H           5.0690    4.5120   -1.1960 hn        1 SDP      0.333300
     17 H2          6.2630    3.6930   -0.4920 hn        1 SDP      0.333300
     18 HA          5.2040    1.6170   -0.8160 h1        1 SDP      0.069700
     19 HB2         3.3780    2.4620   -2.9730 h1        1 SDP      0.048200
     20 HB3         2.8840    3.2860   -1.4000 h1        1 SDP      0.048200
     21 H311        0.9880   -1.4610   -0.6620 h1        1 SDP      0.064950
     22 H312        1.0970    0.2030    0.1030 h1        1 SDP      0.064950
     23 H321       -1.1330   -0.8770    0.5860 hc        1 SDP      0.034533
     24 H322       -1.3350    0.6050   -0.4510 hc        1 SDP      0.034533
     25 H323       -1.4450   -1.0380   -1.1990 hc        1 SDP      0.034533
     26 H411        3.7590    1.2360   -5.1170 h1        1 SDP      0.064950
     27 H412        4.0450   -0.3360   -4.2260 h1        1 SDP      0.064950
     28 H421        3.3990   -0.6380   -6.6860 hc        1 SDP      0.034533
     29 H422        2.2260   -1.4470   -5.5620 hc        1 SDP      0.034533
     30 H423        1.7900    0.1330   -6.3300 hc        1 SDP      0.034533
@<TRIPOS>BOND
     1    1    2 1   
     2    1   16 1   
     3    1   17 1   
     4    2    3 1   
     5    2    5 1   
     6    2   18 1   
     7    3    4 1   
     8    3   19 1   
     9    3   20 1   
    10    4   14 1   
    11    5    6 1   
    12    5   15 1   
    13    7    8 1   
    14    7   11 1   
    15    7   21 1   
    16    7   22 1   
    17    8   23 1   
    18    8   24 1   
    19    8   25 1   
    20    9   10 1   
    21    9   12 1   
    22    9   26 1   
    23    9   27 1   
    24   10   28 1   
    25   10   29 1   
    26   10   30 1   
    27   11   14 1   
    28   12   14 1   
    29   13   14 2   
@<TRIPOS>SUBSTRUCTURE
     1 SDP         1 TEMP              0 ****  ****    0 ROOT
