@<TRIPOS>MOLECULE
SDR
   47    46     1     0     0
SMALL
bcc


@<TRIPOS>ATOM
      1 CAR         4.1660   -0.7700   -1.4180 c         1 SDR      0.656100
      2 OAC         3.9870   -1.3380   -2.5190 o         1 SDR     -0.651100
      3 CAB         5.5210   -0.1830   -1.0800 c3        1 SDR     -0.176100
      4 NAP         3.1660   -0.5750   -0.4870 n         1 SDR     -0.520900
      5 CAW         1.9190   -1.3070   -0.5490 c3        1 SDR      0.040700
      6 CAU         0.7430   -0.4740   -1.1310 c         1 SDR      0.643100
      7 OAF        -0.0920   -1.0670   -1.8580 o         1 SDR     -0.681100
      8 CAO         1.4680   -1.8350    0.8200 c3        1 SDR     -0.209400
      9 CAS         2.5770   -2.5540    1.6030 c         1 SDR      0.907600
     10 OAD         3.5910   -1.8850    1.9760 o         1 SDR     -0.858300
     11 OAG         2.4190   -3.7750    1.8850 o         1 SDR     -0.858300
     12 C           0.0730    3.1960   -1.4500 c         1 SDR      0.909600
     13 N           0.6030    0.8370   -0.7720 n         1 SDR     -0.521900
     14 CA         -0.4140    1.7100   -1.3150 c3        1 SDR     -0.028300
     15 CB         -1.7040    1.7440   -0.4790 c3        1 SDR     -0.073400
     16 CAA        -7.9130   -1.9130    1.6080 c3        1 SDR     -0.089100
     17 CAI        -6.6700   -1.9470    0.7560 c3        1 SDR     -0.082400
     18 CAJ        -5.8460   -0.6880    0.9180 c3        1 SDR     -0.077400
     19 CAK        -4.5990   -0.7280    0.0610 c3        1 SDR     -0.080400
     20 CAM        -2.5230    0.4820   -0.6310 c3        1 SDR     -0.084400
     21 HAB         5.9140   -0.6450   -0.1420 hc        1 SDR      0.053367
     22 HABA        6.2270   -0.3920   -1.9180 hc        1 SDR      0.053367
     23 HABB        5.4390    0.9210   -0.9370 hc        1 SDR      0.053367
     24 HNAP        3.4740   -0.3900    0.4540 hn        1 SDR      0.341500
     25 HAW         2.0410   -2.1820   -1.2600 h1        1 SDR      0.087700
     26 HAO         0.6170   -2.5400    0.6480 hc        1 SDR      0.046700
     27 HAOA        1.1050   -0.9850    1.4520 hc        1 SDR      0.046700
     28 HN          1.3500    1.3110   -0.3110 hn        1 SDR      0.333500
     29 HA         -0.6820    1.3470   -2.3500 h1        1 SDR      0.057700
     30 HB         -1.4590    1.9130    0.6010 hc        1 SDR      0.039700
     31 HBA        -2.3010    2.6270   -0.8340 hc        1 SDR      0.039700
     32 HAA        -7.6460   -1.8180    2.6880 hc        1 SDR      0.022700
     33 HAAA       -8.5580   -1.0450    1.3300 hc        1 SDR      0.022700
     34 HAAB       -8.5050   -2.8500    1.4730 hc        1 SDR      0.022700
     35 HAI        -6.0470   -2.8380    1.0340 hc        1 SDR      0.038200
     36 HAIA       -6.9560   -2.0690   -0.3220 hc        1 SDR      0.038200
     37 HAJ        -6.4660    0.2050    0.6400 hc        1 SDR      0.032200
     38 HAJA       -5.5570   -0.5660    1.9950 hc        1 SDR      0.032200
     39 HAK        -3.9770   -1.6200    0.3400 hc        1 SDR      0.041700
     40 HAKA       -4.8860   -0.8510   -1.0160 hc        1 SDR      0.041700
     41 HAL        -4.3900    1.4240   -0.0600 hc        1 SDR      0.026700
     42 HALA       -3.4870    0.6540    1.3000 hc        1 SDR      0.026700
     43 HAM        -2.8070    0.3490   -1.7080 hc        1 SDR      0.051700
     44 HAMA       -1.9030   -0.4100   -0.3510 hc        1 SDR      0.051700
     45 O           1.0820    3.5840   -0.7970 o         1 SDR     -0.845300
     46 OXT        -0.6060    3.9380   -2.2150 o         1 SDR     -0.845300
     47 CAL        -3.7730    0.5300    0.2230 c3        1 SDR     -0.074400
@<TRIPOS>BOND
     1    1    2 2   
     2    1    3 1   
     3    1    4 1   
     4    3   21 1   
     5    3   22 1   
     6    3   23 1   
     7    4    5 1   
     8    4   24 1   
     9    5    6 1   
    10    5    8 1   
    11    5   25 1   
    12    6    7 2   
    13    6   13 1   
    14    8    9 1   
    15    8   26 1   
    16    8   27 1   
    17    9   10 1   
    18    9   11 1   
    19   12   14 1   
    20   12   45 1   
    21   12   46 1   
    22   13   14 1   
    23   13   28 1   
    24   14   15 1   
    25   14   29 1   
    26   15   20 1   
    27   15   30 1   
    28   15   31 1   
    29   16   17 1   
    30   16   32 1   
    31   16   33 1   
    32   16   34 1   
    33   17   18 1   
    34   17   35 1   
    35   17   36 1   
    36   18   19 1   
    37   18   37 1   
    38   18   38 1   
    39   19   39 1   
    40   19   40 1   
    41   19   47 1   
    42   20   43 1   
    43   20   44 1   
    44   20   47 1   
    45   41   47 1   
    46   42   47 1   
@<TRIPOS>SUBSTRUCTURE
     1 SDR         1 TEMP              0 ****  ****    0 ROOT
