@<TRIPOS>MOLECULE
SDR
   47    42     1     0     0
SMALL
bcc


@<TRIPOS>ATOM
      1 CAR        -0.5240   -2.6480    4.8280 c1        1 SDR      0.294000
      2 OAC         0.6470   -2.9230    4.6600 o         1 SDR     -0.408000
      3 CAB        -0.9990   -2.1530    6.1760 c2        1 SDR     -0.245000
      4 NAP        -1.4440   -2.7740    3.7550 n3        1 SDR     -0.317000
      5 CAW        -0.9930   -3.2160    2.4820 c3        1 SDR      0.015000
      6 CAU        -1.4850   -2.2630    1.4150 c1        1 SDR      0.287000
      7 OAF        -2.6570   -1.9490    1.3740 o         1 SDR     -0.428000
      8 CAO        -1.5350   -4.6010    2.2090 c3        1 SDR     -0.241000
      9 CAS        -0.6000   -5.6330    2.8000 c1        1 SDR      0.326000
     10 OAD        -0.8420   -6.1260    3.9330 o         1 SDR     -0.617000
     11 OAG         0.4270   -5.9900    2.1650 os        1 SDR     -0.580000
     12 C          -1.9050   -1.4780   -1.5010 c1        1 SDR      0.332000
     13 N          -0.5720   -1.7210    0.4730 n2        1 SDR     -0.341000
     14 O          -1.4330   -2.3940   -2.2250 o         1 SDR     -0.574000
     15 CA         -1.0220   -0.7810   -0.4910 c3        1 SDR     -0.046000
     16 CB          0.1700   -0.1740   -1.1970 c3        1 SDR     -0.156000
     17 CAA         2.9650    6.0550   -4.0320 c3        1 SDR     -0.207000
     18 CAI         1.6980    5.3940   -3.5370 c3        1 SDR     -0.160000
     19 CAJ         1.9590    3.9240   -3.2920 c3        1 SDR     -0.157000
     20 CAK         0.7340    3.2920   -2.6680 c3        1 SDR     -0.158000
     21 CAL         1.0300    1.8470   -2.3290 c3        1 SDR     -0.152000
     22 CAM        -0.1570    1.2450   -1.6100 c3        1 SDR     -0.167000
     23 OXT        -3.1080   -1.1310   -1.6310 os        1 SDR     -0.580000
     24 HAB        -1.4160   -1.2720    6.0730 ha        1 SDR      0.092000
     25 HABA       -1.6540   -2.7840    6.5430 ha        1 SDR      0.092000
     26 HABB       -0.2350   -2.0840    6.7860 ha        1 SDR      0.092000
     27 HNAP       -2.3220   -2.5610    3.8790 hn        1 SDR      0.251000
     28 HAW        -0.0160   -3.2400    2.4730 h1        1 SDR      0.114000
     29 HAO        -1.6040   -4.7390    1.2430 hc        1 SDR      0.091000
     30 HAOA       -2.4200   -4.6920    2.6150 hc        1 SDR      0.091000
     31 HN          0.3060   -1.9670    0.4960 hn        1 SDR      0.245000
     32 HA         -1.5310   -0.0750   -0.0450 h1        1 SDR      0.093000
     33 HB          0.3830   -0.7030   -1.9910 hc        1 SDR      0.073000
     34 HBA         0.9390   -0.1680   -0.5920 hc        1 SDR      0.073000
     35 HAA         3.6700    5.9560   -3.3590 hc        1 SDR      0.062667
     36 HAAA        3.2500    5.6300   -4.8690 hc        1 SDR      0.062667
     37 HAAB        2.7970    7.0070   -4.1910 hc        1 SDR      0.062667
     38 HAI         0.9950    5.4920   -4.2100 hc        1 SDR      0.075500
     39 HAIA        1.4140    5.8180   -2.7030 hc        1 SDR      0.075500
     40 HAJ         2.1560    3.4820   -4.1420 hc        1 SDR      0.072500
     41 HAJA        2.7210    3.8240   -2.6880 hc        1 SDR      0.072500
     42 HAK        -0.0120    3.3320   -3.2990 hc        1 SDR      0.077500
     43 HAKA        0.4980    3.7760   -1.8520 hc        1 SDR      0.077500
     44 HAL         1.2000    1.3470   -3.1530 hc        1 SDR      0.067500
     45 HALA        1.8180    1.8020   -1.7520 hc        1 SDR      0.067500
     46 HAM        -0.3600    1.7770   -0.8150 hc        1 SDR      0.099500
     47 HAMA       -0.9320    1.2400   -2.2060 hc        1 SDR      0.099500
@<TRIPOS>BOND
     1    1    2 1   
     2    1    4 1   
     3    3   24 1   
     4    3   25 1   
     5    3   26 1   
     6    4    5 1   
     7    4   27 1   
     8    5    6 1   
     9    5    8 1   
    10    5   28 1   
    11    6    7 1   
    12    8    9 1   
    13    8   29 1   
    14    8   30 1   
    15    9   10 1   
    16   12   14 1   
    17   12   15 1   
    18   13   15 1   
    19   13   31 1   
    20   15   16 1   
    21   15   32 1   
    22   16   22 1   
    23   16   33 1   
    24   16   34 1   
    25   17   18 1   
    26   17   35 1   
    27   17   36 1   
    28   17   37 1   
    29   18   19 1   
    30   18   38 1   
    31   18   39 1   
    32   19   20 1   
    33   19   40 1   
    34   19   41 1   
    35   20   21 1   
    36   20   42 1   
    37   20   43 1   
    38   21   22 1   
    39   21   44 1   
    40   21   45 1   
    41   22   46 1   
    42   22   47 1   
@<TRIPOS>SUBSTRUCTURE
     1 SDR         1 TEMP              0 ****  ****    0 ROOT
