@<TRIPOS>MOLECULE
SDS
   42    39     1     0     0
SMALL
bcc


@<TRIPOS>ATOM
      1 S           5.9520   -1.2080   -5.7220 ss        1 SDS      2.876000
      2 O1S         5.2850   -2.2010   -6.6430 o         1 SDS     -1.074500
      3 O2S         5.3880   -1.2910   -4.3270 o         1 SDS     -0.747000
      4 O3S         5.8290    0.2000   -6.2530 os        1 SDS     -1.088000
      5 O4          7.3840   -1.6860   -5.7630 o         1 SDS     -1.074500
      6 C1          4.0790   -0.7970   -4.1600 c3        1 SDS      0.058000
      7 C2         -5.3800    1.0660    5.4530 c3        1 SDS     -0.210000
      8 C3         -4.9350    1.2870    4.0240 c3        1 SDS     -0.159000
      9 C4         -3.5960    0.6160    3.8030 c3        1 SDS     -0.158000
     10 C5         -3.1360    0.8650    2.3840 c3        1 SDS     -0.158000
     11 C6         -1.7810    0.2240    2.1730 c3        1 SDS     -0.157000
     12 C7         -1.3450    0.4260    0.7390 c3        1 SDS     -0.158000
     13 C8          0.0170   -0.1990    0.5340 c3        1 SDS     -0.157000
     14 C9          0.4530    0.0010   -0.9010 c3        1 SDS     -0.158000
     15 C10         1.8210   -0.6120   -1.1040 c3        1 SDS     -0.157000
     16 C11         2.2810   -0.3610   -2.5230 c3        1 SDS     -0.157000
     17 C12         3.6730   -0.9250   -2.7090 c3        1 SDS     -0.168000
     18 H1C1        3.4620   -1.3130   -4.7190 h1        1 SDS      0.048000
     19 H1C2        4.0500    0.1460   -4.4250 h1        1 SDS      0.048000
     20 H2C1       -4.7330    1.4770    6.0640 hc        1 SDS      0.070000
     21 H2C2       -6.2610    1.4730    5.5870 hc        1 SDS      0.070000
     22 H2C3       -5.4330    0.1040    5.6330 hc        1 SDS      0.070000
     23 H3C1       -5.5960    0.9030    3.4130 hc        1 SDS      0.077000
     24 H3C2       -4.8510    2.2460    3.8530 hc        1 SDS      0.077000
     25 H4C1       -2.9400    0.9850    4.4280 hc        1 SDS      0.078000
     26 H4C2       -3.6850   -0.3460    3.9530 hc        1 SDS      0.078000
     27 H5C1       -3.7810    0.4770    1.7590 hc        1 SDS      0.078000
     28 H5C2       -3.0680    1.8280    2.2270 hc        1 SDS      0.078000
     29 H6C1       -1.1290    0.6360    2.7740 hc        1 SDS      0.078000
     30 H6C2       -1.8410   -0.7340    2.3640 hc        1 SDS      0.078000
     31 H7C1       -1.2970    1.3840    0.5450 hc        1 SDS      0.077000
     32 H7C2       -1.9910    0.0030    0.1390 hc        1 SDS      0.077000
     33 H8C1        0.6640    0.2250    1.1330 hc        1 SDS      0.077000
     34 H8C2       -0.0300   -1.1560    0.7300 hc        1 SDS      0.077000
     35 H9C1       -0.1900   -0.4290   -1.5000 hc        1 SDS      0.076000
     36 H9C2        0.4920    0.9580   -1.1000 hc        1 SDS      0.076000
     37 H101        2.4550   -0.2080   -0.4780 hc        1 SDS      0.075000
     38 H102        1.7730   -1.5760   -0.9430 hc        1 SDS      0.075000
     39 H111        1.6670   -0.7960   -3.1470 hc        1 SDS      0.074000
     40 H112        2.2940    0.6020   -2.6950 hc        1 SDS      0.074000
     41 H121        3.6790   -1.8690   -2.4500 hc        1 SDS      0.080500
     42 H122        4.3030   -0.4300   -2.1480 hc        1 SDS      0.080500
@<TRIPOS>BOND
     1    1    2 1   
     2    1    5 1   
     3    3    6 1   
     4    6   17 1   
     5    6   18 1   
     6    6   19 1   
     7    7    8 1   
     8    7   20 1   
     9    7   21 1   
    10    7   22 1   
    11    8    9 1   
    12    8   23 1   
    13    8   24 1   
    14    9   10 1   
    15    9   25 1   
    16    9   26 1   
    17   10   11 1   
    18   10   27 1   
    19   10   28 1   
    20   11   12 1   
    21   11   29 1   
    22   11   30 1   
    23   12   13 1   
    24   12   31 1   
    25   12   32 1   
    26   13   14 1   
    27   13   33 1   
    28   13   34 1   
    29   14   15 1   
    30   14   35 1   
    31   14   36 1   
    32   15   16 1   
    33   15   37 1   
    34   15   38 1   
    35   16   17 1   
    36   16   39 1   
    37   16   40 1   
    38   17   41 1   
    39   17   42 1   
@<TRIPOS>SUBSTRUCTURE
     1 SDS         1 TEMP              0 ****  ****    0 ROOT
