@<TRIPOS>MOLECULE
SDS
   42    41     1     0     0
SMALL
bcc


@<TRIPOS>ATOM
      1 S           0.2340    0.2330   -0.1140 s6        1 SDS      1.698300
      2 O1S         1.4820    0.7040    0.2810 o         1 SDS     -0.755867
      3 O2S        -0.4910   -0.1370    1.4150 os        1 SDS     -0.609500
      4 O3S        -0.6520    1.1790   -0.6320 o         1 SDS     -0.755867
      5 O4          0.2120   -1.0070   -0.7540 o         1 SDS     -0.755867
      6 C1         -1.8030   -0.5910    1.4550 c3        1 SDS      0.208400
      7 C2        -11.7210   -3.4750   10.5720 c3        1 SDS     -0.092100
      8 C3        -11.2520   -3.4110    9.1420 c3        1 SDS     -0.080400
      9 C4         -9.8270   -2.9090    9.0450 c3        1 SDS     -0.079400
     10 C5         -9.3610   -2.8460    7.6060 c3        1 SDS     -0.079400
     11 C6         -7.9360   -2.3450    7.5110 c3        1 SDS     -0.078400
     12 C7         -7.4700   -2.2810    6.0720 c3        1 SDS     -0.079400
     13 C8         -6.0450   -1.7810    5.9760 c3        1 SDS     -0.078400
     14 C9         -5.5780   -1.7170    4.5370 c3        1 SDS     -0.079400
     15 C10        -4.1520   -1.2180    4.4410 c3        1 SDS     -0.078400
     16 C11        -3.6860   -1.1510    3.0030 c3        1 SDS     -0.078400
     17 C12        -2.2610   -0.6540    2.9080 c3        1 SDS     -0.089400
     18 H1C1       -2.4710    0.1070    0.8730 h1        1 SDS      0.009200
     19 H1C2       -1.8660   -1.6150    0.9900 h1        1 SDS      0.009200
     20 H2C1      -12.7730   -3.8480   10.6210 hc        1 SDS      0.030700
     21 H2C2      -11.6830   -2.4640   11.0450 hc        1 SDS      0.030700
     22 H2C3      -11.0750   -4.1640   11.1690 hc        1 SDS      0.030700
     23 H3C1      -11.3210   -4.4300    8.6770 hc        1 SDS      0.037700
     24 H3C2      -11.9270   -2.7350    8.5540 hc        1 SDS      0.037700
     25 H4C1       -9.7560   -1.8900    9.5080 hc        1 SDS      0.038700
     26 H4C2       -9.1500   -3.5850    9.6300 hc        1 SDS      0.038700
     27 H5C1      -10.0380   -2.1700    7.0210 hc        1 SDS      0.038700
     28 H5C2       -9.4330   -3.8660    7.1430 hc        1 SDS      0.038700
     29 H6C1       -7.2590   -3.0220    8.0950 hc        1 SDS      0.038200
     30 H6C2       -7.8640   -1.3260    7.9740 hc        1 SDS      0.038200
     31 H7C1       -7.5430   -3.3000    5.6080 hc        1 SDS      0.037700
     32 H7C2       -8.1460   -1.6040    5.4870 hc        1 SDS      0.037700
     33 H8C1       -5.3680   -2.4590    6.5600 hc        1 SDS      0.037700
     34 H8C2       -5.9710   -0.7630    6.4410 hc        1 SDS      0.037700
     35 H9C1       -6.2540   -1.0380    3.9530 hc        1 SDS      0.036700
     36 H9C2       -5.6520   -2.7350    4.0720 hc        1 SDS      0.036700
     37 H101       -3.4760   -1.8970    5.0240 hc        1 SDS      0.036200
     38 H102       -4.0780   -0.2000    4.9070 hc        1 SDS      0.036200
     39 H111       -3.7610   -2.1690    2.5360 hc        1 SDS      0.034200
     40 H112       -4.3610   -0.4710    2.4200 hc        1 SDS      0.034200
     41 H121       -1.5750   -1.3300    3.4790 hc        1 SDS      0.041200
     42 H122       -2.1750    0.3660    3.3630 hc        1 SDS      0.041200
@<TRIPOS>BOND
     1    1    2 1   
     2    1    3 1   
     3    1    4 1   
     4    1    5 1   
     5    3    6 1   
     6    6   17 1   
     7    6   18 1   
     8    6   19 1   
     9    7    8 1   
    10    7   20 1   
    11    7   21 1   
    12    7   22 1   
    13    8    9 1   
    14    8   23 1   
    15    8   24 1   
    16    9   10 1   
    17    9   25 1   
    18    9   26 1   
    19   10   11 1   
    20   10   27 1   
    21   10   28 1   
    22   11   12 1   
    23   11   29 1   
    24   11   30 1   
    25   12   13 1   
    26   12   31 1   
    27   12   32 1   
    28   13   14 1   
    29   13   33 1   
    30   13   34 1   
    31   14   15 1   
    32   14   35 1   
    33   14   36 1   
    34   15   16 1   
    35   15   37 1   
    36   15   38 1   
    37   16   17 1   
    38   16   39 1   
    39   16   40 1   
    40   17   41 1   
    41   17   42 1   
@<TRIPOS>SUBSTRUCTURE
     1 SDS         1 TEMP              0 ****  ****    0 ROOT
