@<TRIPOS>MOLECULE
SDS
   42    41     1     0     0
SMALL
bcc


@<TRIPOS>ATOM
      1 S           0.2700    0.1270   -0.1160 s6        1 SDS      1.698300
      2 O1S         1.5180    0.6080    0.2710 o         1 SDS     -0.756200
      3 O2S        -0.5170   -0.0540    1.4160 os        1 SDS     -0.609500
      4 O3S        -0.5690    1.0320   -0.7680 o         1 SDS     -0.756200
      5 O4          0.2350   -1.1750   -0.6170 o         1 SDS     -0.756200
      6 C1         -1.8230   -0.5270    1.4550 c3        1 SDS      0.208400
      7 C2        -11.7110   -3.5130   10.5730 c3        1 SDS     -0.092100
      8 C3        -11.2440   -3.4400    9.1420 c3        1 SDS     -0.080400
      9 C4         -9.8220   -2.9280    9.0450 c3        1 SDS     -0.079400
     10 C5         -9.3580   -2.8570    7.6060 c3        1 SDS     -0.079400
     11 C6         -7.9370   -2.3450    7.5110 c3        1 SDS     -0.078400
     12 C7         -7.4730   -2.2740    6.0720 c3        1 SDS     -0.079400
     13 C8         -6.0510   -1.7620    5.9770 c3        1 SDS     -0.078400
     14 C9         -5.5870   -1.6900    4.5380 c3        1 SDS     -0.079400
     15 C10        -4.1650   -1.1790    4.4420 c3        1 SDS     -0.078400
     16 C11        -3.7000   -1.1070    3.0030 c3        1 SDS     -0.078400
     17 C12        -2.2800   -0.5960    2.9080 c3        1 SDS     -0.089400
     18 H1C1       -2.4980    0.1620    0.8740 h1        1 SDS      0.008700
     19 H1C2       -1.8730   -1.5520    0.9900 h1        1 SDS      0.008700
     20 H2C1      -12.7600   -3.8920   10.6210 hc        1 SDS      0.030700
     21 H2C2      -11.6780   -2.5030   11.0500 hc        1 SDS      0.030700
     22 H2C3      -11.0590   -4.2000   11.1650 hc        1 SDS      0.030700
     23 H3C1      -11.3070   -4.4570    8.6730 hc        1 SDS      0.037700
     24 H3C2      -11.9240   -2.7650    8.5570 hc        1 SDS      0.037700
     25 H4C1       -9.7570   -1.9100    9.5120 hc        1 SDS      0.038700
     26 H4C2       -9.1400   -3.6030    9.6270 hc        1 SDS      0.038700
     27 H5C1      -10.0400   -2.1820    7.0240 hc        1 SDS      0.038700
     28 H5C2       -9.4230   -3.8750    7.1390 hc        1 SDS      0.038700
     29 H6C1       -7.2550   -3.0200    8.0930 hc        1 SDS      0.038700
     30 H6C2       -7.8710   -1.3270    7.9780 hc        1 SDS      0.038700
     31 H7C1       -7.5380   -3.2920    5.6050 hc        1 SDS      0.037700
     32 H7C2       -8.1540   -1.5990    5.4900 hc        1 SDS      0.037700
     33 H8C1       -5.3690   -2.4370    6.5580 hc        1 SDS      0.037700
     34 H8C2       -5.9860   -0.7440    6.4440 hc        1 SDS      0.037700
     35 H9C1       -6.2680   -1.0160    3.9560 hc        1 SDS      0.036700
     36 H9C2       -5.6520   -2.7080    4.0700 hc        1 SDS      0.036700
     37 H101       -3.4820   -1.8530    5.0230 hc        1 SDS      0.035700
     38 H102       -4.0990   -0.1610    4.9090 hc        1 SDS      0.035700
     39 H111       -3.7650   -2.1240    2.5350 hc        1 SDS      0.034700
     40 H112       -4.3820   -0.4320    2.4210 hc        1 SDS      0.034700
     41 H121       -1.5870   -1.2660    3.4780 hc        1 SDS      0.041200
     42 H122       -2.2030    0.4250    3.3640 hc        1 SDS      0.041200
@<TRIPOS>BOND
     1    1    2 1   
     2    1    3 1   
     3    1    4 1   
     4    1    5 1   
     5    3    6 1   
     6    6   17 1   
     7    6   18 1   
     8    6   19 1   
     9    7    8 1   
    10    7   20 1   
    11    7   21 1   
    12    7   22 1   
    13    8    9 1   
    14    8   23 1   
    15    8   24 1   
    16    9   10 1   
    17    9   25 1   
    18    9   26 1   
    19   10   11 1   
    20   10   27 1   
    21   10   28 1   
    22   11   12 1   
    23   11   29 1   
    24   11   30 1   
    25   12   13 1   
    26   12   31 1   
    27   12   32 1   
    28   13   14 1   
    29   13   33 1   
    30   13   34 1   
    31   14   15 1   
    32   14   35 1   
    33   14   36 1   
    34   15   16 1   
    35   15   37 1   
    36   15   38 1   
    37   16   17 1   
    38   16   39 1   
    39   16   40 1   
    40   17   41 1   
    41   17   42 1   
@<TRIPOS>SUBSTRUCTURE
     1 SDS         1 TEMP              0 ****  ****    0 ROOT
