@<TRIPOS>MOLECULE
SDS
   42    41     1     0     0
SMALL
bcc


@<TRIPOS>ATOM
      1 S           0.0020    0.0370   -6.2220 s6        1 SDS      1.698300
      2 O1S        -1.1510   -0.0100   -7.0020 o         1 SDS     -0.756200
      3 O2S        -0.6660    0.0020   -4.6240 os        1 SDS     -0.609500
      4 O3S         0.8020   -1.1060   -6.2270 o         1 SDS     -0.756200
      5 O4          0.7000    1.2450   -6.2180 o         1 SDS     -0.756200
      6 C1          0.1910    0.0350   -3.5300 c3        1 SDS      0.208400
      7 C2         -0.2420   -0.0370   10.2400 c3        1 SDS     -0.092100
      8 C3          0.5640    0.0030    8.9670 c3        1 SDS     -0.080400
      9 C4         -0.3270   -0.0310    7.7430 c3        1 SDS     -0.079400
     10 C5          0.4870    0.0090    6.4670 c3        1 SDS     -0.079400
     11 C6         -0.4050   -0.0250    5.2450 c3        1 SDS     -0.078400
     12 C7          0.4090    0.0160    3.9690 c3        1 SDS     -0.079400
     13 C8         -0.4820   -0.0180    2.7460 c3        1 SDS     -0.078400
     14 C9          0.3310    0.0220    1.4700 c3        1 SDS     -0.079400
     15 C10        -0.5600   -0.0120    0.2460 c3        1 SDS     -0.078400
     16 C11         0.2520    0.0280   -1.0310 c3        1 SDS     -0.078400
     17 C12        -0.6380   -0.0060   -2.2520 c3        1 SDS     -0.089400
     18 H1C1        0.8090    0.9760   -3.5560 h1        1 SDS      0.008700
     19 H1C2        0.8870   -0.8510   -3.5630 h1        1 SDS      0.008700
     20 H2C1        0.4340   -0.0110   11.1290 hc        1 SDS      0.030700
     21 H2C2       -0.9330    0.8380   10.2960 hc        1 SDS      0.030700
     22 H2C3       -0.8540   -0.9700   10.2890 hc        1 SDS      0.030700
     23 H3C1        1.1910    0.9340    8.9470 hc        1 SDS      0.037700
     24 H3C2        1.2690   -0.8690    8.9400 hc        1 SDS      0.037700
     25 H4C1       -0.9530   -0.9620    7.7610 hc        1 SDS      0.038700
     26 H4C2       -1.0310    0.8420    7.7680 hc        1 SDS      0.038700
     27 H5C1        1.1130    0.9400    6.4500 hc        1 SDS      0.038700
     28 H5C2        1.1920   -0.8630    6.4430 hc        1 SDS      0.038700
     29 H6C1       -1.0310   -0.9550    5.2620 hc        1 SDS      0.038700
     30 H6C2       -1.1090    0.8480    5.2690 hc        1 SDS      0.038700
     31 H7C1        1.0350    0.9460    3.9510 hc        1 SDS      0.037700
     32 H7C2        1.1130   -0.8570    3.9440 hc        1 SDS      0.037700
     33 H8C1       -1.1090   -0.9490    2.7630 hc        1 SDS      0.037700
     34 H8C2       -1.1870    0.8550    2.7690 hc        1 SDS      0.037700
     35 H9C1        0.9570    0.9520    1.4520 hc        1 SDS      0.036700
     36 H9C2        1.0350   -0.8510    1.4450 hc        1 SDS      0.036700
     37 H101       -1.1870   -0.9420    0.2630 hc        1 SDS      0.035700
     38 H102       -1.2650    0.8610    0.2700 hc        1 SDS      0.035700
     39 H111        0.8790    0.9580   -1.0480 hc        1 SDS      0.034700
     40 H112        0.9570   -0.8450   -1.0550 hc        1 SDS      0.034700
     41 H121       -1.2640   -0.9350   -2.2510 hc        1 SDS      0.040700
     42 H122       -1.3410    0.8660   -2.2440 hc        1 SDS      0.040700
@<TRIPOS>BOND
     1    1    2 1   
     2    1    3 1   
     3    1    4 1   
     4    1    5 1   
     5    3    6 1   
     6    6   17 1   
     7    6   18 1   
     8    6   19 1   
     9    7    8 1   
    10    7   20 1   
    11    7   21 1   
    12    7   22 1   
    13    8    9 1   
    14    8   23 1   
    15    8   24 1   
    16    9   10 1   
    17    9   25 1   
    18    9   26 1   
    19   10   11 1   
    20   10   27 1   
    21   10   28 1   
    22   11   12 1   
    23   11   29 1   
    24   11   30 1   
    25   12   13 1   
    26   12   31 1   
    27   12   32 1   
    28   13   14 1   
    29   13   33 1   
    30   13   34 1   
    31   14   15 1   
    32   14   35 1   
    33   14   36 1   
    34   15   16 1   
    35   15   37 1   
    36   15   38 1   
    37   16   17 1   
    38   16   39 1   
    39   16   40 1   
    40   17   41 1   
    41   17   42 1   
@<TRIPOS>SUBSTRUCTURE
     1 SDS         1 TEMP              0 ****  ****    0 ROOT
