@<TRIPOS>MOLECULE
SDT
   47    46     1     0     0
SMALL
bcc


@<TRIPOS>ATOM
      1 OAD        -4.4350   -3.4650    1.3410 o         1 SDT     -0.276000
      2 CAP        -3.3210   -2.9900    1.4240 c1        1 SDT      0.239000
      3 CAI        -2.5730   -2.3330    2.8920 c2        1 SDT     -0.217000
      4 CAL        -1.2600   -1.6720    2.2950 c3        1 SDT     -0.151000
      5 CAV        -1.6520   -1.2520    0.7690 c3        1 SDT     -0.099000
      6 CAW        -2.4500   -2.3470    0.1900 c3        1 SDT     -0.109000
      7 CAB        -1.4530   -3.4110   -0.1800 c3        1 SDT     -0.202000
      8 CAN        -3.1520   -2.0050   -1.1190 c3        1 SDT     -0.132000
      9 CAJ        -2.1080   -1.4210   -2.2490 c3        1 SDT     -0.210000
     10 CAU        -0.5630   -0.6940   -0.1390 c3        1 SDT     -0.132000
     11 CAO        -1.2910   -0.2780   -1.6290 c2        1 SDT      0.227000
     12 OAC        -0.7760    0.5630   -2.3460 o         1 SDT     -0.289000
     13 CAM         0.1720    0.4220    0.4660 c3        1 SDT     -0.153000
     14 CAK         1.6570    0.3690    0.0130 c3        1 SDT     -0.115000
     15 CAT         2.1510    1.8030   -0.3160 c2        1 SDT     -0.071000
     16 CAS         2.1020    2.2740   -1.6290 c2        1 SDT      0.071000
     17 OAF         1.6570    1.4200   -2.6700 oh        1 SDT     -0.249000
     18 CAR         2.5940    3.5410   -1.9340 c1        1 SDT     -0.008000
     19 OAE         2.4410    4.0650   -3.2510 o         1 SDT     -0.272000
     20 CAH         3.1330    4.3390   -0.9270 c2        1 SDT     -0.167000
     21 CAG         3.1810    3.8690    0.3860 c1        1 SDT     -0.129000
     22 CAQ         2.6900    2.6010    0.6900 c1        1 SDT     -0.064000
     23 CAA         2.8050    2.0580    2.1210 c3        1 SDT     -0.176000
     24 HAI        -2.3800   -3.0340    3.5590 ha        1 SDT      0.116500
     25 HAIA       -3.1420   -1.7120    3.3920 ha        1 SDT      0.116500
     26 HAL        -0.5250   -2.3180    2.2910 hc        1 SDT      0.092000
     27 HALA       -1.0150   -0.8840    2.8090 hc        1 SDT      0.092000
     28 HAV        -2.2790   -0.5150    0.8720 hc        1 SDT      0.096000
     29 HAB        -0.9700   -3.6990    0.6230 hc        1 SDT      0.084333
     30 HABA       -1.9240   -4.1780   -0.5700 hc        1 SDT      0.084333
     31 HABB       -0.8190   -3.0510   -0.8330 hc        1 SDT      0.084333
     32 HAN        -3.8370   -1.3310   -0.9430 hc        1 SDT      0.097500
     33 HANA       -3.5830   -2.8120   -1.4700 hc        1 SDT      0.097500
     34 HAJ        -1.5380   -2.1250   -2.6180 hc        1 SDT      0.112500
     35 HAJA       -2.5860   -1.1190   -3.0550 hc        1 SDT      0.112500
     36 HAU         0.1560   -1.3470   -0.2690 hc        1 SDT      0.118000
     37 HAM        -0.2270    1.2670    0.1800 hc        1 SDT      0.103500
     38 HAMA        0.1260    0.3520    1.4420 hc        1 SDT      0.103500
     39 HAK         2.2070   -0.0100    0.7360 hc        1 SDT      0.093000
     40 HAKA        1.7350   -0.1930   -0.7830 hc        1 SDT      0.093000
     41 HOAF        2.3120    1.3180   -3.2730 ho        1 SDT      0.237000
     42 HOAE        3.2130    4.4430   -3.5150 ho        1 SDT      0.228000
     43 HAH         3.4780    5.2320   -1.1410 ha        1 SDT      0.135000
     44 HAG         3.5610    4.4300    1.0930 ha        1 SDT      0.135000
     45 HAA         2.9630    1.0900    2.0920 hc        1 SDT      0.083333
     46 HAAA        1.9720    2.2400    2.6070 hc        1 SDT      0.083333
     47 HAAB        3.5540    2.4980    2.5780 hc        1 SDT      0.083333
@<TRIPOS>BOND
     1    1    2 1   
     2    2    6 1   
     3    3    4 1   
     4    3   24 1   
     5    3   25 1   
     6    4    5 1   
     7    4   26 1   
     8    4   27 1   
     9    5    6 1   
    10    5   10 1   
    11    5   28 1   
    12    6    7 1   
    13    6    8 1   
    14    7   29 1   
    15    7   30 1   
    16    7   31 1   
    17    8    9 1   
    18    8   32 1   
    19    8   33 1   
    20    9   11 1   
    21    9   34 1   
    22    9   35 1   
    23   10   11 1   
    24   10   13 1   
    25   10   36 1   
    26   11   12 1   
    27   13   14 1   
    28   13   37 1   
    29   13   38 1   
    30   14   15 1   
    31   14   39 1   
    32   14   40 1   
    33   15   16 1   
    34   15   22 1   
    35   16   17 1   
    36   16   18 1   
    37   17   41 1   
    38   18   20 1   
    39   19   42 1   
    40   20   21 1   
    41   20   43 1   
    42   21   44 1   
    43   22   23 1   
    44   23   45 1   
    45   23   46 1   
    46   23   47 1   
@<TRIPOS>SUBSTRUCTURE
     1 SDT         1 TEMP              0 ****  ****    0 ROOT
