@<TRIPOS>MOLECULE
SDT
   47    49     1     0     0
SMALL
bcc


@<TRIPOS>ATOM
      1 OAD         0.0790   -0.2160    0.1960 o         1 SDT     -0.516100
      2 CAP         1.3010   -0.1780    0.0890 c         1 SDT      0.579100
      3 CAI         2.2900   -0.2020    1.2360 c3        1 SDT     -0.188400
      4 CAL         3.6730    0.0360    0.6260 c3        1 SDT     -0.072400
      5 CAV         3.3840    0.6050   -0.7600 c3        1 SDT     -0.059700
      6 CAW         2.0930   -0.1140   -1.2140 c3        1 SDT     -0.160000
      7 CAB         2.3110   -1.5570   -1.6500 c3        1 SDT     -0.084100
      8 CAN         1.4810    0.6980   -2.3380 c3        1 SDT     -0.052400
      9 CAJ         2.4660    0.8650   -3.4810 c3        1 SDT     -0.181400
     10 CAU         4.4490    0.5310   -1.8350 c3        1 SDT     -0.145700
     11 CAO         3.8820    1.1990   -3.0780 c         1 SDT      0.570100
     12 OAC         4.5550    1.9700   -3.7700 o         1 SDT     -0.539100
     13 CAM         5.7470    1.1810   -1.3800 c3        1 SDT     -0.065400
     14 CAK         6.9310    0.6950   -2.1980 c3        1 SDT     -0.031100
     15 CAT         8.1780    1.4170   -1.8220 ca        1 SDT     -0.078300
     16 CAS         8.9640    0.9300   -0.7620 ca        1 SDT      0.109100
     17 OAF         8.5260   -0.1980   -0.1030 oh        1 SDT     -0.501100
     18 CAR        10.1540    1.5920   -0.3960 ca        1 SDT      0.033100
     19 OAE        10.8600    1.0410    0.6570 oh        1 SDT     -0.521100
     20 CAH        10.5610    2.7390   -1.0790 ca        1 SDT     -0.168000
     21 CAG         9.7790    3.2200   -2.1250 ca        1 SDT     -0.132000
     22 CAQ         8.5960    2.5740   -2.5020 ca        1 SDT     -0.061300
     23 CAA         7.8030    3.1150   -3.6320 c3        1 SDT     -0.061800
     24 HAI         2.0290    0.5970    1.9750 hc        1 SDT      0.077700
     25 HAIA        2.2360   -1.1880    1.7610 hc        1 SDT      0.077700
     26 HAL         4.2690    0.7510    1.2430 hc        1 SDT      0.056200
     27 HALA        4.2500   -0.9190    0.5540 hc        1 SDT      0.056200
     28 HAV         3.1350    1.6980   -0.6170 hc        1 SDT      0.057700
     29 HAB         2.8680   -1.6040   -2.6160 hc        1 SDT      0.045033
     30 HABA        2.8920   -2.1150   -0.8770 hc        1 SDT      0.045033
     31 HABB        1.3220   -2.0570   -1.7900 hc        1 SDT      0.045033
     32 HAN         0.5550    0.1910   -2.7150 hc        1 SDT      0.058700
     33 HANA        1.1750    1.7040   -1.9490 hc        1 SDT      0.058700
     34 HAJ         2.0910    1.6680   -4.1710 hc        1 SDT      0.072200
     35 HAJA        2.5150   -0.0860   -4.0800 hc        1 SDT      0.072200
     36 HAU         4.6570   -0.5460   -2.0940 hc        1 SDT      0.078700
     37 HAM         5.6590    2.2950   -1.4700 hc        1 SDT      0.056700
     38 HAMA        5.9300    0.9340   -0.3000 hc        1 SDT      0.056700
     39 HAK         6.7150    0.8420   -3.2910 hc        1 SDT      0.060200
     40 HAKA        7.0760   -0.4060   -2.0230 hc        1 SDT      0.060200
     41 HOAF        9.2080   -0.4500    0.5390 ho        1 SDT      0.435000
     42 HOAE       11.6720    1.5540    0.7650 ho        1 SDT      0.428000
     43 HAH        11.4890    3.2540   -0.7920 ha        1 SDT      0.134000
     44 HAG        10.0980    4.1250   -2.6650 ha        1 SDT      0.136000
     45 HAA         8.1140    4.1600   -3.8780 hc        1 SDT      0.052700
     46 HAAA        7.9530    2.4810   -4.5420 hc        1 SDT      0.052700
     47 HAAB        6.7080    3.1180   -3.3910 hc        1 SDT      0.052700
@<TRIPOS>BOND
     1    1    2 2   
     2    2    3 1   
     3    2    6 1   
     4    3    4 1   
     5    3   24 1   
     6    3   25 1   
     7    4    5 1   
     8    4   26 1   
     9    4   27 1   
    10    5    6 1   
    11    5   10 1   
    12    5   28 1   
    13    6    7 1   
    14    6    8 1   
    15    7   29 1   
    16    7   30 1   
    17    7   31 1   
    18    8    9 1   
    19    8   32 1   
    20    8   33 1   
    21    9   11 1   
    22    9   34 1   
    23    9   35 1   
    24   10   11 1   
    25   10   13 1   
    26   10   36 1   
    27   11   12 2   
    28   13   14 1   
    29   13   37 1   
    30   13   38 1   
    31   14   15 1   
    32   14   39 1   
    33   14   40 1   
    34   15   16 ar  
    35   15   22 ar  
    36   16   17 1   
    37   16   18 ar  
    38   17   41 1   
    39   18   19 1   
    40   18   20 ar  
    41   19   42 1   
    42   20   21 ar  
    43   20   43 1   
    44   21   22 ar  
    45   21   44 1   
    46   22   23 1   
    47   23   45 1   
    48   23   46 1   
    49   23   47 1   
@<TRIPOS>SUBSTRUCTURE
     1 SDT         1 TEMP              0 ****  ****    0 ROOT
