@<TRIPOS>MOLECULE
SDT
   47    49     1     0     0
SMALL
bcc


@<TRIPOS>ATOM
      1 OAD        -5.6250    1.0780   -0.8200 o         1 SDT     -0.514100
      2 CAP        -4.4200    1.1470   -0.5970 c         1 SDT      0.578100
      3 CAI        -3.4950    2.2510   -1.0670 c3        1 SDT     -0.187400
      4 CAL        -2.0750    1.8200   -0.6920 c3        1 SDT     -0.072400
      5 CAV        -2.1920    0.3230   -0.4180 c3        1 SDT     -0.060700
      6 CAW        -3.5930    0.1510    0.2110 c3        1 SDT     -0.160000
      7 CAB        -3.6770    0.6060    1.6630 c3        1 SDT     -0.084100
      8 CAN        -3.9800   -1.3090    0.0850 c3        1 SDT     -0.053400
      9 CAJ        -2.9490   -2.2000    0.7520 c3        1 SDT     -0.180400
     10 CAU        -1.1340   -0.3670    0.4180 c3        1 SDT     -0.146700
     11 CAO        -1.5060   -1.8410    0.4950 c         1 SDT      0.570100
     12 OAC        -0.6570   -2.7330    0.3900 o         1 SDT     -0.538100
     13 CAM         0.2560   -0.1540   -0.1640 c3        1 SDT     -0.066400
     14 CAK         1.3440   -0.4540    0.8520 c3        1 SDT     -0.035100
     15 CAT         2.7030   -0.2870    0.2650 ca        1 SDT     -0.074300
     16 CAS         3.4810    0.8320    0.6070 ca        1 SDT      0.010100
     17 OAF         3.0220    1.8490    1.4290 oh        1 SDT     -0.524100
     18 CAR         4.7680    1.0170    0.0650 ca        1 SDT      0.115100
     19 OAE         5.5430    2.1100    0.3660 oh        1 SDT     -0.496100
     20 CAH         5.2950    0.0700   -0.8240 ca        1 SDT     -0.144000
     21 CAG         4.5290   -1.0420   -1.1490 ca        1 SDT     -0.113000
     22 CAQ         3.2440   -1.2340   -0.6210 ca        1 SDT     -0.083300
     23 CAA         2.4920   -2.4390   -1.0500 c3        1 SDT     -0.061800
     24 HAI        -3.6000    2.3840   -2.1720 hc        1 SDT      0.078700
     25 HAIA       -3.7750    3.2150   -0.5750 hc        1 SDT      0.078700
     26 HAL        -1.3580    2.0270   -1.5230 hc        1 SDT      0.055700
     27 HALA       -1.7170    2.3660    0.2160 hc        1 SDT      0.055700
     28 HAV        -2.2030   -0.1910   -1.4250 hc        1 SDT      0.058700
     29 HAB        -4.7460    0.6180    1.9880 hc        1 SDT      0.045033
     30 HABA       -3.1140   -0.0860    2.3330 hc        1 SDT      0.045033
     31 HABB       -3.2540    1.6330    1.7750 hc        1 SDT      0.045033
     32 HAN        -4.9830   -1.4800    0.5570 hc        1 SDT      0.059700
     33 HANA       -4.0730   -1.5780   -1.0000 hc        1 SDT      0.059700
     34 HAJ        -3.0940   -2.1780    1.8670 hc        1 SDT      0.073700
     35 HAJA       -3.1170   -3.2610    0.4210 hc        1 SDT      0.073700
     36 HAU        -1.1520    0.0400    1.4690 hc        1 SDT      0.076700
     37 HAM         0.3920   -0.8170   -1.0600 hc        1 SDT      0.059200
     38 HAMA        0.3530    0.9100   -0.5050 hc        1 SDT      0.059200
     39 HAK         1.2120    0.2280    1.7350 hc        1 SDT      0.052700
     40 HAKA        1.2200   -1.5060    1.2300 hc        1 SDT      0.052700
     41 HOAF        2.7540    1.4370    2.2640 ho        1 SDT      0.418000
     42 HOAE        5.0380    2.6730    0.9750 ho        1 SDT      0.434000
     43 HAH         6.2990    0.2200   -1.2430 ha        1 SDT      0.152000
     44 HAG         4.9410   -1.7930   -1.8420 ha        1 SDT      0.136000
     45 HAA         1.9980   -2.2430   -2.0360 hc        1 SDT      0.051367
     46 HAAA        3.1840   -3.3080   -1.1750 hc        1 SDT      0.051367
     47 HAAB        1.6960   -2.7280   -0.3180 hc        1 SDT      0.051367
@<TRIPOS>BOND
     1    1    2 2   
     2    2    3 1   
     3    2    6 1   
     4    3    4 1   
     5    3   24 1   
     6    3   25 1   
     7    4    5 1   
     8    4   26 1   
     9    4   27 1   
    10    5    6 1   
    11    5   10 1   
    12    5   28 1   
    13    6    7 1   
    14    6    8 1   
    15    7   29 1   
    16    7   30 1   
    17    7   31 1   
    18    8    9 1   
    19    8   32 1   
    20    8   33 1   
    21    9   11 1   
    22    9   34 1   
    23    9   35 1   
    24   10   11 1   
    25   10   13 1   
    26   10   36 1   
    27   11   12 2   
    28   13   14 1   
    29   13   37 1   
    30   13   38 1   
    31   14   15 1   
    32   14   39 1   
    33   14   40 1   
    34   15   16 ar  
    35   15   22 ar  
    36   16   17 1   
    37   16   18 ar  
    38   17   41 1   
    39   18   19 1   
    40   18   20 ar  
    41   19   42 1   
    42   20   21 ar  
    43   20   43 1   
    44   21   22 ar  
    45   21   44 1   
    46   22   23 1   
    47   23   45 1   
    48   23   46 1   
    49   23   47 1   
@<TRIPOS>SUBSTRUCTURE
     1 SDT         1 TEMP              0 ****  ****    0 ROOT
