@<TRIPOS>MOLECULE
SDT
   47    49     1     0     0
SMALL
bcc


@<TRIPOS>ATOM
      1 OAD         0.0780   -0.2210    0.1920 o         1 SDT     -0.516100
      2 CAP         1.3000   -0.1830    0.0860 c         1 SDT      0.579100
      3 CAI         2.2890   -0.2110    1.2320 c3        1 SDT     -0.188400
      4 CAL         3.6720    0.0290    0.6220 c3        1 SDT     -0.072400
      5 CAV         3.3830    0.6030   -0.7620 c3        1 SDT     -0.059700
      6 CAW         2.0910   -0.1140   -1.2170 c3        1 SDT     -0.160000
      7 CAB         2.3090   -1.5550   -1.6600 c3        1 SDT     -0.084100
      8 CAN         1.4790    0.7020   -2.3390 c3        1 SDT     -0.052400
      9 CAJ         2.4640    0.8730   -3.4810 c3        1 SDT     -0.181400
     10 CAU         4.4480    0.5340   -1.8370 c3        1 SDT     -0.145700
     11 CAO         3.8800    1.2060   -3.0780 c         1 SDT      0.570100
     12 OAC         4.5530    1.9800   -3.7670 o         1 SDT     -0.539100
     13 CAM         5.7460    1.1810   -1.3800 c3        1 SDT     -0.065400
     14 CAK         6.9300    0.6990   -2.2000 c3        1 SDT     -0.031100
     15 CAT         8.1760    1.4190   -1.8220 ca        1 SDT     -0.078300
     16 CAS         8.9630    0.9280   -0.7640 ca        1 SDT      0.109100
     17 OAF         8.5250   -0.2020   -0.1090 oh        1 SDT     -0.501100
     18 CAR        10.1530    1.5890   -0.3960 ca        1 SDT      0.033100
     19 OAE        10.8590    1.0330    0.6540 oh        1 SDT     -0.521100
     20 CAH        10.5600    2.7380   -1.0750 ca        1 SDT     -0.168000
     21 CAG         9.7780    3.2230   -2.1190 ca        1 SDT     -0.132000
     22 CAQ         8.5950    2.5780   -2.4980 ca        1 SDT     -0.061300
     23 CAA         7.8010    3.1240   -3.6250 c3        1 SDT     -0.061800
     24 HAI         2.0290    0.5850    1.9740 hc        1 SDT      0.077700
     25 HAIA        2.2360   -1.1990    1.7530 hc        1 SDT      0.077700
     26 HAL         4.2680    0.7420    1.2420 hc        1 SDT      0.056200
     27 HALA        4.2490   -0.9260    0.5460 hc        1 SDT      0.056200
     28 HAV         3.1340    1.6960   -0.6150 hc        1 SDT      0.057700
     29 HAB         2.8910   -2.1160   -0.8890 hc        1 SDT      0.045033
     30 HABA        2.8660   -1.5990   -2.6260 hc        1 SDT      0.045033
     31 HABB        1.3200   -2.0550   -1.8010 hc        1 SDT      0.045033
     32 HAN         1.1730    1.7070   -1.9460 hc        1 SDT      0.058700
     33 HANA        0.5530    0.1970   -2.7170 hc        1 SDT      0.058700
     34 HAJ         2.0880    1.6800   -4.1680 hc        1 SDT      0.072200
     35 HAJA        2.5130   -0.0750   -4.0840 hc        1 SDT      0.072200
     36 HAU         4.6550   -0.5420   -2.1000 hc        1 SDT      0.078700
     37 HAM         5.6580    2.2960   -1.4660 hc        1 SDT      0.056700
     38 HAMA        5.9290    0.9310   -0.3020 hc        1 SDT      0.056700
     39 HAK         6.7120    0.8500   -3.2930 hc        1 SDT      0.060200
     40 HAKA        7.0740   -0.4030   -2.0300 hc        1 SDT      0.060200
     41 HOAF        9.2070   -0.4570    0.5310 ho        1 SDT      0.435000
     42 HOAE       11.6710    1.5460    0.7640 ho        1 SDT      0.428000
     43 HAH        11.4880    3.2520   -0.7860 ha        1 SDT      0.134000
     44 HAG        10.0970    4.1300   -2.6550 ha        1 SDT      0.136000
     45 HAA         8.1120    4.1700   -3.8680 hc        1 SDT      0.052700
     46 HAAA        6.7060    3.1260   -3.3840 hc        1 SDT      0.052700
     47 HAAB        7.9500    2.4930   -4.5380 hc        1 SDT      0.052700
@<TRIPOS>BOND
     1    1    2 2   
     2    2    3 1   
     3    2    6 1   
     4    3    4 1   
     5    3   24 1   
     6    3   25 1   
     7    4    5 1   
     8    4   26 1   
     9    4   27 1   
    10    5    6 1   
    11    5   10 1   
    12    5   28 1   
    13    6    7 1   
    14    6    8 1   
    15    7   29 1   
    16    7   30 1   
    17    7   31 1   
    18    8    9 1   
    19    8   32 1   
    20    8   33 1   
    21    9   11 1   
    22    9   34 1   
    23    9   35 1   
    24   10   11 1   
    25   10   13 1   
    26   10   36 1   
    27   11   12 2   
    28   13   14 1   
    29   13   37 1   
    30   13   38 1   
    31   14   15 1   
    32   14   39 1   
    33   14   40 1   
    34   15   16 ar  
    35   15   22 ar  
    36   16   17 1   
    37   16   18 ar  
    38   17   41 1   
    39   18   19 1   
    40   18   20 ar  
    41   19   42 1   
    42   20   21 ar  
    43   20   43 1   
    44   21   22 ar  
    45   21   44 1   
    46   22   23 1   
    47   23   45 1   
    48   23   46 1   
    49   23   47 1   
@<TRIPOS>SUBSTRUCTURE
     1 SDT         1 TEMP              0 ****  ****    0 ROOT
