@<TRIPOS>MOLECULE
SDZ
   62    65     1     0     0
SMALL
bcc


@<TRIPOS>ATOM
      1 N1          0.7600   -0.4910   -7.7120 nb        1 SDZ     -0.710000
      2 C2          0.8800   -0.2430   -9.0250 ca        1 SDZ      0.421200
      3 C3          0.3430    0.8820   -9.6720 ca        1 SDZ     -0.276300
      4 C4         -0.3520    1.8080   -8.8950 ca        1 SDZ     -0.077000
      5 C5         -0.4910    1.5930   -7.5280 ca        1 SDZ     -0.262300
      6 C6          0.0820    0.4210   -6.9460 ca        1 SDZ      0.615200
      7 N2         -0.0010    0.2630   -5.5290 nh        1 SDZ     -0.731300
      8 C7          0.8370   -0.7710   -4.9360 c3        1 SDZ      0.184300
      9 C8          0.7980   -0.7360   -3.3940 c3        1 SDZ      0.160300
     10 N3         -0.5520   -0.7320   -2.8510 n3        1 SDZ     -0.731600
     11 C9         -1.3630    0.2290   -5.0120 c3        1 SDZ      0.184300
     12 C10        -1.3970    0.2800   -3.4720 c3        1 SDZ      0.160300
     13 C11        -0.5970   -0.6300   -1.4010 c3        1 SDZ      0.134800
     14 C12         0.3290   -1.6000   -0.6510 c3        1 SDZ      0.139100
     15 O1          0.2800   -2.9320   -1.1250 oh        1 SDZ     -0.588800
     16 C13        -0.0370   -1.6030    0.8420 c3        1 SDZ      0.095400
     17 O2          0.3260   -0.3120    1.3390 os        1 SDZ     -0.332900
     18 C14         0.1750   -0.1290    2.7010 ca        1 SDZ      0.122100
     19 C15         0.6110    1.1210    3.1770 ca        1 SDZ     -0.177500
     20 C16         0.4930    1.4100    4.5310 ca        1 SDZ     -0.094000
     21 C17        -0.0520    0.4760    5.4230 ca        1 SDZ     -0.105300
     22 C18        -0.4790   -0.7610    4.9320 ca        1 SDZ     -0.094000
     23 C19        -0.3720   -1.0730    3.5770 ca        1 SDZ     -0.177500
     24 C20        -0.1670    0.8110    6.8750 c3        1 SDZ     -0.015400
     25 C21        -1.6230    0.8010    7.3280 c3        1 SDZ     -0.071400
     26 C22        -1.7380    1.1390    8.8000 c3        1 SDZ     -0.077400
     27 C23        -0.9040    0.2030    9.6500 c3        1 SDZ     -0.077400
     28 C24         0.5420    0.1940    9.1980 c3        1 SDZ     -0.077400
     29 C25         0.6600   -0.1460    7.7270 c3        1 SDZ     -0.071400
     30 H2          1.4410   -1.0080   -9.5930 h4        1 SDZ      0.020100
     31 H3          0.4730    1.0220  -10.7520 ha        1 SDZ      0.143000
     32 H4         -0.7860    2.7080   -9.3560 ha        1 SDZ      0.136000
     33 H5         -1.0190    2.3270   -6.9050 ha        1 SDZ      0.146000
     34 H71         1.9010   -0.5910   -5.2540 h1        1 SDZ      0.051700
     35 H72         0.5340   -1.8010   -5.2810 h1        1 SDZ      0.051700
     36 H81         1.3940    0.1530   -3.0340 h1        1 SDZ      0.043700
     37 H82         1.3060   -1.6740   -3.0270 h1        1 SDZ      0.043700
     38 H91        -1.9230    1.1260   -5.3950 h1        1 SDZ      0.051700
     39 H92        -1.9070   -0.6980   -5.3570 h1        1 SDZ      0.051700
     40 H101       -2.4590    0.0870   -3.1500 h1        1 SDZ      0.043700
     41 H102       -1.1170    1.3220   -3.1380 h1        1 SDZ      0.043700
     42 H111       -1.6630   -0.8460   -1.1000 h1        1 SDZ      0.047700
     43 H112       -0.3410    0.4070   -1.0310 h1        1 SDZ      0.047700
     44 H12         1.4060   -1.2910   -0.7690 h1        1 SDZ      0.087700
     45 HO1        -0.6300   -3.1190   -1.3850 ho        1 SDZ      0.412000
     46 H131       -1.1350   -1.7710    0.9910 h1        1 SDZ      0.049200
     47 H132        0.5450   -2.4020    1.3700 h1        1 SDZ      0.049200
     48 H15         1.0390    1.8490    2.4740 ha        1 SDZ      0.142000
     49 H16         0.8340    2.3880    4.9040 ha        1 SDZ      0.134000
     50 H18        -0.9090   -1.5040    5.6220 ha        1 SDZ      0.134000
     51 H19        -0.7150   -2.0520    3.2170 ha        1 SDZ      0.142000
     52 H20         0.2360    1.8530    7.0400 hc        1 SDZ      0.051700
     53 H211       -2.2070    1.5430    6.7240 hc        1 SDZ      0.042700
     54 H212       -2.0660   -0.2120    7.1390 hc        1 SDZ      0.042700
     55 H221       -1.4010    2.1960    8.9680 hc        1 SDZ      0.039700
     56 H222       -2.8120    1.0760    9.1140 hc        1 SDZ      0.039700
     57 H231       -0.9610    0.5190   10.7240 hc        1 SDZ      0.038700
     58 H232       -1.3230   -0.8360    9.5810 hc        1 SDZ      0.038700
     59 H241        0.9980    1.2010    9.3870 hc        1 SDZ      0.039700
     60 H242        1.1190   -0.5550    9.8010 hc        1 SDZ      0.039700
     61 H251        0.3100   -1.1980    7.5540 hc        1 SDZ      0.042700
     62 H252        1.7340   -0.0920    7.4120 hc        1 SDZ      0.042700
@<TRIPOS>BOND
     1    1    2 ar  
     2    1    6 ar  
     3    2    3 ar  
     4    2   30 1   
     5    3    4 ar  
     6    3   31 1   
     7    4    5 ar  
     8    4   32 1   
     9    5    6 ar  
    10    5   33 1   
    11    6    7 1   
    12    7    8 1   
    13    7   11 1   
    14    8    9 1   
    15    8   34 1   
    16    8   35 1   
    17    9   10 1   
    18    9   36 1   
    19    9   37 1   
    20   10   12 1   
    21   10   13 1   
    22   11   12 1   
    23   11   38 1   
    24   11   39 1   
    25   12   40 1   
    26   12   41 1   
    27   13   14 1   
    28   13   42 1   
    29   13   43 1   
    30   14   15 1   
    31   14   16 1   
    32   14   44 1   
    33   15   45 1   
    34   16   17 1   
    35   16   46 1   
    36   16   47 1   
    37   17   18 1   
    38   18   19 ar  
    39   18   23 ar  
    40   19   20 ar  
    41   19   48 1   
    42   20   21 ar  
    43   20   49 1   
    44   21   22 ar  
    45   21   24 1   
    46   22   23 ar  
    47   22   50 1   
    48   23   51 1   
    49   24   25 1   
    50   24   29 1   
    51   24   52 1   
    52   25   26 1   
    53   25   53 1   
    54   25   54 1   
    55   26   27 1   
    56   26   55 1   
    57   26   56 1   
    58   27   28 1   
    59   27   57 1   
    60   27   58 1   
    61   28   29 1   
    62   28   59 1   
    63   28   60 1   
    64   29   61 1   
    65   29   62 1   
@<TRIPOS>SUBSTRUCTURE
     1 SDZ         1 TEMP              0 ****  ****    0 ROOT
