@<TRIPOS>MOLECULE
SDZ
   62    65     1     0     0
SMALL
bcc


@<TRIPOS>ATOM
      1 N1         -1.4590   -1.5660   -0.3530 nb        1 SDZ     -0.711000
      2 C2         -0.5480   -2.5460   -0.2710 ca        1 SDZ      0.421200
      3 C3          0.3210   -2.7330    0.8170 ca        1 SDZ     -0.275300
      4 C4          0.2210   -1.8460    1.8880 ca        1 SDZ     -0.077000
      5 C5         -0.7180   -0.8210    1.8470 ca        1 SDZ     -0.262300
      6 C6         -1.5630   -0.6960    0.7020 ca        1 SDZ      0.615200
      7 N2         -2.5750    0.3120    0.7180 nh        1 SDZ     -0.731300
      8 C7         -3.5960    0.2280   -0.3180 c3        1 SDZ      0.183300
      9 C8         -4.7260    1.2540   -0.0980 c3        1 SDZ      0.164800
     10 N3         -4.2420    2.6130    0.0930 n3        1 SDZ     -0.732600
     11 C9         -2.0630    1.6680    0.8730 c3        1 SDZ      0.183300
     12 C10        -3.1930    2.6920    1.1000 c3        1 SDZ      0.164800
     13 C11        -5.3060    3.5700    0.3490 c3        1 SDZ      0.169800
     14 C12        -6.2070    3.8250   -0.8760 c3        1 SDZ      0.142100
     15 O1         -6.4200    5.2300   -0.9050 oh        1 SDZ     -0.602800
     16 C13        -7.5460    3.0940   -0.7170 c3        1 SDZ      0.085400
     17 O2         -8.2330    3.3000   -1.9560 os        1 SDZ     -0.343900
     18 C14        -9.4850    2.7240   -2.0570 ca        1 SDZ      0.123100
     19 C15       -10.1300    2.9290   -3.2910 ca        1 SDZ     -0.177500
     20 C16       -11.3940    2.3910   -3.4940 ca        1 SDZ     -0.093500
     21 C17       -12.0320    1.6500   -2.4880 ca        1 SDZ     -0.105300
     22 C18       -11.3760    1.4560   -1.2690 ca        1 SDZ     -0.093500
     23 C19       -10.1070    1.9870   -1.0440 ca        1 SDZ     -0.177500
     24 C20       -13.3930    1.0820   -2.7320 c3        1 SDZ     -0.016400
     25 C21       -13.3760   -0.4410   -2.6440 c3        1 SDZ     -0.071400
     26 C22       -14.7560   -1.0150   -2.8890 c3        1 SDZ     -0.077400
     27 C23       -15.7760   -0.4330   -1.9320 c3        1 SDZ     -0.077400
     28 C24       -15.7900    1.0800   -2.0000 c3        1 SDZ     -0.077400
     29 C25       -14.4120    1.6580   -1.7530 c3        1 SDZ     -0.071400
     30 H2         -0.5110   -3.2210   -1.1460 h4        1 SDZ      0.020100
     31 H3          1.0490   -3.5530    0.8170 ha        1 SDZ      0.144000
     32 H4          0.8760   -1.9550    2.7650 ha        1 SDZ      0.137000
     33 H5         -0.8180   -0.1300    2.6950 ha        1 SDZ      0.146000
     34 H71        -3.1610    0.3840   -1.3470 h1        1 SDZ      0.052450
     35 H72        -4.0560   -0.7990   -0.2810 h1        1 SDZ      0.052450
     36 H81        -5.3680    1.2480   -1.0250 h1        1 SDZ      0.039200
     37 H82        -5.3650    0.9130    0.7690 h1        1 SDZ      0.039200
     38 H91        -1.3860    1.7030    1.7700 h1        1 SDZ      0.052450
     39 H92        -1.4640    1.9830   -0.0310 h1        1 SDZ      0.052450
     40 H101       -3.6040    2.5520    2.1430 h1        1 SDZ      0.039200
     41 H102       -2.7340    3.7180    1.0420 h1        1 SDZ      0.039200
     42 H111       -4.8300    4.5570    0.6220 h1        1 SDZ      0.050700
     43 H112       -5.9560    3.2560    1.2180 h1        1 SDZ      0.050700
     44 H12        -5.7150    3.5040   -1.8370 h1        1 SDZ      0.070700
     45 HO1        -7.0140    5.4010   -1.6470 ho        1 SDZ      0.417000
     46 H131       -7.3830    1.9990   -0.5460 h1        1 SDZ      0.051200
     47 H132       -8.1430    3.5360    0.1220 h1        1 SDZ      0.051200
     48 H15        -9.6260    3.5100   -4.0760 ha        1 SDZ      0.141500
     49 H16       -11.8990    2.5520   -4.4590 ha        1 SDZ      0.134500
     50 H18       -11.8660    0.8760   -0.4710 ha        1 SDZ      0.134500
     51 H19        -9.6130    1.8200   -0.0760 ha        1 SDZ      0.141500
     52 H20       -13.7230    1.3620   -3.7740 hc        1 SDZ      0.051700
     53 H211      -12.6580   -0.8490   -3.4010 hc        1 SDZ      0.042700
     54 H212      -13.0130   -0.7530   -1.6300 hc        1 SDZ      0.042700
     55 H221      -14.7220   -2.1300   -2.7700 hc        1 SDZ      0.039700
     56 H222      -15.0690   -0.7990   -3.9450 hc        1 SDZ      0.039700
     57 H231      -15.5340   -0.7580   -0.8860 hc        1 SDZ      0.038700
     58 H232      -16.7940   -0.8300   -2.1810 hc        1 SDZ      0.038700
     59 H241      -16.1570    1.4050   -3.0090 hc        1 SDZ      0.039700
     60 H242      -16.5050    1.4840   -1.2360 hc        1 SDZ      0.039700
     61 H251      -14.0910    1.4300   -0.7030 hc        1 SDZ      0.042700
     62 H252      -14.4440    2.7720   -1.8630 hc        1 SDZ      0.042700
@<TRIPOS>BOND
     1    1    2 ar  
     2    1    6 ar  
     3    2    3 ar  
     4    2   30 1   
     5    3    4 ar  
     6    3   31 1   
     7    4    5 ar  
     8    4   32 1   
     9    5    6 ar  
    10    5   33 1   
    11    6    7 1   
    12    7    8 1   
    13    7   11 1   
    14    8    9 1   
    15    8   34 1   
    16    8   35 1   
    17    9   10 1   
    18    9   36 1   
    19    9   37 1   
    20   10   12 1   
    21   10   13 1   
    22   11   12 1   
    23   11   38 1   
    24   11   39 1   
    25   12   40 1   
    26   12   41 1   
    27   13   14 1   
    28   13   42 1   
    29   13   43 1   
    30   14   15 1   
    31   14   16 1   
    32   14   44 1   
    33   15   45 1   
    34   16   17 1   
    35   16   46 1   
    36   16   47 1   
    37   17   18 1   
    38   18   19 ar  
    39   18   23 ar  
    40   19   20 ar  
    41   19   48 1   
    42   20   21 ar  
    43   20   49 1   
    44   21   22 ar  
    45   21   24 1   
    46   22   23 ar  
    47   22   50 1   
    48   23   51 1   
    49   24   25 1   
    50   24   29 1   
    51   24   52 1   
    52   25   26 1   
    53   25   53 1   
    54   25   54 1   
    55   26   27 1   
    56   26   55 1   
    57   26   56 1   
    58   27   28 1   
    59   27   57 1   
    60   27   58 1   
    61   28   29 1   
    62   28   59 1   
    63   28   60 1   
    64   29   61 1   
    65   29   62 1   
@<TRIPOS>SUBSTRUCTURE
     1 SDZ         1 TEMP              0 ****  ****    0 ROOT
