@<TRIPOS>MOLECULE
SDZ
   62    65     1     0     0
SMALL
bcc


@<TRIPOS>ATOM
      1 N1         -1.4990   -1.6280   -0.2810 nb        1 SDZ     -0.711000
      2 C2         -0.6010   -2.6180   -0.1640 ca        1 SDZ      0.421200
      3 C3          0.2720   -2.7720    0.9250 ca        1 SDZ     -0.275300
      4 C4          0.1930   -1.8390    1.9590 ca        1 SDZ     -0.077000
      5 C5         -0.7310   -0.8030    1.8810 ca        1 SDZ     -0.262300
      6 C6         -1.5820   -0.7130    0.7370 ca        1 SDZ      0.615200
      7 N2         -2.5800    0.3090    0.7170 nh        1 SDZ     -0.731300
      8 C7         -3.6090    0.1970   -0.3070 c3        1 SDZ      0.183300
      9 C8         -4.7220    1.2490   -0.1240 c3        1 SDZ      0.164800
     10 N3         -4.2160    2.6070    0.0070 n3        1 SDZ     -0.732600
     11 C9         -2.0460    1.6630    0.8110 c3        1 SDZ      0.183300
     12 C10        -3.1590    2.7120    1.0030 c3        1 SDZ      0.164800
     13 C11        -5.2650    3.5900    0.2300 c3        1 SDZ      0.169800
     14 C12        -6.1710    3.8060   -0.9990 c3        1 SDZ      0.142100
     15 O1         -6.3640    5.2110   -1.0850 oh        1 SDZ     -0.602800
     16 C13        -7.5190    3.1020   -0.8000 c3        1 SDZ      0.085400
     17 O2         -8.2120    3.2650   -2.0420 os        1 SDZ     -0.343900
     18 C14        -9.4720    2.7000   -2.1120 ca        1 SDZ      0.123100
     19 C15       -10.1200    2.8580   -3.3500 ca        1 SDZ     -0.177500
     20 C16       -11.3920    2.3280   -3.5220 ca        1 SDZ     -0.093500
     21 C17       -12.0330    1.6390   -2.4830 ca        1 SDZ     -0.105300
     22 C18       -11.3730    1.4900   -1.2600 ca        1 SDZ     -0.093500
     23 C19       -10.0960    2.0150   -1.0640 ca        1 SDZ     -0.177500
     24 C20       -13.4020    1.0760   -2.6940 c3        1 SDZ     -0.016400
     25 C21       -13.4020   -0.4410   -2.5400 c3        1 SDZ     -0.071400
     26 C22       -14.7900   -1.0100   -2.7540 c3        1 SDZ     -0.077400
     27 C23       -15.7970   -0.3750   -1.8180 c3        1 SDZ     -0.077400
     28 C24       -15.7950    1.1340   -1.9510 c3        1 SDZ     -0.077400
     29 C25       -14.4080    1.7060   -1.7360 c3        1 SDZ     -0.071400
     30 H2         -0.5810   -3.3300   -1.0100 h4        1 SDZ      0.020100
     31 H3          0.9880   -3.6020    0.9560 ha        1 SDZ      0.144000
     32 H4          0.8530   -1.9210    2.8360 ha        1 SDZ      0.137000
     33 H5         -0.8150   -0.0750    2.7000 ha        1 SDZ      0.146000
     34 H71        -4.0830   -0.8200   -0.2250 h1        1 SDZ      0.052450
     35 H72        -3.1790    0.3030   -1.3450 h1        1 SDZ      0.052450
     36 H81        -5.3600    0.9530    0.7610 h1        1 SDZ      0.039200
     37 H82        -5.3700    1.2140   -1.0450 h1        1 SDZ      0.039200
     38 H91        -1.3620    1.7250    1.7020 h1        1 SDZ      0.052450
     39 H92        -1.4500    1.9310   -0.1080 h1        1 SDZ      0.052450
     40 H101       -3.5650    2.6220    2.0530 h1        1 SDZ      0.039200
     41 H102       -2.6860    3.7280    0.8980 h1        1 SDZ      0.039200
     42 H111       -4.7720    4.5800    0.4580 h1        1 SDZ      0.050700
     43 H112       -5.9130    3.3220    1.1160 h1        1 SDZ      0.050700
     44 H12        -5.6910    3.4380   -1.9480 h1        1 SDZ      0.070700
     45 HO1        -6.9620    5.3600   -1.8290 ho        1 SDZ      0.417000
     46 H131       -7.3700    2.0130   -0.5830 h1        1 SDZ      0.051200
     47 H132       -8.1040    3.5870    0.0240 h1        1 SDZ      0.051200
     48 H15        -9.6140    3.3980   -4.1620 ha        1 SDZ      0.141500
     49 H16       -11.9010    2.4510   -4.4910 ha        1 SDZ      0.134500
     50 H18       -11.8650    0.9510   -0.4350 ha        1 SDZ      0.134500
     51 H19        -9.6000    1.8850   -0.0930 ha        1 SDZ      0.141500
     52 H20       -13.7340    1.3150   -3.7460 hc        1 SDZ      0.051700
     53 H211      -12.6920   -0.8910   -3.2820 hc        1 SDZ      0.042700
     54 H212      -13.0370   -0.7130   -1.5150 hc        1 SDZ      0.042700
     55 H221      -15.1060   -0.8360   -3.8160 hc        1 SDZ      0.039700
     56 H222      -14.7680   -2.1180   -2.5860 hc        1 SDZ      0.039700
     57 H231      -15.5530   -0.6560   -0.7600 hc        1 SDZ      0.038700
     58 H232      -16.8220   -0.7700   -2.0440 hc        1 SDZ      0.038700
     59 H241      -16.1630    1.4200   -2.9710 hc        1 SDZ      0.039700
     60 H242      -16.5000    1.5790   -1.2020 hc        1 SDZ      0.039700
     61 H251      -14.0840    1.5210   -0.6790 hc        1 SDZ      0.042700
     62 H252      -14.4290    2.8150   -1.8950 hc        1 SDZ      0.042700
@<TRIPOS>BOND
     1    1    2 ar  
     2    1    6 ar  
     3    2    3 ar  
     4    2   30 1   
     5    3    4 ar  
     6    3   31 1   
     7    4    5 ar  
     8    4   32 1   
     9    5    6 ar  
    10    5   33 1   
    11    6    7 1   
    12    7    8 1   
    13    7   11 1   
    14    8    9 1   
    15    8   34 1   
    16    8   35 1   
    17    9   10 1   
    18    9   36 1   
    19    9   37 1   
    20   10   12 1   
    21   10   13 1   
    22   11   12 1   
    23   11   38 1   
    24   11   39 1   
    25   12   40 1   
    26   12   41 1   
    27   13   14 1   
    28   13   42 1   
    29   13   43 1   
    30   14   15 1   
    31   14   16 1   
    32   14   44 1   
    33   15   45 1   
    34   16   17 1   
    35   16   46 1   
    36   16   47 1   
    37   17   18 1   
    38   18   19 ar  
    39   18   23 ar  
    40   19   20 ar  
    41   19   48 1   
    42   20   21 ar  
    43   20   49 1   
    44   21   22 ar  
    45   21   24 1   
    46   22   23 ar  
    47   22   50 1   
    48   23   51 1   
    49   24   25 1   
    50   24   29 1   
    51   24   52 1   
    52   25   26 1   
    53   25   53 1   
    54   25   54 1   
    55   26   27 1   
    56   26   55 1   
    57   26   56 1   
    58   27   28 1   
    59   27   57 1   
    60   27   58 1   
    61   28   29 1   
    62   28   59 1   
    63   28   60 1   
    64   29   61 1   
    65   29   62 1   
@<TRIPOS>SUBSTRUCTURE
     1 SDZ         1 TEMP              0 ****  ****    0 ROOT
