@<TRIPOS>MOLECULE
SE0
   52    53     1     0     0
SMALL
bcc


@<TRIPOS>ATOM
      1 N           0.9530   -0.0160   -0.7450 n4        1 SE0     -0.825600
      2 CA          1.9450    1.0670   -0.5040 c3        1 SE0     -0.122500
      3 C           2.1450    1.2700    1.0940 c         1 SE0      0.947600
      4 O           2.7160    2.3230    1.4100 o         1 SE0     -0.745800
      5 CB          1.5540    2.4030   -1.1130 c3        1 SE0      0.136400
      6 OG          1.1720    2.1880   -2.4850 os        1 SE0     -0.453900
      7 OXT         1.6960    0.3210    1.7800 o         1 SE0     -0.745800
      8 S1          0.8710   -0.7180   -3.9670 ss        1 SE0     -0.467200
      9 C2          0.8270   -2.0510   -5.1610 c3        1 SE0      0.081900
     10 C3          1.2120   -1.6110   -6.5220 ce        1 SE0     -0.274800
     11 C3'         0.5350   -1.9990   -7.6130 c2        1 SE0     -0.092000
     12 C4          2.4400   -0.8030   -6.6250 ce        1 SE0      0.473600
     13 C4'         2.9180   -0.4130   -8.0600 c         1 SE0      0.854300
     14 O4A         2.7160    0.8360   -8.2630 o         1 SE0     -0.760800
     15 O4B         3.3490   -1.2460   -8.8610 o         1 SE0     -0.760800
     16 N5          3.0350   -0.1980   -5.6410 n2        1 SE0     -0.669900
     17 C6          2.3200    0.2450   -4.5020 c3        1 SE0      0.266600
     18 C7          1.7560    1.7090   -4.7430 c3        1 SE0      0.064500
     19 C8          2.0540    2.4920   -3.4700 c         1 SE0      0.625100
     20 O9          2.9600    3.3040   -3.2960 o         1 SE0     -0.503000
     21 N10         2.3180    2.3980   -5.9430 n4        1 SE0     -0.705800
     22 C11         1.4280    3.4320   -6.5670 c         1 SE0      0.562100
     23 O12         0.3830    3.7160   -5.9960 o         1 SE0     -0.462100
     24 C13         1.9400    3.9550   -7.8830 c3        1 SE0     -0.150400
     25 C14         1.0340    5.0310   -8.4350 c3        1 SE0      0.006400
     26 C15         1.1260    6.3500   -7.6880 c3        1 SE0     -0.090400
     27 C16         0.9410    7.4940   -8.6720 c3        1 SE0     -0.080400
     28 C17         1.5560    7.1120   -9.9980 c3        1 SE0     -0.012300
     29 S19         1.4940    5.3430  -10.1310 ss        1 SE0     -0.274200
     30 HN          0.9980   -0.6400    0.0880 hn        1 SE0      0.452467
     31 HNA         0.0170    0.3830   -0.8050 hn        1 SE0      0.452467
     32 HA          2.9360    0.7190   -0.9050 hx        1 SE0      0.094700
     33 HB          0.6330    2.8360   -0.6380 h1        1 SE0      0.114700
     34 HBA         2.4120    3.1200   -1.0100 h1        1 SE0      0.114700
     35 H2         -0.2240   -2.4340   -5.1260 h1        1 SE0      0.089700
     36 H2A         1.5150   -2.8620   -4.8130 h1        1 SE0      0.089700
     37 H3'        -0.3630   -2.6280   -7.5510 ha        1 SE0      0.142500
     38 H3'A        0.8600   -1.7180   -8.6290 ha        1 SE0      0.142500
     39 H6          3.0240    0.2660   -3.6250 h2        1 SE0      0.103700
     40 H7          0.6300    1.6310   -4.8770 hx        1 SE0      0.157700
     41 HN10        3.2130    2.8320   -5.6890 hn        1 SE0      0.504800
     42 H13         1.9990    3.0820   -8.6070 hc        1 SE0      0.132200
     43 H13A        2.9860    4.3470   -7.7560 hc        1 SE0      0.132200
     44 H14        -0.0260    4.6620   -8.4250 h1        1 SE0      0.095700
     45 H15         0.3460    6.3950   -6.8850 hc        1 SE0      0.060200
     46 H15A        2.1270    6.4440   -7.1900 hc        1 SE0      0.060200
     47 H16        -0.1530    7.7050   -8.8050 hc        1 SE0      0.063200
     48 H16A        1.4150    8.4270   -8.2710 hc        1 SE0      0.063200
     49 H17         0.9960    7.5560  -10.8550 h1        1 SE0      0.078200
     50 H17A        2.6170    7.4520  -10.0670 h1        1 SE0      0.078200
     51 HN3         1.1530   -0.5320   -1.6100 hn        1 SE0      0.452467
     52 H102        2.5280    1.6820   -6.7390 hn        1 SE0      0.504800
@<TRIPOS>BOND
     1    1    2 1   
     2    1   30 1   
     3    1   31 1   
     4    1   51 1   
     5    2    3 1   
     6    2    5 1   
     7    2   32 1   
     8    3    4 1   
     9    3    7 1   
    10    5    6 1   
    11    5   33 1   
    12    5   34 1   
    13    6   19 1   
    14    8    9 1   
    15    8   17 1   
    16    9   10 1   
    17    9   35 1   
    18    9   36 1   
    19   10   11 2   
    20   10   12 1   
    21   11   37 1   
    22   11   38 1   
    23   12   13 1   
    24   12   16 2   
    25   13   14 1   
    26   13   15 1   
    27   16   17 1   
    28   17   18 1   
    29   17   39 1   
    30   18   19 1   
    31   18   21 1   
    32   18   40 1   
    33   19   20 2   
    34   21   22 1   
    35   21   41 1   
    36   21   52 1   
    37   22   23 2   
    38   22   24 1   
    39   24   25 1   
    40   24   42 1   
    41   24   43 1   
    42   25   26 1   
    43   25   29 1   
    44   25   44 1   
    45   26   27 1   
    46   26   45 1   
    47   26   46 1   
    48   27   28 1   
    49   27   47 1   
    50   27   48 1   
    51   28   29 1   
    52   28   49 1   
    53   28   50 1   
@<TRIPOS>SUBSTRUCTURE
     1 SE0         1 TEMP              0 ****  ****    0 ROOT
