@<TRIPOS>MOLECULE
SE0
   52    53     1     0     0
SMALL
bcc


@<TRIPOS>ATOM
      1 N           0.8910   -0.0310   -0.7600 n4        1 SE0     -0.825600
      2 CA          1.8740    1.0570   -0.5000 c3        1 SE0     -0.122500
      3 C           2.0460    1.2570    1.1020 c         1 SE0      0.947600
      4 O           2.6070    2.3120    1.4290 o         1 SE0     -0.745800
      5 CB          1.4860    2.3920   -1.1120 c3        1 SE0      0.136400
      6 OG          1.1270    2.1790   -2.4910 os        1 SE0     -0.453900
      7 OXT         1.5910    0.3040    1.7780 o         1 SE0     -0.745800
      8 S1          0.8640   -0.7260   -3.9850 ss        1 SE0     -0.467200
      9 C2          0.8460   -2.0560   -5.1820 c3        1 SE0      0.081900
     10 C3          1.2510   -1.6100   -6.5360 ce        1 SE0     -0.274800
     11 C3'         0.5940   -1.9980   -7.6390 c2        1 SE0     -0.092000
     12 C4          2.4760   -0.7960   -6.6170 ce        1 SE0      0.473600
     13 C4'         2.9760   -0.4000   -8.0430 c         1 SE0      0.854300
     14 O4A         2.7700    0.8490   -8.2470 o         1 SE0     -0.760800
     15 O4B         3.4240   -1.2290   -8.8400 o         1 SE0     -0.760800
     16 N5          3.0520   -0.1910   -5.6230 n2        1 SE0     -0.669900
     17 C6          2.3170    0.2460   -4.4940 c3        1 SE0      0.266600
     18 C7          1.7500    1.7080   -4.7400 c3        1 SE0      0.064500
     19 C8          2.0240    2.4890   -3.4610 c         1 SE0      0.625100
     20 O9          2.9220    3.3050   -3.2700 o         1 SE0     -0.503000
     21 N10         2.3280    2.4030   -5.9300 n4        1 SE0     -0.705800
     22 C11         1.4430    3.4340   -6.5650 c         1 SE0      0.562100
     23 O12         0.3870    3.7110   -6.0110 o         1 SE0     -0.462100
     24 C13         1.9740    3.9630   -7.8710 c3        1 SE0     -0.150400
     25 C14         1.0720    5.0360   -8.4350 c3        1 SE0      0.006400
     26 C15         1.1440    6.3530   -7.6820 c3        1 SE0     -0.090400
     27 C16         0.9700    7.5000   -8.6640 c3        1 SE0     -0.080400
     28 C17         1.6100    7.1270   -9.9810 c3        1 SE0     -0.012300
     29 S19         1.5610    5.3580  -10.1220 ss        1 SE0     -0.274200
     30 HN         -0.0460    0.3640   -0.8340 hn        1 SE0      0.452467
     31 HNA         0.9250   -0.6560    0.0720 hn        1 SE0      0.452467
     32 HA          2.8720    0.7150   -0.8850 hx        1 SE0      0.094700
     33 HB          2.3380    3.1130   -0.9940 h1        1 SE0      0.114700
     34 HBA         0.5550    2.8200   -0.6510 h1        1 SE0      0.114700
     35 H2         -0.2030   -2.4430   -5.1650 h1        1 SE0      0.089700
     36 H2A         1.5330   -2.8640   -4.8250 h1        1 SE0      0.089700
     37 H3'        -0.3030   -2.6320   -7.5920 ha        1 SE0      0.142500
     38 H3'A        0.9330   -1.7130   -8.6490 ha        1 SE0      0.142500
     39 H6          3.0070    0.2690   -3.6060 h2        1 SE0      0.103700
     40 H7          0.6270    1.6250   -4.8930 hx        1 SE0      0.157700
     41 HN10        3.2160    2.8410   -5.6600 hn        1 SE0      0.504800
     42 H13         3.0160    4.3610   -7.7250 hc        1 SE0      0.132200
     43 H13A        2.0500    3.0930   -8.5970 hc        1 SE0      0.132200
     44 H14         0.0140    4.6620   -8.4460 h1        1 SE0      0.095700
     45 H15         0.3490    6.3900   -6.8920 hc        1 SE0      0.060200
     46 H15A        2.1350    6.4500   -7.1650 hc        1 SE0      0.060200
     47 H16         1.4300    8.4340   -8.2510 hc        1 SE0      0.063200
     48 H16A       -0.1230    7.7050   -8.8160 hc        1 SE0      0.063200
     49 H17         2.6700    7.4730  -10.0290 h1        1 SE0      0.078200
     50 H17A        1.0630    7.5700  -10.8460 h1        1 SE0      0.078200
     51 HN3         1.1070   -0.5430   -1.6230 hn        1 SE0      0.452467
     52 H102        2.5540    1.6900   -6.7240 hn        1 SE0      0.504800
@<TRIPOS>BOND
     1    1    2 1   
     2    1   30 1   
     3    1   31 1   
     4    1   51 1   
     5    2    3 1   
     6    2    5 1   
     7    2   32 1   
     8    3    4 1   
     9    3    7 1   
    10    5    6 1   
    11    5   33 1   
    12    5   34 1   
    13    6   19 1   
    14    8    9 1   
    15    8   17 1   
    16    9   10 1   
    17    9   35 1   
    18    9   36 1   
    19   10   11 2   
    20   10   12 1   
    21   11   37 1   
    22   11   38 1   
    23   12   13 1   
    24   12   16 2   
    25   13   14 1   
    26   13   15 1   
    27   16   17 1   
    28   17   18 1   
    29   17   39 1   
    30   18   19 1   
    31   18   21 1   
    32   18   40 1   
    33   19   20 2   
    34   21   22 1   
    35   21   41 1   
    36   21   52 1   
    37   22   23 2   
    38   22   24 1   
    39   24   25 1   
    40   24   42 1   
    41   24   43 1   
    42   25   26 1   
    43   25   29 1   
    44   25   44 1   
    45   26   27 1   
    46   26   45 1   
    47   26   46 1   
    48   27   28 1   
    49   27   47 1   
    50   27   48 1   
    51   28   29 1   
    52   28   49 1   
    53   28   50 1   
@<TRIPOS>SUBSTRUCTURE
     1 SE0         1 TEMP              0 ****  ****    0 ROOT
