@<TRIPOS>MOLECULE
SE0
   52    53     1     0     0
SMALL
bcc


@<TRIPOS>ATOM
      1 N           0.5640   -0.4150   -0.9610 nz        1 SE0     -0.825600
      2 CA          1.6030    0.4900   -0.3960 c3        1 SE0     -0.122500
      3 C           1.6250    0.3440    1.2200 c         1 SE0      0.947600
      4 O           2.2410    1.2440    1.8080 o         1 SE0     -0.746300
      5 CB          1.3930    1.9540   -0.7450 c3        1 SE0      0.137400
      6 OG          1.1600    2.0620   -2.1620 os        1 SE0     -0.453900
      7 OXT         1.0200   -0.6710    1.6400 o         1 SE0     -0.746300
      8 S1          0.8390   -0.4800   -4.2520 ss        1 SE0     -0.467200
      9 C2          0.8720   -1.5500   -5.6860 c3        1 SE0      0.082900
     10 C3          1.4640   -0.8910   -6.8750 ce        1 SE0     -0.273800
     11 C3'         0.9140   -0.9960   -8.0930 c2        1 SE0     -0.092000
     12 C4          2.7450   -0.1940   -6.6660 ce        1 SE0      0.472600
     13 C4'         3.4470    0.4010   -7.9290 c         1 SE0      0.855300
     14 O4A         3.3650    1.6780   -7.9140 o         1 SE0     -0.767300
     15 O4B         3.9270   -0.3150   -8.8130 o         1 SE0     -0.767300
     16 N5          3.2360    0.1650   -5.5180 n2        1 SE0     -0.667900
     17 C6          2.4040    0.4370   -4.4050 c3        1 SE0      0.264600
     18 C7          1.9670    1.9630   -4.3980 c3        1 SE0      0.066500
     19 C8          2.1800    2.4490   -2.9690 c         1 SE0      0.628100
     20 O9          3.1310    3.0990   -2.5420 o         1 SE0     -0.498000
     21 N10         2.7000    2.8230   -5.3770 ny        1 SE0     -0.698800
     22 C11         1.9350    4.0430   -5.8160 c         1 SE0      0.560100
     23 O12         1.1390    4.5270   -5.0230 o         1 SE0     -0.447100
     24 C13         2.2790    4.5140   -7.2020 c3        1 SE0     -0.157400
     25 C14         1.2960    5.5470   -7.7080 c3        1 SE0      0.015400
     26 C15         1.8830    6.3220   -8.8780 c3        1 SE0     -0.084400
     27 C16         0.7850    6.6390   -9.8810 c3        1 SE0     -0.082400
     28 C17        -0.2080    5.5020   -9.9040 c3        1 SE0      0.000700
     29 S19        -0.2170    4.7800   -8.2810 ss        1 SE0     -0.316200
     30 HN          0.8290   -0.7700   -1.8870 hn        1 SE0      0.452467
     31 HNA        -0.3220    0.0840   -1.0370 hn        1 SE0      0.452467
     32 HA          2.6040    0.1320   -0.7600 hx        1 SE0      0.094700
     33 HB          2.2870    2.5450   -0.4070 h1        1 SE0      0.115200
     34 HBA         0.4600    2.3750   -0.2820 h1        1 SE0      0.115200
     35 H2          1.4560   -2.4700   -5.4290 h1        1 SE0      0.089700
     36 H2A        -0.1960   -1.8380   -5.8560 h1        1 SE0      0.089700
     37 H3'         1.3890   -0.5540   -8.9850 ha        1 SE0      0.141500
     38 H3'A       -0.0250   -1.5390   -8.2660 ha        1 SE0      0.141500
     39 H6          2.9860    0.2210   -3.4660 h2        1 SE0      0.103700
     40 H7          0.8620    2.0130   -4.6490 hx        1 SE0      0.152700
     41 HN10        2.9460    2.2670   -6.2690 hn        1 SE0      0.503300
     42 H13         3.3160    4.9540   -7.1640 hc        1 SE0      0.134200
     43 H13A        2.3190    3.6350   -7.9180 hc        1 SE0      0.134200
     44 H14         1.0170    6.2480   -6.8770 h1        1 SE0      0.094700
     45 H15         2.6820    5.7130   -9.3800 hc        1 SE0      0.065200
     46 H15A        2.3600    7.2680   -8.5140 hc        1 SE0      0.065200
     47 H16         0.2700    7.5920   -9.5890 hc        1 SE0      0.063200
     48 H16A        1.2290    6.7950  -10.8980 hc        1 SE0      0.063200
     49 H17         0.0760    4.7280  -10.6560 h1        1 SE0      0.079700
     50 H17A       -1.2390    5.8570  -10.1390 h1        1 SE0      0.079700
     51 HN3         0.4530   -1.1910   -0.2750 hn        1 SE0      0.452467
     52 H102        3.5880    3.1200   -4.9540 hn        1 SE0      0.503300
@<TRIPOS>BOND
     1    1    2 1   
     2    1   30 1   
     3    1   31 1   
     4    1   51 1   
     5    2    3 1   
     6    2    5 1   
     7    2   32 1   
     8    3    4 1   
     9    3    7 1   
    10    5    6 1   
    11    5   33 1   
    12    5   34 1   
    13    6   19 1   
    14    8    9 1   
    15    8   17 1   
    16    9   10 1   
    17    9   35 1   
    18    9   36 1   
    19   10   11 2   
    20   10   12 1   
    21   11   37 1   
    22   11   38 1   
    23   12   13 1   
    24   12   16 2   
    25   13   14 1   
    26   13   15 1   
    27   16   17 1   
    28   17   18 1   
    29   17   39 1   
    30   18   19 1   
    31   18   21 1   
    32   18   40 1   
    33   19   20 2   
    34   21   22 1   
    35   21   41 1   
    36   21   52 1   
    37   22   23 2   
    38   22   24 1   
    39   24   25 1   
    40   24   42 1   
    41   24   43 1   
    42   25   26 1   
    43   25   29 1   
    44   25   44 1   
    45   26   27 1   
    46   26   45 1   
    47   26   46 1   
    48   27   28 1   
    49   27   47 1   
    50   27   48 1   
    51   28   29 1   
    52   28   49 1   
    53   28   50 1   
@<TRIPOS>SUBSTRUCTURE
     1 SE0         1 TEMP              0 ****  ****    0 ROOT
