@<TRIPOS>MOLECULE
SE0
   50    51     1     0     0
SMALL
bcc


@<TRIPOS>ATOM
      1 N           2.7010   -2.9960   -1.6250 n3        1 SE0     -0.902800
      2 CA          3.8610   -2.4020   -0.9820 c3        1 SE0      0.003500
      3 C           5.0180   -3.4010   -0.6420 c         1 SE0      0.893600
      4 O           4.9080   -4.6020   -1.0240 o         1 SE0     -0.845300
      5 CB          3.5340   -1.6370    0.3010 c3        1 SE0      0.144400
      6 OG          2.7340   -0.4690    0.0260 os        1 SE0     -0.435900
      7 OXT         6.0170   -2.9440   -0.0190 o         1 SE0     -0.845300
      8 S1          1.2040    3.3840   -0.1370 ss        1 SE0     -0.429200
      9 C2         -0.0490    4.4370    0.5470 c3        1 SE0      0.054900
     10 C3         -1.1810    3.6790    1.1240 ce        1 SE0     -0.212800
     11 C3'        -2.4590    3.9500    0.8410 c2        1 SE0     -0.189000
     12 C4         -0.8100    2.5950    2.0690 ce        1 SE0      0.433600
     13 C4'        -1.7620    2.4910    3.2970 c         1 SE0      0.851300
     14 O4A        -1.4250    3.0870    4.3470 o         1 SE0     -0.808800
     15 O4B        -2.8290    1.8520    3.1000 o         1 SE0     -0.808800
     16 N5          0.1870    1.7910    1.9250 n2        1 SE0     -0.598900
     17 C6          1.0230    1.8050    0.7660 c3        1 SE0      0.245600
     18 C7          0.6760    0.7270   -0.3110 c3        1 SE0      0.065700
     19 C8          1.3830   -0.5800    0.0790 c         1 SE0      0.628100
     20 O9          0.8550   -1.6460    0.4090 o         1 SE0     -0.572000
     21 N10        -0.7360    0.5240   -0.4800 n         1 SE0     -0.537900
     22 C11        -1.3480    0.4030   -1.7080 c         1 SE0      0.665100
     23 O12        -0.7900    0.7130   -2.7800 o         1 SE0     -0.617100
     24 C13        -2.7880   -0.1000   -1.7010 c3        1 SE0     -0.146400
     25 C14        -2.8370   -1.5860   -1.4420 c3        1 SE0      0.049400
     26 C15        -2.6060   -1.9760    0.0060 c3        1 SE0     -0.110400
     27 C16        -3.3930   -3.2380    0.3150 c3        1 SE0     -0.078400
     28 C17        -4.7060   -3.2020   -0.4340 c3        1 SE0      0.008700
     29 S19        -4.4660   -2.2150   -1.8910 ss        1 SE0     -0.384200
     30 HN          2.9930   -3.8620   -2.0500 hn        1 SE0      0.341300
     31 HNA         2.0090   -3.2210   -0.9320 hn        1 SE0      0.341300
     32 HA          4.2890   -1.6670   -1.7260 h1        1 SE0      0.054700
     33 HB          3.0230   -2.2840    1.0570 h1        1 SE0      0.072200
     34 HBA         4.4820   -1.2040    0.7230 h1        1 SE0      0.072200
     35 H2          0.4160    5.0730    1.3430 h1        1 SE0      0.062200
     36 H2A        -0.3810    5.1070   -0.2840 h1        1 SE0      0.062200
     37 H3'        -2.7490    4.7470    0.1450 ha        1 SE0      0.120500
     38 H3'A       -3.2770    3.3800    1.3080 ha        1 SE0      0.120500
     39 H6          2.0760    1.5930    1.1170 h2        1 SE0      0.111700
     40 H7          1.1210    1.0690   -1.2970 h1        1 SE0      0.129700
     41 HN10       -1.2280    0.1990    0.3250 hn        1 SE0      0.334500
     42 H13        -3.3920    0.4580   -0.9370 hc        1 SE0      0.077700
     43 H13A       -3.2220    0.1200   -2.7130 hc        1 SE0      0.077700
     44 H14        -2.0940   -2.1050   -2.1030 h1        1 SE0      0.090700
     45 H15        -1.5100   -2.1470    0.1960 hc        1 SE0      0.090700
     46 H15A       -2.9430   -1.1510    0.6900 hc        1 SE0      0.090700
     47 H16        -2.8010   -4.1380    0.0040 hc        1 SE0      0.054700
     48 H16A       -3.5690   -3.3170    1.4180 hc        1 SE0      0.054700
     49 H17        -5.0350   -4.2220   -0.7390 h1        1 SE0      0.056700
     50 H17A       -5.5120   -2.7460    0.1880 h1        1 SE0      0.056700
@<TRIPOS>BOND
     1    1    2 1   
     2    1   30 1   
     3    1   31 1   
     4    2    3 1   
     5    2    5 1   
     6    2   32 1   
     7    3    4 1   
     8    3    7 1   
     9    5    6 1   
    10    5   33 1   
    11    5   34 1   
    12    6   19 1   
    13    8    9 1   
    14    8   17 1   
    15    9   10 1   
    16    9   35 1   
    17    9   36 1   
    18   10   11 2   
    19   10   12 1   
    20   11   37 1   
    21   11   38 1   
    22   12   13 1   
    23   12   16 2   
    24   13   14 1   
    25   13   15 1   
    26   16   17 1   
    27   17   18 1   
    28   17   39 1   
    29   18   19 1   
    30   18   21 1   
    31   18   40 1   
    32   19   20 2   
    33   21   22 1   
    34   21   41 1   
    35   22   23 2   
    36   22   24 1   
    37   24   25 1   
    38   24   42 1   
    39   24   43 1   
    40   25   26 1   
    41   25   29 1   
    42   25   44 1   
    43   26   27 1   
    44   26   45 1   
    45   26   46 1   
    46   27   28 1   
    47   27   47 1   
    48   27   48 1   
    49   28   29 1   
    50   28   49 1   
    51   28   50 1   
@<TRIPOS>SUBSTRUCTURE
     1 SE0         1 TEMP              0 ****  ****    0 ROOT
