@<TRIPOS>MOLECULE
SE2
   18    19     1     0     0
SMALL
bcc


@<TRIPOS>ATOM
      1 O8          0.2670   -0.8890    0.0470 o         1 SE2     -0.575500
      2 C8          1.3290   -0.2750   -0.0650 c         1 SE2      0.696800
      3 O1          1.7780    0.2430    1.1340 os        1 SE2     -0.300200
      4 C11         2.9660    0.9570    1.1410 ca        1 SE2      0.118100
      5 C10         3.3690    1.4580    2.3910 ca        1 SE2     -0.134000
      6 C1          4.5510    2.1820    2.4670 ca        1 SE2     -0.096000
      7 C2          5.3250    2.4080    1.3210 ca        1 SE2     -0.147000
      8 C3          4.9220    1.9110    0.0890 ca        1 SE2     -0.083000
      9 C4          3.7310    1.1740   -0.0220 ca        1 SE2     -0.111800
     10 C5          3.2690    0.6370   -1.2770 cc        1 SE2     -0.081200
     11 C7          2.1070   -0.0630   -1.2920 cd        1 SE2     -0.001100
     12 O11         1.6340   -0.5910   -2.4680 oh        1 SE2     -0.480100
     13 H10         2.7470    1.2690    3.2780 ha        1 SE2      0.160000
     14 H1          4.8830    2.5830    3.4370 ha        1 SE2      0.142000
     15 H2          6.2590    2.9850    1.4010 ha        1 SE2      0.141000
     16 H3          5.5290    2.0880   -0.8120 ha        1 SE2      0.142000
     17 H5          3.8600    0.8010   -2.1890 ha        1 SE2      0.166000
     18 H11         0.7990   -1.0510   -2.2720 ho        1 SE2      0.444000
@<TRIPOS>BOND
     1    1    2 2   
     2    2    3 1   
     3    2   11 1   
     4    3    4 1   
     5    4    5 ar  
     6    4    9 ar  
     7    5    6 ar  
     8    5   13 1   
     9    6    7 ar  
    10    6   14 1   
    11    7    8 ar  
    12    7   15 1   
    13    8    9 ar  
    14    8   16 1   
    15    9   10 1   
    16   10   11 2   
    17   10   17 1   
    18   11   12 1   
    19   12   18 1   
@<TRIPOS>SUBSTRUCTURE
     1 SE2         1 TEMP              0 ****  ****    0 ROOT
