@<TRIPOS>MOLECULE
SE2
   18    16     1     0     0
SMALL
bcc


@<TRIPOS>ATOM
      1 O8         -3.7000   -0.0430   -0.3210 o         1 SE2     -0.300000
      2 C8         -2.4850   -0.0430   -0.3210 c1        1 SE2      0.312000
      3 O1         -1.7670   -0.0430    0.9220 o         1 SE2     -0.165000
      4 C11        -0.2740   -0.0430    0.9230 c2        1 SE2      0.073000
      5 C10         0.4220   -0.0430    2.1360 c2        1 SE2     -0.134000
      6 C1          1.8170   -0.0430    2.1390 c1        1 SE2     -0.096000
      7 C2          2.5230   -0.0430    0.9260 c1        1 SE2     -0.115000
      8 C3          1.8310   -0.0430   -0.2860 c1        1 SE2     -0.115000
      9 C4          0.4310   -0.0430   -0.2930 c1        1 SE2     -0.100000
     10 C5         -0.3210   -0.0430   -1.5970 c2        1 SE2     -0.093000
     11 C7         -1.7450   -0.0430   -1.5980 c2        1 SE2     -0.026000
     12 O11        -2.4470   -0.0670   -2.8170 oh        1 SE2     -0.235000
     13 H10        -0.0680   -0.0430    2.9800 ha        1 SE2      0.160000
     14 H1          2.3020   -0.0430    2.9860 ha        1 SE2      0.142000
     15 H2          3.4990   -0.0430    0.9290 ha        1 SE2      0.141500
     16 H3          2.3230   -0.0430   -1.1290 ha        1 SE2      0.141500
     17 H5          0.1670   -0.0430   -2.4420 ha        1 SE2      0.166000
     18 H11        -2.5080    0.7580   -3.1390 ho        1 SE2      0.243000
@<TRIPOS>BOND
     1    1    2 1   
     2    2   11 1   
     3    3    4 1   
     4    4    5 1   
     5    4    9 1   
     6    5    6 1   
     7    5   13 1   
     8    6   14 1   
     9    7    8 1   
    10    7   15 1   
    11    8   16 1   
    12    9   10 1   
    13   10   11 1   
    14   10   17 1   
    15   11   12 1   
    16   12   18 1   
@<TRIPOS>SUBSTRUCTURE
     1 SE2         1 TEMP              0 ****  ****    0 ROOT
