@<TRIPOS>MOLECULE
SE2
   18    19     1     0     0
SMALL
bcc


@<TRIPOS>ATOM
      1 O8          0.2570   -0.8720    0.0360 o         1 SE2     -0.575500
      2 C8          1.3210   -0.2600   -0.0730 c         1 SE2      0.696800
      3 O1          1.7810    0.2340    1.1320 os        1 SE2     -0.300200
      4 C11         2.9730    0.9440    1.1430 ca        1 SE2      0.118100
      5 C10         3.3860    1.4200    2.3990 ca        1 SE2     -0.134000
      6 C1          4.5720    2.1390    2.4780 ca        1 SE2     -0.096000
      7 C2          5.3380    2.3830    1.3310 ca        1 SE2     -0.147000
      8 C3          4.9240    1.9100    0.0930 ca        1 SE2     -0.083000
      9 C4          3.7290    1.1790   -0.0220 ca        1 SE2     -0.111800
     10 C5          3.2550    0.6660   -1.2830 cc        1 SE2     -0.081200
     11 C7          2.0900   -0.0290   -1.3010 cd        1 SE2     -0.001100
     12 O11         1.6060   -0.5330   -2.4830 oh        1 SE2     -0.480100
     13 H10         2.7710    1.2180    3.2870 ha        1 SE2      0.160000
     14 H1          4.9120    2.5200    3.4530 ha        1 SE2      0.142000
     15 H2          6.2740    2.9540    1.4140 ha        1 SE2      0.141000
     16 H3          5.5250    2.1010   -0.8090 ha        1 SE2      0.142000
     17 H5          3.8400    0.8460   -2.1970 ha        1 SE2      0.166000
     18 H11         0.7710   -0.9930   -2.2890 ho        1 SE2      0.444000
@<TRIPOS>BOND
     1    1    2 2   
     2    2    3 1   
     3    2   11 1   
     4    3    4 1   
     5    4    5 ar  
     6    4    9 ar  
     7    5    6 ar  
     8    5   13 1   
     9    6    7 ar  
    10    6   14 1   
    11    7    8 ar  
    12    7   15 1   
    13    8    9 ar  
    14    8   16 1   
    15    9   10 1   
    16   10   11 2   
    17   10   17 1   
    18   11   12 1   
    19   12   18 1   
@<TRIPOS>SUBSTRUCTURE
     1 SE2         1 TEMP              0 ****  ****    0 ROOT
