@<TRIPOS>MOLECULE
SE2
   18    19     1     0     0
SMALL
bcc


@<TRIPOS>ATOM
      1 O8         -2.6270    1.5630    0.1140 o         1 SE2     -0.575500
      2 C8         -1.6810    0.7740    0.0660 c         1 SE2      0.696800
      3 O1         -0.4540    1.4080    0.0600 os        1 SE2     -0.300200
      4 C11         0.6910    0.6280    0.0080 ca        1 SE2      0.118100
      5 C10         1.9080    1.3320    0.0050 ca        1 SE2     -0.134000
      6 C1          3.0930    0.6100   -0.0460 ca        1 SE2     -0.096000
      7 C2          3.0750   -0.7900   -0.0920 ca        1 SE2     -0.147000
      8 C3          1.8700   -1.4800   -0.0890 ca        1 SE2     -0.083000
      9 C4          0.6530   -0.7790   -0.0380 ca        1 SE2     -0.111800
     10 C5         -0.6240   -1.4480   -0.0320 cc        1 SE2     -0.081200
     11 C7         -1.7490   -0.6910    0.0180 cd        1 SE2     -0.001100
     12 O11        -2.9840   -1.2910    0.0250 oh        1 SE2     -0.480100
     13 H10         1.9000    2.4310    0.0420 ha        1 SE2      0.160000
     14 H1          4.0560    1.1440   -0.0490 ha        1 SE2      0.142000
     15 H2          4.0240   -1.3440   -0.1320 ha        1 SE2      0.141000
     16 H3          1.8550   -2.5800   -0.1250 ha        1 SE2      0.142000
     17 H5         -0.6630   -2.5460   -0.0680 ha        1 SE2      0.166000
     18 H11        -3.6550   -0.5880    0.0640 ho        1 SE2      0.444000
@<TRIPOS>BOND
     1    1    2 2   
     2    2    3 1   
     3    2   11 1   
     4    3    4 1   
     5    4    5 ar  
     6    4    9 ar  
     7    5    6 ar  
     8    5   13 1   
     9    6    7 ar  
    10    6   14 1   
    11    7    8 ar  
    12    7   15 1   
    13    8    9 ar  
    14    8   16 1   
    15    9   10 1   
    16   10   11 2   
    17   10   17 1   
    18   11   12 1   
    19   12   18 1   
@<TRIPOS>SUBSTRUCTURE
     1 SE2         1 TEMP              0 ****  ****    0 ROOT
