@<TRIPOS>MOLECULE
SE4
    5     2     1     0     0
SMALL
bcc


@<TRIPOS>ATOM
      1 SE         -0.0010   -0.0080   -0.0040 ss        1 SE4      2.528000
      2 O1          1.2970    0.6970    0.6730 o         1 SE4     -1.055000
      3 O2         -1.1180    1.1600    0.1620 o         1 SE4     -1.055000
      4 O3         -0.4650   -1.4670    0.8710 os        1 SE4     -1.208000
      5 O4          0.2870   -0.3810   -1.7030 os        1 SE4     -1.208000
@<TRIPOS>BOND
     1    1    2 1   
     2    1    3 1   
@<TRIPOS>SUBSTRUCTURE
     1 SE4         1 TEMP              0 ****  ****    0 ROOT
