@<TRIPOS>MOLECULE
SE5
   28    29     1     0     0
SMALL
bcc


@<TRIPOS>ATOM
      1 O1         -6.3900   -0.0510    0.2710 o         1 SE5     -0.828800
      2 C1         -5.3490    0.6680    0.2230 c         1 SE5      0.932200
      3 O2         -5.3260    1.9170    0.3840 o         1 SE5     -0.828800
      4 C2         -4.0340   -0.0370   -0.0470 cc        1 SE5     -0.131900
      5 C3         -2.7290    0.4760   -0.1630 cd        1 SE5     -0.205000
      6 C4         -1.8520   -0.6320   -0.4190 cd        1 SE5     -0.192300
      7 C5         -0.4000   -0.5730   -0.6240 c3        1 SE5      0.021900
      8 C6          0.3170   -0.0630    0.6190 c3        1 SE5     -0.047100
      9 C7          1.7890    0.0180    0.4160 ca        1 SE5     -0.052300
     10 C8          2.5650   -1.1490    0.4000 ca        1 SE5     -0.124500
     11 C9          2.4190    1.2560    0.2450 ca        1 SE5     -0.124500
     12 C10         3.7990    1.3340    0.0630 ca        1 SE5     -0.126500
     13 C11         4.5570    0.1600    0.0520 ca        1 SE5      0.003400
     14 C12        -2.6500   -1.7910   -0.4540 cc        1 SE5     -0.210300
     15 CL1         6.2470    0.2470   -0.1680 cl        1 SE5     -0.124400
     16 C13         3.9440   -1.0850    0.2190 ca        1 SE5     -0.126500
     17 N1         -3.9660   -1.4170   -0.2280 na        1 SE5     -0.153100
     18 H2         -2.4550    1.5210   -0.0730 ha        1 SE5      0.147000
     19 H3         -0.0010   -1.5890   -0.8880 hc        1 SE5      0.028700
     20 H4         -0.1680    0.1110   -1.4860 hc        1 SE5      0.028700
     21 H5         -0.0980    0.9450    0.8880 hc        1 SE5      0.059700
     22 H6          0.0980   -0.7520    1.4790 hc        1 SE5      0.059700
     23 H7          2.0740   -2.1250    0.5300 ha        1 SE5      0.141000
     24 H8          1.8180    2.1790    0.2530 ha        1 SE5      0.141000
     25 H9          4.2840    2.3120   -0.0700 ha        1 SE5      0.137500
     26 H10        -2.3660   -2.8270   -0.6240 h4        1 SE5      0.136000
     27 H11         4.5440   -2.0060    0.2070 ha        1 SE5      0.137500
     28 H12        -4.7570   -2.0050   -0.1960 hn        1 SE5      0.299700
@<TRIPOS>BOND
     1    1    2 1   
     2    2    3 1   
     3    2    4 1   
     4    4    5 2   
     5    4   17 1   
     6    5    6 1   
     7    5   18 1   
     8    6    7 1   
     9    6   14 2   
    10    7    8 1   
    11    7   19 1   
    12    7   20 1   
    13    8    9 1   
    14    8   21 1   
    15    8   22 1   
    16    9   10 ar  
    17    9   11 ar  
    18   10   16 ar  
    19   10   23 1   
    20   11   12 ar  
    21   11   24 1   
    22   12   13 ar  
    23   12   25 1   
    24   13   15 1   
    25   13   16 ar  
    26   14   17 1   
    27   14   26 1   
    28   16   27 1   
    29   17   28 1   
@<TRIPOS>SUBSTRUCTURE
     1 SE5         1 TEMP              0 ****  ****    0 ROOT
