@<TRIPOS>MOLECULE
SE5
   28    29     1     0     0
SMALL
bcc


@<TRIPOS>ATOM
      1 O1          0.0200   -0.0300   -0.0850 o         1 SE5     -0.828800
      2 C1          1.2760   -0.1580    0.0010 c         1 SE5      0.932200
      3 O2          1.9110   -0.3550    1.0700 o         1 SE5     -0.828800
      4 C2          2.0700   -0.0670   -1.2890 cc        1 SE5     -0.131900
      5 C3          3.4540   -0.1620   -1.5190 cd        1 SE5     -0.205000
      6 C4          3.6690   -0.0090   -2.9300 cd        1 SE5     -0.192300
      7 C5          4.9590   -0.0250   -3.6290 c3        1 SE5      0.021900
      8 C6          5.6490   -1.3760   -3.4930 c3        1 SE5     -0.047100
      9 C7          6.9670   -1.3970   -4.1830 ca        1 SE5     -0.052300
     10 C8          7.0310   -1.4590   -5.5820 ca        1 SE5     -0.124500
     11 C9          8.1580   -1.3630   -3.4490 ca        1 SE5     -0.124500
     12 C10         9.3930   -1.3910   -4.0940 ca        1 SE5     -0.126500
     13 C11         9.4380   -1.4550   -5.4890 ca        1 SE5      0.003400
     14 C12         2.4040    0.1760   -3.5220 cc        1 SE5     -0.210300
     15 Cl1        10.9460   -1.4930   -6.2860 cl        1 SE5     -0.124400
     16 C13         8.2590   -1.4880   -6.2380 ca        1 SE5     -0.126500
     17 N1          1.4480    0.1390   -2.5180 na        1 SE5     -0.153100
     18 H2          4.2080   -0.3210   -0.7560 ha        1 SE5      0.147000
     19 H3          4.8150    0.2070   -4.7190 hc        1 SE5      0.028700
     20 H4          5.6280    0.7710   -3.2040 hc        1 SE5      0.028700
     21 H5          5.7730   -1.6100   -2.4020 hc        1 SE5      0.059700
     22 H6          4.9880   -2.1720   -3.9290 hc        1 SE5      0.059700
     23 H7          6.0980   -1.4830   -6.1650 ha        1 SE5      0.141000
     24 H8          8.1190   -1.3110   -2.3500 ha        1 SE5      0.141000
     25 H9         10.3230   -1.3630   -3.5070 ha        1 SE5      0.137500
     26 H10         2.1410    0.3310   -4.5650 h4        1 SE5      0.136000
     27 H11         8.2980   -1.5360   -7.3360 ha        1 SE5      0.137500
     28 H12         0.4720    0.2420   -2.6190 hn        1 SE5      0.299700
@<TRIPOS>BOND
     1    1    2 1   
     2    2    3 1   
     3    2    4 1   
     4    4    5 2   
     5    4   17 1   
     6    5    6 1   
     7    5   18 1   
     8    6    7 1   
     9    6   14 2   
    10    7    8 1   
    11    7   19 1   
    12    7   20 1   
    13    8    9 1   
    14    8   21 1   
    15    8   22 1   
    16    9   10 ar  
    17    9   11 ar  
    18   10   16 ar  
    19   10   23 1   
    20   11   12 ar  
    21   11   24 1   
    22   12   13 ar  
    23   12   25 1   
    24   13   15 1   
    25   13   16 ar  
    26   14   17 1   
    27   14   26 1   
    28   16   27 1   
    29   17   28 1   
@<TRIPOS>SUBSTRUCTURE
     1 SE5         1 TEMP              0 ****  ****    0 ROOT
