@<TRIPOS>MOLECULE
SE5
   28    29     1     0     0
SMALL
bcc


@<TRIPOS>ATOM
      1 O1          0.0340    0.0040   -0.0700 o         1 SE5     -0.828800
      2 C1          1.2880   -0.1460    0.0110 c         1 SE5      0.932200
      3 O2          1.9200   -0.3700    1.0770 o         1 SE5     -0.828800
      4 C2          2.0820   -0.0480   -1.2770 cc        1 SE5     -0.131900
      5 C3          3.4640   -0.1620   -1.5100 cd        1 SE5     -0.205000
      6 C4          3.6800    0.0100   -2.9190 cd        1 SE5     -0.192300
      7 C5          4.9690   -0.0170   -3.6190 c3        1 SE5      0.021900
      8 C6          5.6390   -1.3800   -3.5030 c3        1 SE5     -0.047100
      9 C7          6.9560   -1.4120   -4.1940 ca        1 SE5     -0.052300
     10 C8          7.0180   -1.4580   -5.5930 ca        1 SE5     -0.124500
     11 C9          8.1480   -1.4030   -3.4610 ca        1 SE5     -0.124500
     12 C10         9.3820   -1.4420   -4.1070 ca        1 SE5     -0.126500
     13 C11         9.4250   -1.4890   -5.5030 ca        1 SE5      0.003400
     14 C12         2.4190    0.2250   -3.5070 cc        1 SE5     -0.210300
     15 CL1        10.9310   -1.5390   -6.3010 cl        1 SE5     -0.124400
     16 C13         8.2440   -1.4960   -6.2510 ca        1 SE5     -0.126500
     17 N1          1.4630    0.1870   -2.5030 na        1 SE5     -0.153100
     18 H2          4.2150   -0.3440   -0.7500 ha        1 SE5      0.147000
     19 H3          4.8290    0.2320   -4.7060 hc        1 SE5      0.028700
     20 H4          5.6510    0.7630   -3.1830 hc        1 SE5      0.028700
     21 H5          5.7600   -1.6310   -2.4150 hc        1 SE5      0.059700
     22 H6          4.9650   -2.1600   -3.9490 hc        1 SE5      0.059700
     23 H7          6.0840   -1.4600   -6.1750 ha        1 SE5      0.141000
     24 H8          8.1100   -1.3640   -2.3610 ha        1 SE5      0.141000
     25 H9         10.3120   -1.4340   -3.5210 ha        1 SE5      0.137500
     26 H10         2.1570    0.4000   -4.5470 h4        1 SE5      0.136000
     27 H11         8.2820   -1.5320   -7.3490 ha        1 SE5      0.137500
     28 H12         0.4880    0.3080   -2.6010 hn        1 SE5      0.299700
@<TRIPOS>BOND
     1    1    2 1   
     2    2    3 1   
     3    2    4 1   
     4    4    5 2   
     5    4   17 1   
     6    5    6 1   
     7    5   18 1   
     8    6    7 1   
     9    6   14 2   
    10    7    8 1   
    11    7   19 1   
    12    7   20 1   
    13    8    9 1   
    14    8   21 1   
    15    8   22 1   
    16    9   10 ar  
    17    9   11 ar  
    18   10   16 ar  
    19   10   23 1   
    20   11   12 ar  
    21   11   24 1   
    22   12   13 ar  
    23   12   25 1   
    24   13   15 1   
    25   13   16 ar  
    26   14   17 1   
    27   14   26 1   
    28   16   27 1   
    29   17   28 1   
@<TRIPOS>SUBSTRUCTURE
     1 SE5         1 TEMP              0 ****  ****    0 ROOT
