@<TRIPOS>MOLECULE
SE7
   15    14     1     0     0
SMALL
bcc


@<TRIPOS>ATOM
      1 N          -2.0740   -0.4800    0.5670 n3        1 SE7     -0.891800
      2 CA         -0.6420   -0.4500    0.4180 c3        1 SE7      0.073500
      3 C           0.0070   -0.3110    1.7840 c         1 SE7      0.879600
      4 O          -0.2280    0.7280    2.5040 o         1 SE7     -0.795300
      5 CB         -0.2530    0.7120   -0.4370 c3        1 SE7     -0.112100
      6 SEG         1.5640    0.4970   -1.0110 s4        1 SE7      0.704700
      7 OD1         2.7860    1.0000   -0.0530 o         1 SE7     -0.587200
      8 OD2         1.9100   -0.1400   -2.6110 oh        1 SE7     -0.744800
      9 OXT         0.8020   -1.2270    2.2160 o         1 SE7     -0.795300
     10 H          -2.4770   -0.5750   -0.2810 hn        1 SE7      0.339800
     11 H2         -2.3160   -1.2030    1.1110 hn        1 SE7      0.339800
     12 HA         -0.3370   -1.2890   -0.0080 h1        1 SE7      0.054700
     13 HB2        -0.3360    1.5330    0.0750 h1        1 SE7      0.072200
     14 HB3        -0.8320    0.7530   -1.2090 h1        1 SE7      0.072200
     15 HD2         2.4250    0.4500   -3.0650 ho        1 SE7      0.391000
@<TRIPOS>BOND
     1    1    2 1   
     2    1   10 1   
     3    1   11 1   
     4    2    3 1   
     5    2    5 1   
     6    2   12 1   
     7    3    4 1   
     8    3    9 1   
     9    5    6 1   
    10    5   13 1   
    11    5   14 1   
    12    6    7 2   
    13    6    8 1   
    14    8   15 1   
@<TRIPOS>SUBSTRUCTURE
     1 SE7         1 TEMP              0 ****  ****    0 ROOT
