@<TRIPOS>MOLECULE
SE7
   15    14     1     0     0
SMALL
bcc


@<TRIPOS>ATOM
      1 N           1.0840    1.6560    0.5860 n3        1 SE7     -0.923800
      2 CA          1.2620    0.2280    0.3450 c3        1 SE7      0.030500
      3 C           2.5980   -0.1360   -0.3920 c         1 SE7      0.898600
      4 O           3.1610    0.7780   -1.0590 o         1 SE7     -0.831800
      5 CB          0.1040   -0.3390   -0.4780 c3        1 SE7     -0.109100
      6 SEG        -1.3890    0.3990    0.0010 s4        1 SE7      0.584700
      7 OD1        -1.9620   -0.4100    1.0950 o         1 SE7     -0.563200
      8 OD2        -2.4270   -0.2410   -1.2090 oh        1 SE7     -0.624800
      9 OXT         3.0240   -1.3130   -0.2620 o         1 SE7     -0.831800
     10 H           1.7030    1.9270    1.3280 hn        1 SE7      0.344800
     11 H2          1.3900    2.1490   -0.2390 hn        1 SE7      0.344800
     12 HA          1.2750   -0.2990    1.3420 h1        1 SE7      0.052700
     13 HB2         0.2830   -0.1190   -1.5630 h1        1 SE7      0.100200
     14 HB3         0.1370   -1.4510   -0.3700 h1        1 SE7      0.100200
     15 HD2        -2.9010   -1.0080   -0.8880 ho        1 SE7      0.429000
@<TRIPOS>BOND
     1    1    2 1   
     2    1   10 1   
     3    1   11 1   
     4    2    3 1   
     5    2    5 1   
     6    2   12 1   
     7    3    4 1   
     8    3    9 1   
     9    5    6 1   
    10    5   13 1   
    11    5   14 1   
    12    6    7 2   
    13    6    8 1   
    14    8   15 1   
@<TRIPOS>SUBSTRUCTURE
     1 SE7         1 TEMP              0 ****  ****    0 ROOT
