@<TRIPOS>MOLECULE
SE8
   56    54     1     0     0
SMALL
bcc


@<TRIPOS>ATOM
      1 C1         -1.2220   -3.2500    2.2820 c1        1 SE8      0.446000
      2 C2          1.8790    0.9640    1.8940 c2        1 SE8     -0.684000
      3 C3          2.8440    1.6520    1.1170 c3        1 SE8      0.043000
      4 N4          4.2710    1.6220    1.8100 n4        1 SE8     -0.172000
      5 C5          5.0650    0.4050    1.5480 c2        1 SE8      0.287000
      6 C6          6.5510    0.4690    1.7880 c3        1 SE8     -0.203000
      7 C7          6.9360    1.1310    3.1250 c3        1 SE8      0.069000
      8 C8          8.3630    0.6970    3.4680 c3        1 SE8     -0.223000
      9 C9          8.8500    1.2180    4.8120 c2        1 SE8      0.304000
     10 N10        10.1930    1.2530    5.0360 n         1 SE8     -0.328000
     11 C11        10.7730    1.6890    6.2810 c3        1 SE8     -0.068000
     12 C12        11.2980    0.5140    7.1500 c3        1 SE8     -0.038000
     13 N13        12.1550    0.9330    8.2170 n         1 SE8     -0.383000
     14 C14        13.4760    1.2740    7.9820 c2        1 SE8      0.295000
     15 C15        14.3080    1.7390    9.1630 c3        1 SE8     -0.177000
     16 C16        14.6110    0.6180   10.1290 c3        1 SE8     -0.200000
     17 C17        13.5230    0.3410   11.1110 c2        1 SE8      0.208000
     18 C18        13.8130   -0.7780   12.0890 c2        1 SE8      0.248000
     19 O19        -2.0870   -4.0380    2.4480 o         1 SE8     -0.222000
     20 O20        -0.3440   -2.4530    2.1140 o         1 SE8     -0.222000
     21 N21         1.5770   -0.4180    1.7020 n4        1 SE8      0.080000
     22 O22         4.4910   -0.6010    1.1270 o         1 SE8     -0.258000
     23 C23         6.8410    2.6550    2.9750 c2        1 SE8      0.264000
     24 O24         6.8170    3.2340    1.8830 o         1 SE8     -0.328000
     25 O25         6.6680    3.4580    4.0420 oh        1 SE8     -0.251000
     26 O26         5.9530    0.7270    4.0630 oh        1 SE8     -0.361000
     27 O27         8.0140    1.5940    5.6740 o         1 SE8     -0.434000
     28 O28        13.9650    1.1770    6.8390 o         1 SE8     -0.363000
     29 O29        12.4450    0.9390   11.1820 o         1 SE8     -0.287000
     30 O30        12.9360   -1.0050   13.0990 oh        1 SE8     -0.260000
     31 O31        14.7860   -1.5260   12.0540 o         1 SE8     -0.258000
     32 H2          1.2600    1.4720    2.6380 hx        1 SE8      0.178000
     33 H3          2.6260    2.7550    1.0700 hx        1 SE8      0.120000
     34 H3A         3.0500    1.2370    0.0930 hx        1 SE8      0.120000
     35 HN4         4.1230    1.6700    2.8270 hn        1 SE8      0.247000
     36 H6          7.0290    1.0420    0.9430 hc        1 SE8      0.164000
     37 H6A         6.9390   -0.5870    1.7670 hc        1 SE8      0.164000
     38 H8          9.0390    1.0360    2.6370 hc        1 SE8      0.141500
     39 H8A         8.3960   -0.4260    3.5150 hc        1 SE8      0.141500
     40 HN10        6.7370    2.9610    4.8800 ho        1 SE8      0.275000
     41 H11        10.0030    2.2710    6.8630 h1        1 SE8      0.122500
     42 H11A       11.6350    2.3740    6.0290 h1        1 SE8      0.122500
     43 H12        11.8780   -0.1980    6.4940 h1        1 SE8      0.103500
     44 H12A       10.4210   -0.0360    7.5930 h1        1 SE8      0.103500
     45 HN13       11.7370    1.1810    9.0850 hn        1 SE8      0.246000
     46 H15        13.7830    2.5790    9.6920 hc        1 SE8      0.128500
     47 H15A       15.2740    2.1380    8.7480 hc        1 SE8      0.128500
     48 H16        14.8400   -0.3360    9.5770 hc        1 SE8      0.148000
     49 H16A       15.5380    0.8730   10.7190 hc        1 SE8      0.148000
     50 HN21        1.4070   -0.8700    2.6050 hn        1 SE8      0.221667
     51 HN2A        2.3460   -0.9010    1.2270 hn        1 SE8      0.221667
     52 HO26        6.3400    0.6940    4.9540 ho        1 SE8      0.272000
     53 H42         4.8160    2.4410    1.5170 hn        1 SE8      0.247000
     54 H102       10.8170    0.8960    4.3490 hn        1 SE8      0.244000
     55 H132       12.1990   -0.3730   13.0480 ho        1 SE8      0.248000
     56 H213        0.7260   -0.5300    1.1390 hn        1 SE8      0.221667
@<TRIPOS>BOND
     1    1   19 1   
     2    1   20 1   
     3    2    3 1   
     4    2   21 1   
     5    2   32 1   
     6    3    4 1   
     7    3   33 1   
     8    3   34 1   
     9    4    5 1   
    10    4   35 1   
    11    4   53 1   
    12    5    6 1   
    13    5   22 1   
    14    6    7 1   
    15    6   36 1   
    16    6   37 1   
    17    7    8 1   
    18    7   23 1   
    19    7   26 1   
    20    8    9 1   
    21    8   38 1   
    22    8   39 1   
    23    9   10 1   
    24    9   27 1   
    25   10   11 1   
    26   10   54 1   
    27   11   12 1   
    28   11   41 1   
    29   11   42 1   
    30   12   13 1   
    31   12   43 1   
    32   12   44 1   
    33   13   14 1   
    34   13   45 1   
    35   14   15 1   
    36   14   28 1   
    37   15   16 1   
    38   15   46 1   
    39   15   47 1   
    40   16   17 1   
    41   16   48 1   
    42   16   49 1   
    43   17   18 1   
    44   17   29 1   
    45   18   30 1   
    46   18   31 1   
    47   21   50 1   
    48   21   51 1   
    49   21   56 1   
    50   23   24 1   
    51   23   25 1   
    52   25   40 1   
    53   26   52 1   
    54   30   55 1   
@<TRIPOS>SUBSTRUCTURE
     1 SE8         1 TEMP              0 ****  ****    0 ROOT
