@<TRIPOS>MOLECULE
SE8
   56    54     1     0     0
SMALL
bcc


@<TRIPOS>ATOM
      1 C1         -1.3600    3.2720    3.0460 c1        1 SE8      0.447000
      2 C2          2.9870    1.3770    0.7070 c2        1 SE8     -0.714000
      3 C3          3.3400    0.0250    0.9800 c3        1 SE8      0.041000
      4 N4          4.7780   -0.0370    1.6010 ny        1 SE8     -0.159000
      5 C5          5.3830   -1.3910    1.6360 c2        1 SE8      0.261000
      6 C6          6.8310   -1.4830    2.0430 c3        1 SE8     -0.202000
      7 C7          7.1880   -0.6320    3.2750 c3        1 SE8      0.068000
      8 C8          8.5310   -1.1220    3.8190 c3        1 SE8     -0.222000
      9 C9          8.9610   -0.3960    5.0860 c2        1 SE8      0.305000
     10 N10        10.2770   -0.4350    5.4320 ns        1 SE8     -0.329000
     11 C11        10.8020    0.1980    6.6150 c3        1 SE8     -0.067000
     12 C12        11.3080   -0.8220    7.6700 c3        1 SE8     -0.032000
     13 N13        12.0620   -0.2110    8.7230 ns        1 SE8     -0.387000
     14 C14        13.3700    0.1920    8.5320 c2        1 SE8      0.297000
     15 C15        14.1070    0.7910    9.7170 c3        1 SE8     -0.177000
     16 C16        13.8200    2.2670    9.8700 c3        1 SE8     -0.202000
     17 C17        12.5120    2.5730   10.5170 c2        1 SE8      0.206000
     18 C18        12.1770    4.0460   10.6210 c2        1 SE8      0.247000
     19 O19        -2.4380    3.5980    3.4050 o         1 SE8     -0.223000
     20 O20        -0.2670    2.9410    2.6840 o         1 SE8     -0.223000
     21 N21         2.2120    2.1870    1.5840 nz        1 SE8      0.094000
     22 O22         4.6960   -2.3530    1.3130 o         1 SE8     -0.194000
     23 C23         7.2640    0.8440    2.8620 c2        1 SE8      0.262000
     24 O24         7.4570    1.2330    1.7060 o         1 SE8     -0.320000
     25 O25         6.9790    1.8190    3.7500 oh        1 SE8     -0.265000
     26 O26         6.1010   -0.7540    4.1780 oh        1 SE8     -0.360000
     27 O27         8.1000    0.2070    5.7770 o         1 SE8     -0.437000
     28 O28        13.9230    0.0540    7.4230 o         1 SE8     -0.366000
     29 O29        11.7110    1.7430   10.9570 o         1 SE8     -0.285000
     30 O30        11.1250    4.4230   11.3910 oh        1 SE8     -0.261000
     31 O31        12.7710    4.9590   10.0530 o         1 SE8     -0.259000
     32 H2          3.2400    1.8510   -0.2460 hx        1 SE8      0.180000
     33 H3          2.6980   -0.5250    1.7190 hx        1 SE8      0.123000
     34 H3A         3.4370   -0.5780    0.0330 hx        1 SE8      0.123000
     35 HN4         4.7600    0.3210    2.5610 hn        1 SE8      0.241500
     36 H6          7.4710   -1.1580    1.1750 hc        1 SE8      0.163500
     37 H6A         7.0470   -2.5650    2.2630 hc        1 SE8      0.163500
     38 H8          8.4430   -2.2150    4.0700 hc        1 SE8      0.142500
     39 H8A         9.3000   -1.0070    3.0080 hc        1 SE8      0.142500
     40 HN10       10.9190   -0.9520    4.8740 hn        1 SE8      0.244000
     41 H11        11.6670    0.8520    6.2960 h1        1 SE8      0.123000
     42 H11A       10.0030    0.8490    7.0710 h1        1 SE8      0.123000
     43 H12        11.9670   -1.5820    7.1550 h1        1 SE8      0.101000
     44 H12A       10.4260   -1.3560    8.1230 h1        1 SE8      0.101000
     45 HN13       10.7090    3.6410   11.7910 ho        1 SE8      0.248000
     46 H15        15.2060    0.6500    9.5240 hc        1 SE8      0.129500
     47 H15A       13.8470    0.2440   10.6620 hc        1 SE8      0.129500
     48 H16        13.8540    2.7860    8.8700 hc        1 SE8      0.148000
     49 H16A       14.6260    2.7390   10.5010 hc        1 SE8      0.148000
     50 HN21        1.7390    1.6280    2.2980 hn        1 SE8      0.214667
     51 HN2A        1.4920    2.6830    1.0470 hn        1 SE8      0.214667
     52 HO26        6.4290   -0.7610    5.0920 ho        1 SE8      0.271000
     53 H42         5.3850    0.5910    1.0540 hn        1 SE8      0.241500
     54 H102        6.9410    1.4680    4.6600 ho        1 SE8      0.275000
     55 H132       11.6070   -0.0200    9.5850 hn        1 SE8      0.250000
     56 H213        2.7910    2.8900    2.0530 hn        1 SE8      0.214667
@<TRIPOS>BOND
     1    1   19 1   
     2    1   20 1   
     3    2    3 1   
     4    2   21 1   
     5    2   32 1   
     6    3    4 1   
     7    3   33 1   
     8    3   34 1   
     9    4    5 1   
    10    4   35 1   
    11    4   53 1   
    12    5    6 1   
    13    5   22 1   
    14    6    7 1   
    15    6   36 1   
    16    6   37 1   
    17    7    8 1   
    18    7   23 1   
    19    7   26 1   
    20    8    9 1   
    21    8   38 1   
    22    8   39 1   
    23    9   10 1   
    24    9   27 1   
    25   10   11 1   
    26   10   40 1   
    27   11   12 1   
    28   11   41 1   
    29   11   42 1   
    30   12   13 1   
    31   12   43 1   
    32   12   44 1   
    33   13   14 1   
    34   13   55 1   
    35   14   15 1   
    36   14   28 1   
    37   15   16 1   
    38   15   46 1   
    39   15   47 1   
    40   16   17 1   
    41   16   48 1   
    42   16   49 1   
    43   17   18 1   
    44   17   29 1   
    45   18   30 1   
    46   18   31 1   
    47   21   50 1   
    48   21   51 1   
    49   21   56 1   
    50   23   24 1   
    51   23   25 1   
    52   25   54 1   
    53   26   52 1   
    54   30   45 1   
@<TRIPOS>SUBSTRUCTURE
     1 SE8         1 TEMP              0 ****  ****    0 ROOT
