@<TRIPOS>MOLECULE
SE8
   52    51     1     0     0
SMALL
bcc


@<TRIPOS>ATOM
      1 C1          9.0850    0.2040   -1.9750 c         1 SE8      0.892600
      2 C2          8.1650   -0.4700   -0.9060 c3        1 SE8      0.005500
      3 C3          6.7000   -0.1030   -1.2280 c3        1 SE8      0.091000
      4 N4          5.7340   -0.8040   -0.4160 n         1 SE8     -0.556900
      5 C5          4.5930   -0.2060    0.0870 c         1 SE8      0.646100
      6 C6          3.8250   -0.9810    1.1400 c3        1 SE8     -0.178400
      7 C7          2.3110   -0.7280    1.2090 c3        1 SE8      0.048800
      8 C8          1.6560   -1.1670   -0.1040 c3        1 SE8     -0.164400
      9 C9          0.3430   -0.4890   -0.4540 c         1 SE8      0.679100
     10 N10        -0.6260   -0.3910    0.5140 n         1 SE8     -0.556900
     11 C11        -1.8880    0.2370    0.2820 c3        1 SE8      0.083000
     12 C12        -3.0730   -0.7620    0.1480 c3        1 SE8      0.060000
     13 N13        -4.2460   -0.1650   -0.4280 n         1 SE8     -0.572900
     14 C14        -5.4730   -0.0990    0.2020 c         1 SE8      0.654100
     15 C15        -6.5690    0.6920   -0.4920 c3        1 SE8     -0.140400
     16 C16        -7.9080   -0.0050   -0.4160 c3        1 SE8     -0.186400
     17 C17        -9.0400    0.8480   -0.9320 c         1 SE8      0.471100
     18 C18       -10.3890    0.1230   -1.0510 c         1 SE8      0.854600
     19 O19         8.8740   -0.0680   -3.1890 o         1 SE8     -0.848300
     20 O20        10.0230    0.9530   -1.5710 o         1 SE8     -0.848300
     21 N21         8.5360   -0.1990    0.4750 n3        1 SE8     -0.898800
     22 O22         4.2240    0.9200   -0.3210 o         1 SE8     -0.653100
     23 C23         1.7920   -1.5640    2.4420 c         1 SE8      0.928600
     24 O24         2.5180   -1.6030    3.4690 o         1 SE8     -0.830300
     25 O25         0.6990   -2.1890    2.3240 o         1 SE8     -0.830300
     26 O26         2.0280    0.6290    1.4970 oh        1 SE8     -0.595800
     27 O27         0.1410   -0.0600   -1.6170 o         1 SE8     -0.687100
     28 O28        -5.6660   -0.6620    1.3010 o         1 SE8     -0.631100
     29 O29        -8.8720    2.0360   -1.2370 o         1 SE8     -0.602100
     30 O30       -10.5910   -0.5450   -2.1010 o         1 SE8     -0.822300
     31 O31       -11.1950    0.2280   -0.0880 o         1 SE8     -0.822300
     32 H2          8.2960   -1.5840   -1.0510 h1        1 SE8      0.039700
     33 H3          6.5470    1.0080   -1.1170 h1        1 SE8      0.061700
     34 H3A         6.5240   -0.3690   -2.3100 h1        1 SE8      0.061700
     35 HN4         6.0750   -1.6040    0.0650 hn        1 SE8      0.298500
     36 H6          3.9720   -2.0850    1.0150 hc        1 SE8      0.080700
     37 H6A         4.2480   -0.6890    2.1420 hc        1 SE8      0.080700
     38 H8          2.3560   -0.9640   -0.9580 hc        1 SE8      0.071200
     39 H8A         1.4600   -2.2700   -0.0420 hc        1 SE8      0.071200
     40 HN10       -0.4400   -0.7920    1.4160 hn        1 SE8      0.371500
     41 H11        -2.1120    0.9270    1.1450 h1        1 SE8      0.044700
     42 H11A       -1.8160    0.8580   -0.6570 h1        1 SE8      0.044700
     43 H12        -2.7590   -1.6210   -0.5120 h1        1 SE8      0.062200
     44 H12A       -3.3280   -1.1750    1.1640 h1        1 SE8      0.062200
     45 HN13       -4.1160    0.3470   -1.2680 hn        1 SE8      0.301500
     46 H15        -6.6390    1.6860    0.0280 hc        1 SE8      0.062200
     47 H15A       -6.3230    0.8970   -1.5660 hc        1 SE8      0.062200
     48 H16        -7.8910   -0.9530   -1.0170 hc        1 SE8      0.079200
     49 H16A       -8.1370   -0.2850    0.6470 hc        1 SE8      0.079200
     50 HN21        9.5330   -0.0550    0.4990 hn        1 SE8      0.333800
     51 HN2A        8.1160    0.6660    0.7640 hn        1 SE8      0.333800
     52 HO26        2.4180    1.1530    0.7830 ho        1 SE8      0.409000
@<TRIPOS>BOND
     1    1    2 1   
     2    1   19 1   
     3    1   20 1   
     4    2    3 1   
     5    2   21 1   
     6    2   32 1   
     7    3    4 1   
     8    3   33 1   
     9    3   34 1   
    10    4    5 1   
    11    4   35 1   
    12    5    6 1   
    13    5   22 2   
    14    6    7 1   
    15    6   36 1   
    16    6   37 1   
    17    7    8 1   
    18    7   23 1   
    19    7   26 1   
    20    8    9 1   
    21    8   38 1   
    22    8   39 1   
    23    9   10 1   
    24    9   27 2   
    25   10   11 1   
    26   10   40 1   
    27   11   12 1   
    28   11   41 1   
    29   11   42 1   
    30   12   13 1   
    31   12   43 1   
    32   12   44 1   
    33   13   14 1   
    34   13   45 1   
    35   14   15 1   
    36   14   28 2   
    37   15   16 1   
    38   15   46 1   
    39   15   47 1   
    40   16   17 1   
    41   16   48 1   
    42   16   49 1   
    43   17   18 1   
    44   17   29 2   
    45   18   30 1   
    46   18   31 1   
    47   21   50 1   
    48   21   51 1   
    49   23   24 1   
    50   23   25 1   
    51   26   52 1   
@<TRIPOS>SUBSTRUCTURE
     1 SE8         1 TEMP              0 ****  ****    0 ROOT
