@<TRIPOS>MOLECULE
SE8
   52    50     1     0     0
SMALL
bcc


@<TRIPOS>ATOM
      1 C1         -6.4250    1.3870   -6.4490 c1        1 SE8      0.773000
      2 C2         -5.3510    0.3310   -6.6430 c2        1 SE8      0.112200
      3 C3         -4.0340    0.8680   -6.1760 c3        1 SE8      0.037700
      4 N4         -3.7910    0.4360   -4.8340 n         1 SE8     -0.570900
      5 C5         -2.4670    0.4530   -4.3110 c         1 SE8      0.670100
      6 C6         -2.2090    0.9580   -2.8650 c3        1 SE8     -0.158400
      7 C7         -0.8720    0.3990   -2.3620 c3        1 SE8      0.037800
      8 C8         -0.5500    0.9940   -0.9880 c3        1 SE8     -0.131400
      9 C9          0.4300    0.0690   -0.2400 c         1 SE8      0.679100
     10 N10         0.8510    0.3990    1.1170 n         1 SE8     -0.553900
     11 C11         1.7310   -0.4960    1.8410 c3        1 SE8      0.082000
     12 C12         2.2180    0.2040    3.1460 c3        1 SE8      0.065000
     13 N13         2.8950   -0.7620    3.9890 n         1 SE8     -0.569900
     14 C14         3.4740   -0.3480    5.2450 c         1 SE8      0.653100
     15 C15         3.9480   -1.3910    6.2400 c3        1 SE8     -0.141400
     16 C16         4.7840   -0.7090    7.3460 c3        1 SE8     -0.186400
     17 C17         5.1140   -1.7120    8.4200 c         1 SE8      0.471100
     18 C18         6.0120   -1.3090    9.5910 c         1 SE8      0.853600
     19 O19        -7.4480    1.1210   -5.7810 o         1 SE8     -0.821500
     20 O20        -6.3190    2.5120   -7.0230 o         1 SE8     -0.821500
     21 N21        -5.2630   -0.0100   -8.0270 nh        1 SE8     -0.471100
     22 O22        -1.5470   -0.0190   -4.9660 o         1 SE8     -0.650100
     23 C23         0.2100    0.7600   -3.3250 c         1 SE8      0.897600
     24 O24         0.3900    1.9680   -3.6430 o         1 SE8     -0.830800
     25 O25         1.0100   -0.1080   -3.7130 o         1 SE8     -0.830800
     26 O26        -0.9640   -1.0350   -2.2530 oh        1 SE8     -0.621800
     27 O27         0.8390   -0.9510   -0.7760 o         1 SE8     -0.699100
     28 O28         3.5430    0.8180    5.5190 o         1 SE8     -0.633100
     29 O29         4.7400   -2.8650    8.3100 o         1 SE8     -0.602100
     30 O30         7.2550   -1.5390    9.5440 o         1 SE8     -0.822800
     31 O31         5.5070   -0.7850   10.6230 o         1 SE8     -0.822800
     32 H2         -5.5830   -0.4710   -6.1220 h4        1 SE8     -0.037200
     33 H3         -3.3300    0.5410   -6.7530 h1        1 SE8      0.036200
     34 H3A        -4.0520    1.8620   -6.2070 h1        1 SE8      0.036200
     35 HN4        -4.4790    0.1220   -4.3240 hn        1 SE8      0.345500
     36 H6         -2.9250    0.6570   -2.2840 hc        1 SE8      0.067700
     37 H6A        -2.1750    1.9390   -2.8630 hc        1 SE8      0.067700
     38 H8         -0.1420    1.8720   -1.1020 hc        1 SE8      0.068200
     39 H8A        -1.3610    1.0810   -0.4780 hc        1 SE8      0.068200
     40 HN10        0.6240    1.2040    1.4800 hn        1 SE8      0.373500
     41 H11         2.5100   -0.7210    1.2770 h1        1 SE8      0.043700
     42 H11A        1.2380   -1.3300    2.0750 h1        1 SE8      0.043700
     43 H12         1.4510    0.5710    3.6230 h1        1 SE8      0.064200
     44 H12A        2.8520    0.9460    2.9100 h1        1 SE8      0.064200
     45 HN13        2.9870   -1.6300    3.7070 hn        1 SE8      0.302500
     46 H15         4.5030   -2.0590    5.7750 hc        1 SE8      0.061200
     47 H15A        3.1670   -1.8380    6.6460 hc        1 SE8      0.061200
     48 H16         4.2620    0.0410    7.7420 hc        1 SE8      0.078700
     49 H16A        5.6170   -0.3590    6.9580 hc        1 SE8      0.078700
     50 HN21       -4.9630   -0.8530   -8.1100 hn        1 SE8      0.170700
     51 HN2A       -6.0890    0.0580   -8.4110 hn        1 SE8      0.170700
     52 HO26       -1.8190   -1.2700   -2.0930 ho        1 SE8      0.441000
@<TRIPOS>BOND
     1    1   19 2   
     2    1   20 2   
     3    2    3 1   
     4    2   21 2   
     5    2   32 1   
     6    3    4 1   
     7    3   33 1   
     8    3   34 1   
     9    4    5 1   
    10    4   35 1   
    11    5    6 1   
    12    5   22 2   
    13    6    7 1   
    14    6   36 1   
    15    6   37 1   
    16    7    8 1   
    17    7   23 1   
    18    7   26 1   
    19    8    9 1   
    20    8   38 1   
    21    8   39 1   
    22    9   10 1   
    23    9   27 2   
    24   10   11 1   
    25   10   40 1   
    26   11   12 1   
    27   11   41 1   
    28   11   42 1   
    29   12   13 1   
    30   12   43 1   
    31   12   44 1   
    32   13   14 1   
    33   13   45 1   
    34   14   15 1   
    35   14   28 2   
    36   15   16 1   
    37   15   46 1   
    38   15   47 1   
    39   16   17 1   
    40   16   48 1   
    41   16   49 1   
    42   17   18 1   
    43   17   29 2   
    44   18   30 1   
    45   18   31 1   
    46   21   50 1   
    47   21   51 1   
    48   23   24 1   
    49   23   25 1   
    50   26   52 1   
@<TRIPOS>SUBSTRUCTURE
     1 SE8         1 TEMP              0 ****  ****    0 ROOT
