@<TRIPOS>MOLECULE
SE8
   56    54     1     0     0
SMALL
bcc


@<TRIPOS>ATOM
      1 C1          4.7460    5.5730    2.8400 c1        1 SE8      0.438000
      2 C2          4.2020    0.6140    1.4050 c2        1 SE8     -0.633000
      3 C3          3.9390   -0.5540    2.1450 c3        1 SE8      0.050000
      4 N4          5.0170   -1.7210    1.7330 n4        1 SE8     -0.199000
      5 C5          5.2010   -2.7270    2.7820 c2        1 SE8      0.236000
      6 C6          6.5350   -2.7960    3.4870 c3        1 SE8     -0.201000
      7 C7          6.7680   -1.6620    4.4860 c3        1 SE8      0.011000
      8 C8          8.1510   -1.8400    5.1270 c3        1 SE8     -0.176000
      9 C9          8.2740   -1.2010    6.4840 c2        1 SE8      0.291000
     10 N10         7.6990    0.1820    6.6110 n4        1 SE8     -0.111000
     11 C11         7.7820    0.7940    7.9610 c3        1 SE8     -0.153000
     12 C12         8.7900    1.9610    8.0530 c3        1 SE8     -0.034000
     13 N13        10.1710    1.5880    8.0380 n         1 SE8     -0.383000
     14 C14        10.8530    1.2990    6.8750 c2        1 SE8      0.313000
     15 C15        12.3590    1.1330    6.9410 c3        1 SE8     -0.172000
     16 C16        13.0790    2.4610    6.9720 c3        1 SE8     -0.207000
     17 C17        13.1370    3.1030    8.3180 c2        1 SE8      0.204000
     18 C18        13.9540    4.3750    8.3820 c2        1 SE8      0.252000
     19 O19         4.5710    6.7010    3.1550 o         1 SE8     -0.218000
     20 O20         4.9270    4.4340    2.5300 o         1 SE8     -0.218000
     21 N21         5.1310    1.6060    1.8630 n4        1 SE8      0.052000
     22 O22         4.2580   -3.4750    3.0420 o         1 SE8     -0.223000
     23 C23         6.6990   -0.2790    3.7930 c2        1 SE8      0.283000
     24 O24         6.0660    0.6330    4.4130 o         1 SE8     -0.553000
     25 O25         7.2340   -0.1140    2.6670 o         1 SE8     -0.553000
     26 O26         5.8240   -1.7240    5.5500 oh        1 SE8     -0.338000
     27 O27         8.8130   -1.7010    7.4620 o         1 SE8     -0.203000
     28 O28        10.2270    1.1470    5.8010 o         1 SE8     -0.424000
     29 O29        12.5820    2.6800    9.3370 o         1 SE8     -0.289000
     30 O30        14.1970    4.9400    9.5890 oh        1 SE8     -0.250000
     31 O31        14.4240    4.9630    7.4110 o         1 SE8     -0.254000
     32 H2          3.7400    0.8160    0.4360 hx        1 SE8      0.170000
     33 H3          2.9620   -1.0400    1.8950 hx        1 SE8      0.114500
     34 H3A         4.1010   -0.4860    3.2540 hx        1 SE8      0.114500
     35 HN4         4.6660   -2.1650    0.8860 hn        1 SE8      0.236000
     36 H6          7.3640   -2.7710    2.7290 hc        1 SE8      0.146500
     37 H6A         6.5660   -3.7800    4.0330 hc        1 SE8      0.146500
     38 H8          8.3790   -2.9340    5.2620 hc        1 SE8      0.164000
     39 H8A         8.9280   -1.3910    4.4440 hc        1 SE8      0.164000
     40 HN10        6.7020    0.1340    6.3030 hn        1 SE8      0.294000
     41 H11         6.7630    1.2060    8.2110 hx        1 SE8      0.151000
     42 H11A        8.0380   -0.0040    8.7170 hx        1 SE8      0.151000
     43 H12         8.5860    2.6870    7.2110 h1        1 SE8      0.123500
     44 H12A        8.5710    2.4830    9.0310 h1        1 SE8      0.123500
     45 HN13       10.6830    1.6610    8.8920 hn        1 SE8      0.266000
     46 H15        12.6420    0.5160    7.8370 hc        1 SE8      0.135000
     47 H15A       12.6680    0.5700    6.0180 hc        1 SE8      0.135000
     48 H16        12.6120    3.1910    6.2530 hc        1 SE8      0.153000
     49 H16A       14.1410    2.3120    6.6220 hc        1 SE8      0.153000
     50 HN21        6.0990    1.3350    1.6400 hn        1 SE8      0.234333
     51 HN2A        4.9160    2.5020    1.4240 hn        1 SE8      0.234333
     52 HO26        5.0100   -1.2970    5.2440 ho        1 SE8      0.236000
     53 H42         5.9050   -1.2540    1.5180 hn        1 SE8      0.236000
     54 H102        8.1930    0.7800    5.9180 hn        1 SE8      0.294000
     55 H132       13.7860    4.4120   10.2950 ho        1 SE8      0.250000
     56 H213        5.0810    1.7110    2.8870 hn        1 SE8      0.234333
@<TRIPOS>BOND
     1    1   19 1   
     2    1   20 1   
     3    2    3 1   
     4    2   21 1   
     5    2   32 1   
     6    3    4 1   
     7    3   33 1   
     8    3   34 1   
     9    4    5 1   
    10    4   35 1   
    11    4   53 1   
    12    5    6 1   
    13    5   22 1   
    14    6    7 1   
    15    6   36 1   
    16    6   37 1   
    17    7    8 1   
    18    7   23 1   
    19    7   26 1   
    20    8    9 1   
    21    8   38 1   
    22    8   39 1   
    23    9   10 1   
    24    9   27 1   
    25   10   11 1   
    26   10   40 1   
    27   10   54 1   
    28   11   12 1   
    29   11   41 1   
    30   11   42 1   
    31   12   13 1   
    32   12   43 1   
    33   12   44 1   
    34   13   14 1   
    35   13   45 1   
    36   14   15 1   
    37   14   28 1   
    38   15   16 1   
    39   15   46 1   
    40   15   47 1   
    41   16   17 1   
    42   16   48 1   
    43   16   49 1   
    44   17   18 1   
    45   17   29 1   
    46   18   30 1   
    47   18   31 1   
    48   21   50 1   
    49   21   51 1   
    50   21   56 1   
    51   23   24 1   
    52   23   25 1   
    53   26   52 1   
    54   30   55 1   
@<TRIPOS>SUBSTRUCTURE
     1 SE8         1 TEMP              0 ****  ****    0 ROOT
