@<TRIPOS>MOLECULE
SEA
   11    10     1     0     0
SMALL
bcc


@<TRIPOS>ATOM
      1 N          -0.0600   -0.0120    2.4140 n3        1 SEA     -0.915800
      2 CA          0.4550    0.0060    1.0640 c3        1 SEA      0.166800
      3 CB         -0.6470   -0.0160    0.0130 c3        1 SEA      0.005700
      4 SG          0.1650    0.1110   -1.5580 sh        1 SEA     -0.380900
      5 HN1        -0.6610    0.7700    2.5810 hn        1 SEA      0.351300
      6 HN2         0.6950    0.0040    3.0710 hn        1 SEA      0.351300
      7 HA1         1.1130    0.9050    0.8620 h1        1 SEA      0.042200
      8 HA2         1.0970   -0.9130    0.9350 h1        1 SEA      0.042200
      9 HB1        -1.2350   -0.9620    0.0810 h1        1 SEA      0.066200
     10 HB2        -1.3510    0.8390    0.1510 h1        1 SEA      0.066200
     11 HG         -0.8750   -0.1120   -2.3420 hs        1 SEA      0.204800
@<TRIPOS>BOND
     1    1    2 1   
     2    1    5 1   
     3    1    6 1   
     4    2    3 1   
     5    2    7 1   
     6    2    8 1   
     7    3    4 1   
     8    3    9 1   
     9    3   10 1   
    10    4   11 1   
@<TRIPOS>SUBSTRUCTURE
     1 SEA         1 TEMP              0 ****  ****    0 ROOT
