@<TRIPOS>MOLECULE
SEA
   12    11     1     0     0
SMALL
bcc


@<TRIPOS>ATOM
      1 N           0.0350   -0.0430   -0.0220 nz        1 SEA     -0.842600
      2 CA          1.5220   -0.0040    0.1480 c3        1 SEA      0.101800
      3 CB          1.9540    0.1810    1.5920 c3        1 SEA     -0.070300
      4 SG          3.6810    0.4880    1.6030 sh        1 SEA     -0.240900
      5 HN1        -0.3640   -0.8180    0.5170 hn        1 SEA      0.461467
      6 HN2        -0.2030   -0.1680   -1.0120 hn        1 SEA      0.461467
      7 HA1         1.9150    0.8510   -0.4810 hx        1 SEA      0.122700
      8 HA2         1.9350   -0.9710   -0.2640 hx        1 SEA      0.122700
      9 HB1         1.4780    1.0910    2.0430 h1        1 SEA      0.103200
     10 HB2         1.6690   -0.7000    2.2180 h1        1 SEA      0.103200
     11 HG          4.1350   -0.7400    1.8020 hs        1 SEA      0.215800
     12 HN3        -0.3800    0.8330    0.3120 hn        1 SEA      0.461467
@<TRIPOS>BOND
     1    1    2 1   
     2    1    5 1   
     3    1    6 1   
     4    1   12 1   
     5    2    3 1   
     6    2    7 1   
     7    2    8 1   
     8    3    4 1   
     9    3    9 1   
    10    3   10 1   
    11    4   11 1   
@<TRIPOS>SUBSTRUCTURE
     1 SEA         1 TEMP              0 ****  ****    0 ROOT
