@<TRIPOS>MOLECULE
SEA
   12    11     1     0     0
SMALL
bcc


@<TRIPOS>ATOM
      1 N           0.0440   -0.0500   -0.0400 n4        1 SEA     -0.842600
      2 CA          1.5290   -0.0030    0.1490 c3        1 SEA      0.101800
      3 CB          1.9420    0.1830    1.5980 c3        1 SEA     -0.070300
      4 SG          3.6670    0.4990    1.6300 sh        1 SEA     -0.240900
      5 HN1        -0.3570   -0.8280    0.4940 hn        1 SEA      0.461467
      6 HN2        -0.1800   -0.1750   -1.0320 hn        1 SEA      0.461467
      7 HA1         1.9240    0.8550   -0.4740 hx        1 SEA      0.122700
      8 HA2         1.9520   -0.9680   -0.2590 hx        1 SEA      0.122700
      9 HB1         1.4560    1.0900    2.0450 h1        1 SEA      0.103200
     10 HB2         1.6550   -0.7000    2.2200 h1        1 SEA      0.103200
     11 HG          4.1250   -0.7270    1.8350 hs        1 SEA      0.215800
     12 HN3        -0.3790    0.8240    0.2900 hn        1 SEA      0.461467
@<TRIPOS>BOND
     1    1    2 1   
     2    1    5 1   
     3    1    6 1   
     4    1   12 1   
     5    2    3 1   
     6    2    7 1   
     7    2    8 1   
     8    3    4 1   
     9    3    9 1   
    10    3   10 1   
    11    4   11 1   
@<TRIPOS>SUBSTRUCTURE
     1 SEA         1 TEMP              0 ****  ****    0 ROOT
