@<TRIPOS>MOLECULE
SEA
   12    11     1     0     0
SMALL
bcc


@<TRIPOS>ATOM
      1 N           0.0330   -0.0310   -0.0180 n4        1 SEA     -0.842600
      2 CA          1.5200   -0.0090    0.1480 c3        1 SEA      0.101800
      3 CB          1.9590    0.1810    1.5890 c3        1 SEA     -0.070300
      4 SG          3.6900    0.4670    1.5930 sh        1 SEA     -0.240900
      5 HN1        -0.2090   -0.1590   -1.0060 hn        1 SEA      0.461467
      6 HN2        -0.3740   -0.7970    0.5270 hn        1 SEA      0.461467
      7 HA1         1.9210    0.8370   -0.4880 hx        1 SEA      0.122700
      8 HA2         1.9200   -0.9840   -0.2590 hx        1 SEA      0.122700
      9 HB1         1.6650   -0.6910    2.2220 h1        1 SEA      0.103200
     10 HB2         1.4960    1.1010    2.0350 h1        1 SEA      0.103200
     11 HG          4.1280   -0.7660    1.8010 hs        1 SEA      0.215800
     12 HN3        -0.3710    0.8520    0.3120 hn        1 SEA      0.461467
@<TRIPOS>BOND
     1    1    2 1   
     2    1    5 1   
     3    1    6 1   
     4    1   12 1   
     5    2    3 1   
     6    2    7 1   
     7    2    8 1   
     8    3    4 1   
     9    3    9 1   
    10    3   10 1   
    11    4   11 1   
@<TRIPOS>SUBSTRUCTURE
     1 SEA         1 TEMP              0 ****  ****    0 ROOT
