@<TRIPOS>MOLECULE
SEB
   29    29     1     0     0
SMALL
bcc


@<TRIPOS>ATOM
      1 C          -1.2560    0.3400    2.3160 c         1 SEB      0.886600
      2 N           0.5960    0.3590    4.0480 n3        1 SEB     -0.877800
      3 CI2        -2.2850    0.1040   -3.3260 ca        1 SEB     -0.140500
      4 CH2        -1.5380    0.2010   -2.1530 ca        1 SEB     -0.116000
      5 CJ         -1.6830    0.3200   -4.5650 ca        1 SEB     -0.140000
      6 CI1        -0.3270    0.6370   -4.6330 ca        1 SEB     -0.140500
      7 CH1         0.4280    0.7350   -3.4660 ca        1 SEB     -0.116000
      8 CZ         -0.1720    0.5100   -2.2200 ca        1 SEB     -0.043300
      9 CE          0.6140    0.6310   -0.9720 c3        1 SEB     -0.347300
     10 OD2         2.9330   -0.3690   -1.1450 o         1 SEB     -0.673800
     11 OD1         1.1350   -1.9090   -0.8360 o         1 SEB     -0.673800
     12 SD          1.6660   -0.6440   -0.6360 s6        1 SEB      1.577500
     13 OG          1.8810   -0.4930    1.0050 os        1 SEB     -0.564500
     14 CB          0.8990   -0.9210    1.9320 c3        1 SEB      0.190400
     15 CA          0.2750    0.3010    2.6300 c3        1 SEB     -0.005500
     16 O          -2.0610    0.5320    3.2640 o         1 SEB     -0.839800
     17 OXT        -1.6010    0.1920    1.1050 o         1 SEB     -0.839800
     18 H           0.0590    1.1130    4.4450 hn        1 SEB      0.335300
     19 H2          0.2660   -0.4830    4.4860 hn        1 SEB      0.335300
     20 HJ         -2.2760    0.2410   -5.4870 ha        1 SEB      0.115000
     21 HI1         0.1500    0.8090   -5.6080 ha        1 SEB      0.122000
     22 HH1         1.4980    0.9880   -3.5210 ha        1 SEB      0.165500
     23 HE3        -0.1350    0.7500   -0.1070 h1        1 SEB      0.166200
     24 HE2         1.1730    1.6070   -0.9930 h1        1 SEB      0.166200
     25 HB3         1.4440   -1.5960    2.6460 h1        1 SEB      0.057200
     26 HB2         0.1040   -1.5080    1.3920 h1        1 SEB      0.057200
     27 HA          0.7180    1.2300    2.1630 h1        1 SEB      0.058700
     28 HI2        -3.3550   -0.1430   -3.2680 ha        1 SEB      0.122000
     29 HH2        -2.0080    0.0400   -1.1620 ha        1 SEB      0.165500
@<TRIPOS>BOND
     1    1   15 1   
     2    1   16 1   
     3    1   17 1   
     4    2   15 1   
     5    2   18 1   
     6    2   19 1   
     7    3    4 ar  
     8    3    5 ar  
     9    3   28 1   
    10    4    8 ar  
    11    4   29 1   
    12    5    6 ar  
    13    5   20 1   
    14    6    7 ar  
    15    6   21 1   
    16    7    8 ar  
    17    7   22 1   
    18    8    9 1   
    19    9   12 1   
    20    9   23 1   
    21    9   24 1   
    22   10   12 2   
    23   11   12 2   
    24   12   13 1   
    25   13   14 1   
    26   14   15 1   
    27   14   25 1   
    28   14   26 1   
    29   15   27 1   
@<TRIPOS>SUBSTRUCTURE
     1 SEB         1 TEMP              0 ****  ****    0 ROOT
