@<TRIPOS>MOLECULE
SEC
   13    12     1     0     0
SMALL
bcc


@<TRIPOS>ATOM
      1 N           1.7350    0.3390    0.5390 n3        1 SEC     -0.882800
      2 CA          0.2970    0.3170    0.7730 c3        1 SEC      0.021500
      3 CB         -0.4660   -0.5740   -0.1910 c3        1 SEC      0.052700
      4 SE         -0.4730    0.1240   -1.8350 sh        1 SEC     -0.434900
      5 C          -0.1120   -0.0990    2.2350 c         1 SEC      0.890600
      6 O           0.8060   -0.1910    3.0960 o         1 SEC     -0.836800
      7 OXT        -1.3370   -0.2980    2.4630 o         1 SEC     -0.836800
      8 H           2.1590    0.7600    1.3510 hn        1 SEC      0.332300
      9 H2          2.0700   -0.6080    0.5060 hn        1 SEC      0.332300
     10 HA         -0.0640    1.3790    0.6420 h1        1 SEC      0.060700
     11 HB2        -0.0200   -1.5950   -0.2400 h1        1 SEC      0.067200
     12 HB3        -1.5160   -0.6600    0.1870 h1        1 SEC      0.067200
     13 HE         -1.5580   -0.4680   -2.2930 hs        1 SEC      0.165800
@<TRIPOS>BOND
     1    1    2 1   
     2    1    8 1   
     3    1    9 1   
     4    2    3 1   
     5    2    5 1   
     6    2   10 1   
     7    3    4 1   
     8    3   11 1   
     9    3   12 1   
    10    4   13 1   
    11    5    6 1   
    12    5    7 1   
@<TRIPOS>SUBSTRUCTURE
     1 SEC         1 TEMP              0 ****  ****    0 ROOT
