@<TRIPOS>MOLECULE
SEF
   65    64     1     0     0
SMALL
bcc


@<TRIPOS>ATOM
      1 F          -0.2670    0.4730    0.0410 f         1 SEF     -0.341400
      2 C1          1.5740    2.0180   -0.8530 c3        1 SEF     -0.414600
      3 O1          1.7890   -0.6390   -0.7620 o         1 SEF     -0.839300
      4 P1          1.2500    0.5690   -0.1470 p5        1 SEF      1.590300
      5 C2          1.4340    1.8350   -2.3440 c3        1 SEF     -0.077400
      6 O2          1.7180    0.7600    1.3790 os        1 SEF     -0.604200
      7 C3          1.8080    3.0750   -3.1210 c3        1 SEF     -0.069400
      8 C4          1.6670    2.8410   -4.6100 c3        1 SEF     -0.081400
      9 C5          2.0740    4.0670   -5.4000 c3        1 SEF     -0.078400
     10 C6          1.9460    3.8190   -6.8880 c3        1 SEF     -0.080400
     11 C7          2.3720    5.0350   -7.6840 c3        1 SEF     -0.078400
     12 C8          2.2510    4.7740   -9.1710 c3        1 SEF     -0.078400
     13 C9          2.6920    5.9890   -9.9650 c3        1 SEF     -0.094400
     14 C01         1.9870   -0.4490    2.0660 c3        1 SEF      0.164400
     15 N01         3.5310    8.1790  -14.0130 n4        1 SEF     -0.640800
     16 O01         3.0320    6.9190  -12.1080 os        1 SEF     -0.405900
     17 C02         2.5310   -0.1240    3.4340 c3        1 SEF     -0.096100
     18 O02         2.6630    5.9590  -14.1580 o         1 SEF     -0.415000
     19 C10         2.5630    5.6930  -11.4440 c3        1 SEF      0.156400
     20 C12         3.0220    6.8890  -13.4500 c         1 SEF      0.613100
     21 C14         2.4790    8.8570  -14.8430 c3        1 SEF      0.109800
     22 C15         3.0070   10.1100  -15.5260 c3        1 SEF     -0.110400
     23 C16         1.8910   10.7370  -16.3420 c3        1 SEF     -0.079400
     24 C17         2.3860   11.9900  -17.0350 c3        1 SEF     -0.078400
     25 C18         1.2710   12.6200  -17.8550 c3        1 SEF      0.007700
     26 C19         1.7090   13.8100  -18.5200 c1        1 SEF     -0.172100
     27 C20         2.0540   14.8060  -19.0850 c1        1 SEF     -0.113500
     28 H1          2.6110    2.3760   -0.6170 hc        1 SEF      0.117200
     29 H1A         0.9050    2.8480   -0.5090 hc        1 SEF      0.117200
     30 H2          0.3710    1.5500   -2.5670 hc        1 SEF      0.063700
     31 H41         2.0830    0.9710   -2.6590 hc        1 SEF      0.063700
     32 H3          1.1520    3.9300   -2.8080 hc        1 SEF      0.044200
     33 H61         2.8650    3.3630   -2.8820 hc        1 SEF      0.044200
     34 H4          2.3050    1.9690   -4.9140 hc        1 SEF      0.046700
     35 H4A         0.6040    2.5740   -4.8510 hc        1 SEF      0.046700
     36 H5          3.1340    4.3390   -5.1530 hc        1 SEF      0.042200
     37 H5A         1.4300    4.9370   -5.1050 hc        1 SEF      0.042200
     38 H6          0.8830    3.5600   -7.1360 hc        1 SEF      0.046200
     39 H6A         2.5780    2.9390   -7.1780 hc        1 SEF      0.046200
     40 H7          3.4330    5.2970   -7.4320 hc        1 SEF      0.046700
     41 H7A         1.7350    5.9140   -7.4010 hc        1 SEF      0.046700
     42 H8          2.8820    3.8890   -9.4510 hc        1 SEF      0.053200
     43 H8A         1.1870    4.5220   -9.4240 hc        1 SEF      0.053200
     44 H9          3.7560    6.2450   -9.7190 hc        1 SEF      0.068200
     45 H9A         2.0610    6.8760   -9.6960 hc        1 SEF      0.068200
     46 H01         1.0200   -1.0190    2.1320 h1        1 SEF      0.046700
     47 H201        2.7220   -1.0420    1.4540 h1        1 SEF      0.046700
     48 HN01        3.8240    8.7990  -13.2460 hn        1 SEF      0.473800
     49 H02         3.4810    0.4560    3.3480 hc        1 SEF      0.048033
     50 H02A        2.7290   -1.0730    3.9870 hc        1 SEF      0.048033
     51 H24         1.7980    0.4910    4.0090 hc        1 SEF      0.048033
     52 H10         1.5040    5.5180  -11.7630 h1        1 SEF      0.082200
     53 H10A        3.2210    4.8510  -11.7790 h1        1 SEF      0.082200
     54 H14         2.1220    8.1100  -15.6110 hx        1 SEF      0.117700
     55 H14A        1.6210    9.1140  -14.1580 hx        1 SEF      0.117700
     56 H15         3.8660    9.8590  -16.2030 hc        1 SEF      0.070200
     57 H15A        3.3730   10.8510  -14.7650 hc        1 SEF      0.070200
     58 H16         1.0280   10.9910  -15.6730 hc        1 SEF      0.058200
     59 H16A        1.5220   10.0030  -17.1070 hc        1 SEF      0.058200
     60 H17         3.2490   11.7390  -17.7060 hc        1 SEF      0.056200
     61 H17A        2.7540   12.7260  -16.2740 hc        1 SEF      0.056200
     62 H18         0.9010   11.8800  -18.6190 hc        1 SEF      0.062200
     63 H18A        0.4020   12.8670  -17.1820 hc        1 SEF      0.062200
     64 H20         2.3560   15.6910  -19.5890 ha        1 SEF      0.174500
     65 H012        4.3480    7.9720  -14.6030 hn        1 SEF      0.473800
@<TRIPOS>BOND
     1    1    4 1   
     2    2    4 1   
     3    2    5 1   
     4    2   28 1   
     5    2   29 1   
     6    3    4 2   
     7    4    6 1   
     8    5    7 1   
     9    5   30 1   
    10    5   31 1   
    11    6   14 1   
    12    7    8 1   
    13    7   32 1   
    14    7   33 1   
    15    8    9 1   
    16    8   34 1   
    17    8   35 1   
    18    9   10 1   
    19    9   36 1   
    20    9   37 1   
    21   10   11 1   
    22   10   38 1   
    23   10   39 1   
    24   11   12 1   
    25   11   40 1   
    26   11   41 1   
    27   12   13 1   
    28   12   42 1   
    29   12   43 1   
    30   13   19 1   
    31   13   44 1   
    32   13   45 1   
    33   14   17 1   
    34   14   46 1   
    35   14   47 1   
    36   15   20 1   
    37   15   21 1   
    38   15   48 1   
    39   15   65 1   
    40   16   19 1   
    41   16   20 1   
    42   17   49 1   
    43   17   50 1   
    44   17   51 1   
    45   18   20 2   
    46   19   52 1   
    47   19   53 1   
    48   21   22 1   
    49   21   54 1   
    50   21   55 1   
    51   22   23 1   
    52   22   56 1   
    53   22   57 1   
    54   23   24 1   
    55   23   58 1   
    56   23   59 1   
    57   24   25 1   
    58   24   60 1   
    59   24   61 1   
    60   25   26 1   
    61   25   62 1   
    62   25   63 1   
    63   26   27 3   
    64   27   64 1   
@<TRIPOS>SUBSTRUCTURE
     1 SEF         1 TEMP              0 ****  ****    0 ROOT
