@<TRIPOS>MOLECULE
SEF
   65    64     1     0     0
SMALL
bcc


@<TRIPOS>ATOM
      1 F          -0.2600    0.5160    0.0770 f         1 SEF     -0.341400
      2 C1          1.6040    2.0170   -0.8440 c3        1 SEF     -0.414600
      3 O1          1.7530   -0.6440   -0.7650 o         1 SEF     -0.839300
      4 P1          1.2560    0.5750   -0.1370 p5        1 SEF      1.590300
      5 C2          1.4340    1.8430   -2.3330 c3        1 SEF     -0.077400
      6 O2          1.7550    0.7490    1.3810 os        1 SEF     -0.604200
      7 C3          1.8250    3.0760   -3.1130 c3        1 SEF     -0.069400
      8 C4          1.6540    2.8500   -4.6010 c3        1 SEF     -0.081400
      9 C5          2.0770    4.0680   -5.3940 c3        1 SEF     -0.078400
     10 C6          1.9180    3.8280   -6.8800 c3        1 SEF     -0.080400
     11 C7          2.3610    5.0350   -7.6800 c3        1 SEF     -0.078400
     12 C8          2.2100    4.7820   -9.1660 c3        1 SEF     -0.078400
     13 C9          2.6680    5.9870   -9.9630 c3        1 SEF     -0.094400
     14 C01         2.0050   -0.4690    2.0600 c3        1 SEF      0.164400
     15 N01         3.4990    8.1660  -14.0200 ny        1 SEF     -0.640800
     16 O01         2.9970    6.9150  -12.1100 os        1 SEF     -0.405900
     17 C02         2.5810   -0.1620    3.4190 c3        1 SEF     -0.096100
     18 O02         2.5790    5.9660  -14.1560 o         1 SEF     -0.415000
     19 C10         2.5090    5.6990  -11.4400 c3        1 SEF      0.156400
     20 C12         2.9690    6.8860  -13.4520 c         1 SEF      0.613100
     21 C14         2.4570    8.8620  -14.8440 c3        1 SEF      0.109800
     22 C15         3.0060   10.1030  -15.5340 c3        1 SEF     -0.110400
     23 C16         1.8990   10.7500  -16.3460 c3        1 SEF     -0.079400
     24 C17         2.4140   11.9910  -17.0450 c3        1 SEF     -0.078400
     25 C18         1.3080   12.6410  -17.8610 c3        1 SEF      0.007700
     26 C19         1.7660   13.8200  -18.5330 c1        1 SEF     -0.172100
     27 C20         2.1280   14.8070  -19.1030 c1        1 SEF     -0.113500
     28 H1          2.6540    2.3480   -0.6250 hc        1 SEF      0.117200
     29 H1A         0.9610    2.8630   -0.4860 hc        1 SEF      0.117200
     30 H2          0.3600    1.5850   -2.5390 hc        1 SEF      0.063700
     31 H41         2.0560    0.9640   -2.6620 hc        1 SEF      0.063700
     32 H3          1.1960    3.9460   -2.7860 hc        1 SEF      0.044200
     33 H61         2.8930    3.3370   -2.8910 hc        1 SEF      0.044200
     34 H4          2.2640    1.9630   -4.9180 hc        1 SEF      0.046700
     35 H4A         0.5810    2.6100   -4.8230 hc        1 SEF      0.046700
     36 H5          3.1480    4.3130   -5.1640 hc        1 SEF      0.042200
     37 H5A         1.4600    4.9530   -5.0850 hc        1 SEF      0.042200
     38 H6          0.8450    3.5960   -7.1110 hc        1 SEF      0.046200
     39 H6A         2.5230    2.9330   -7.1830 hc        1 SEF      0.046200
     40 H7          3.4330    5.2700   -7.4440 hc        1 SEF      0.046700
     41 H7A         1.7510    5.9290   -7.3840 hc        1 SEF      0.046700
     42 H8          2.8140    3.8820   -9.4570 hc        1 SEF      0.053200
     43 H8A         1.1360    4.5570   -9.4010 hc        1 SEF      0.053200
     44 H9          3.7420    6.2160   -9.7330 hc        1 SEF      0.068200
     45 H9A         2.0640    6.8890   -9.6830 hc        1 SEF      0.068200
     46 H01         1.0250   -1.0140    2.1420 h1        1 SEF      0.046700
     47 H201        2.7140   -1.0780    1.4330 h1        1 SEF      0.046700
     48 HN01        3.8100    8.7800  -13.2550 hn        1 SEF      0.473300
     49 H02         3.5440    0.3930    3.3170 hc        1 SEF      0.048033
     50 H02A        2.7640   -1.1180    3.9660 hc        1 SEF      0.048033
     51 H24         1.8740    0.4690    4.0080 hc        1 SEF      0.048033
     52 H10         1.4410    5.5500  -11.7430 h1        1 SEF      0.082200
     53 H10A        3.1410    4.8420  -11.7880 h1        1 SEF      0.082200
     54 H14         2.0790    8.1210  -15.6080 hx        1 SEF      0.117700
     55 H14A        1.6080    9.1400  -14.1550 hx        1 SEF      0.117700
     56 H15         3.8560    9.8320  -16.2160 hc        1 SEF      0.070200
     57 H15A        3.3910   10.8380  -14.7780 hc        1 SEF      0.070200
     58 H16         1.0440   11.0240  -15.6720 hc        1 SEF      0.058200
     59 H16A        1.5100   10.0220  -17.1060 hc        1 SEF      0.058200
     60 H17         3.2680   11.7200  -17.7200 hc        1 SEF      0.056200
     61 H17A        2.8020   12.7220  -16.2880 hc        1 SEF      0.056200
     62 H18         0.9180   11.9060  -18.6200 hc        1 SEF      0.062200
     63 H18A        0.4480   12.9080  -17.1830 hc        1 SEF      0.062200
     64 H20         2.4450   15.6840  -19.6110 ha        1 SEF      0.174500
     65 H012        4.3090    7.9410  -14.6140 hn        1 SEF      0.473300
@<TRIPOS>BOND
     1    1    4 1   
     2    2    4 1   
     3    2    5 1   
     4    2   28 1   
     5    2   29 1   
     6    3    4 2   
     7    4    6 1   
     8    5    7 1   
     9    5   30 1   
    10    5   31 1   
    11    6   14 1   
    12    7    8 1   
    13    7   32 1   
    14    7   33 1   
    15    8    9 1   
    16    8   34 1   
    17    8   35 1   
    18    9   10 1   
    19    9   36 1   
    20    9   37 1   
    21   10   11 1   
    22   10   38 1   
    23   10   39 1   
    24   11   12 1   
    25   11   40 1   
    26   11   41 1   
    27   12   13 1   
    28   12   42 1   
    29   12   43 1   
    30   13   19 1   
    31   13   44 1   
    32   13   45 1   
    33   14   17 1   
    34   14   46 1   
    35   14   47 1   
    36   15   20 1   
    37   15   21 1   
    38   15   48 1   
    39   15   65 1   
    40   16   19 1   
    41   16   20 1   
    42   17   49 1   
    43   17   50 1   
    44   17   51 1   
    45   18   20 2   
    46   19   52 1   
    47   19   53 1   
    48   21   22 1   
    49   21   54 1   
    50   21   55 1   
    51   22   23 1   
    52   22   56 1   
    53   22   57 1   
    54   23   24 1   
    55   23   58 1   
    56   23   59 1   
    57   24   25 1   
    58   24   60 1   
    59   24   61 1   
    60   25   26 1   
    61   25   62 1   
    62   25   63 1   
    63   26   27 3   
    64   27   64 1   
@<TRIPOS>SUBSTRUCTURE
     1 SEF         1 TEMP              0 ****  ****    0 ROOT
