@<TRIPOS>MOLECULE
SEF
   64    62     1     0     0
SMALL
bcc


@<TRIPOS>ATOM
      1 F          -5.1140   -4.4600    3.3880 f         1 SEF     -0.338400
      2 C1         -3.9690   -3.1570    5.5680 c3        1 SEF     -0.419600
      3 O1         -3.7890   -5.8120    5.0200 o         1 SEF     -0.841300
      4 P1         -4.7430   -4.6790    4.9020 p5        1 SEF      1.601300
      5 C2         -2.5520   -3.0120    5.0020 c3        1 SEF     -0.077400
      6 O2         -6.0760   -5.0120    5.7370 os        1 SEF     -0.615200
      7 C3         -2.0590   -1.5850    5.2240 c3        1 SEF     -0.069400
      8 C4         -0.6560   -1.4390    4.6650 c3        1 SEF     -0.080400
      9 C5         -0.3830    0.0500    4.3430 c3        1 SEF     -0.078400
     10 C6          1.0120    0.1940    3.7240 c3        1 SEF     -0.079400
     11 C7          1.0940    1.5350    2.9250 c3        1 SEF     -0.078400
     12 C8          2.3190    1.4930    1.9700 c3        1 SEF     -0.080400
     13 C9          2.2220    2.6450    0.9600 c3        1 SEF     -0.084400
     14 C01        -7.0990   -5.8200    5.1120 c3        1 SEF      0.169400
     15 N01         3.3010    3.2730   -3.8270 n         1 SEF     -0.512900
     16 O01         2.8360    3.0720   -1.3530 os        1 SEF     -0.450900
     17 C02        -8.0800   -6.3380    6.1920 c3        1 SEF     -0.115100
     18 O02         4.6440    2.0610   -2.3630 o         1 SEF     -0.582000
     19 C10         3.2890    2.4640   -0.1220 c3        1 SEF      0.151400
     20 C12         3.6460    2.7370   -2.5020 c         1 SEF      0.721100
     21 C14         3.7820    2.6020   -5.0370 c3        1 SEF      0.077000
     22 C15         3.2260    3.3120   -6.2700 c3        1 SEF     -0.114400
     23 C16         3.3760    2.4040   -7.4940 c3        1 SEF     -0.077400
     24 C17         2.8730    3.1430   -8.7480 c3        1 SEF     -0.075400
     25 C18         2.6930    2.1400   -9.8970 c3        1 SEF     -0.003300
     26 C19         2.4520    2.8910  -11.1920 c1        1 SEF     -0.140100
     27 C20         2.2620    3.4800  -12.2060 c1        1 SEF     -0.216000
     28 H1         -4.5060   -2.3770    5.3090 hc        1 SEF      0.116700
     29 H1A        -3.9260   -3.2130    6.5320 hc        1 SEF      0.116700
     30 H2         -2.5610   -3.2090    4.0420 hc        1 SEF      0.061200
     31 H41        -1.9550   -3.6370    5.4560 hc        1 SEF      0.061200
     32 H3         -2.6570   -0.9590    4.7690 hc        1 SEF      0.043200
     33 H61        -2.0510   -1.3880    6.1840 hc        1 SEF      0.043200
     34 H4         -0.0030   -1.7570    5.3300 hc        1 SEF      0.044200
     35 H4A        -0.5740   -1.9700    3.8490 hc        1 SEF      0.044200
     36 H5         -1.0510    0.3740    3.7130 hc        1 SEF      0.040200
     37 H5A        -0.4300    0.5780    5.1710 hc        1 SEF      0.040200
     38 H6          1.1800   -0.5590    3.1180 hc        1 SEF      0.041700
     39 H6A         1.6840    0.1970    4.4340 hc        1 SEF      0.041700
     40 H7          0.2760    1.6530    2.4010 hc        1 SEF      0.039200
     41 H7A         1.1910    2.2820    3.5500 hc        1 SEF      0.039200
     42 H8          2.3310    0.6390    1.4910 hc        1 SEF      0.047200
     43 H8A         3.1480    1.5860    2.4950 hc        1 SEF      0.047200
     44 H9          2.3650    3.4910    1.4180 hc        1 SEF      0.054700
     45 H9A         1.3360    2.6420    0.5480 hc        1 SEF      0.054700
     46 H01        -6.6840   -6.5780    4.6600 h1        1 SEF      0.058200
     47 H201       -7.5900   -5.2770    4.4570 h1        1 SEF      0.058200
     48 HN01        2.7890    4.0330   -3.8960 hn        1 SEF      0.310500
     49 H02        -8.8180   -6.8310    5.7580 hc        1 SEF      0.044367
     50 H02A       -7.6060   -6.9330    6.8030 hc        1 SEF      0.044367
     51 H24        -8.4460   -5.5760    6.6940 hc        1 SEF      0.044367
     52 H10         4.1160    2.8880    0.1640 h1        1 SEF      0.055700
     53 H10A        3.4460    1.5080   -0.2690 h1        1 SEF      0.055700
     54 H14         4.7630    2.6290   -5.0590 h1        1 SEF      0.070200
     55 H14A        3.4820    1.6710   -5.0340 h1        1 SEF      0.070200
     56 H15         2.2800    3.5160   -6.1300 hc        1 SEF      0.048200
     57 H15A        3.7190    4.1400   -6.4180 hc        1 SEF      0.048200
     58 H16         4.3150    2.1690   -7.6110 hc        1 SEF      0.044700
     59 H16A        2.8470    1.5840   -7.3610 hc        1 SEF      0.044700
     60 H17         2.0200    3.5680   -8.5520 hc        1 SEF      0.049200
     61 H17A        3.5260    3.8260   -9.0090 hc        1 SEF      0.049200
     62 H18         1.9230    1.5590   -9.7080 hc        1 SEF      0.059700
     63 H18A        3.5070    1.5900   -9.9840 hc        1 SEF      0.059700
     64 H20         2.1080    3.9610  -13.0350 DU        1 SEF      0.222000
@<TRIPOS>BOND
     1    1    4 1   
     2    2    4 1   
     3    2    5 1   
     4    2   28 1   
     5    2   29 1   
     6    3    4 2   
     7    4    6 1   
     8    5    7 1   
     9    5   30 1   
    10    5   31 1   
    11    6   14 1   
    12    7    8 1   
    13    7   32 1   
    14    7   33 1   
    15    8    9 1   
    16    8   34 1   
    17    8   35 1   
    18    9   10 1   
    19    9   36 1   
    20    9   37 1   
    21   10   11 1   
    22   10   38 1   
    23   10   39 1   
    24   11   12 1   
    25   11   40 1   
    26   11   41 1   
    27   12   13 1   
    28   12   42 1   
    29   12   43 1   
    30   13   19 1   
    31   13   44 1   
    32   13   45 1   
    33   14   17 1   
    34   14   46 1   
    35   14   47 1   
    36   15   20 1   
    37   15   21 1   
    38   15   48 1   
    39   16   19 1   
    40   16   20 1   
    41   17   49 1   
    42   17   50 1   
    43   17   51 1   
    44   18   20 2   
    45   19   52 1   
    46   19   53 1   
    47   21   22 1   
    48   21   54 1   
    49   21   55 1   
    50   22   23 1   
    51   22   56 1   
    52   22   57 1   
    53   23   24 1   
    54   23   58 1   
    55   23   59 1   
    56   24   25 1   
    57   24   60 1   
    58   24   61 1   
    59   25   26 1   
    60   25   62 1   
    61   25   63 1   
    62   26   27 3   
@<TRIPOS>SUBSTRUCTURE
     1 SEF         1 TEMP              0 ****  ****    0 ROOT
