@<TRIPOS>MOLECULE
SEF
   65    64     1     0     0
SMALL
bcc


@<TRIPOS>ATOM
      1 F          -0.2580    0.4550    0.0410 f         1 SEF     -0.341400
      2 C1          1.5760    2.0100   -0.8480 c3        1 SEF     -0.414600
      3 O1          1.8040   -0.6450   -0.7630 o         1 SEF     -0.839300
      4 P1          1.2590    0.5590   -0.1460 p5        1 SEF      1.590300
      5 C2          1.4380    1.8300   -2.3400 c3        1 SEF     -0.077400
      6 O2          1.7250    0.7490    1.3810 os        1 SEF     -0.604200
      7 C3          1.8060    3.0740   -3.1140 c3        1 SEF     -0.069400
      8 C4          1.6680    2.8420   -4.6040 c3        1 SEF     -0.081400
      9 C5          2.0700    4.0710   -5.3910 c3        1 SEF     -0.078400
     10 C6          1.9440    3.8260   -6.8800 c3        1 SEF     -0.080400
     11 C7          2.3660    5.0440   -7.6730 c3        1 SEF     -0.078400
     12 C8          2.2480    4.7860   -9.1610 c3        1 SEF     -0.078400
     13 C9          2.6850    6.0030   -9.9520 c3        1 SEF     -0.094400
     14 C01         1.9990   -0.4610    2.0660 c3        1 SEF      0.164400
     15 N01         3.5240    8.2030  -13.9960 n4        1 SEF     -0.640800
     16 O01         3.0240    6.9390  -12.0930 os        1 SEF     -0.405900
     17 C02         2.5410   -0.1360    3.4350 c3        1 SEF     -0.096100
     18 O02         2.6710    5.9770  -14.1450 o         1 SEF     -0.415000
     19 C10         2.5600    5.7090  -11.4310 c3        1 SEF      0.156400
     20 C12         3.0210    6.9090  -13.4360 c         1 SEF      0.613100
     21 C14         2.4770    8.8660  -14.8420 c3        1 SEF      0.109800
     22 C15         3.0020   10.1230  -15.5230 c3        1 SEF     -0.110400
     23 C16         1.8920   10.7340  -16.3570 c3        1 SEF     -0.079400
     24 C17         2.3830   11.9900  -17.0480 c3        1 SEF     -0.078400
     25 C18         1.2740   12.6050  -17.8870 c3        1 SEF      0.007700
     26 C19         1.7090   13.7980  -18.5490 c1        1 SEF     -0.172100
     27 C20         2.0520   14.7960  -19.1130 c1        1 SEF     -0.113500
     28 H1          2.6120    2.3730   -0.6100 hc        1 SEF      0.117200
     29 H1A         0.9020    2.8370   -0.5030 hc        1 SEF      0.117200
     30 H2          0.3770    1.5400   -2.5640 hc        1 SEF      0.063700
     31 H41         2.0920    0.9710   -2.6560 hc        1 SEF      0.063700
     32 H3          1.1460    3.9250   -2.8000 hc        1 SEF      0.044200
     33 H61         2.8620    3.3670   -2.8730 hc        1 SEF      0.044200
     34 H4          2.3100    1.9730   -4.9090 hc        1 SEF      0.046700
     35 H4A         0.6070    2.5700   -4.8460 hc        1 SEF      0.046700
     36 H5          3.1280    4.3480   -5.1420 hc        1 SEF      0.042200
     37 H5A         1.4220    4.9380   -5.0950 hc        1 SEF      0.042200
     38 H6          0.8830    3.5620   -7.1290 hc        1 SEF      0.046200
     39 H6A         2.5810    2.9480   -7.1700 hc        1 SEF      0.046200
     40 H7          3.4260    5.3110   -7.4190 hc        1 SEF      0.046700
     41 H7A         1.7250    5.9200   -7.3890 hc        1 SEF      0.046700
     42 H8          2.8830    3.9040   -9.4410 hc        1 SEF      0.053200
     43 H8A         1.1850    4.5300   -9.4150 hc        1 SEF      0.053200
     44 H9          3.7470    6.2640   -9.7040 hc        1 SEF      0.068200
     45 H9A         2.0500    6.8880   -9.6830 hc        1 SEF      0.068200
     46 H01         1.0350   -1.0350    2.1300 h1        1 SEF      0.046700
     47 H201        2.7380   -1.0480    1.4520 h1        1 SEF      0.046700
     48 HN01        3.8000    8.8270  -13.2260 hn        1 SEF      0.473300
     49 H02         3.4880    0.4480    3.3500 hc        1 SEF      0.048033
     50 H02A        2.7430   -1.0850    3.9860 hc        1 SEF      0.048033
     51 H24         1.8050    0.4740    4.0110 hc        1 SEF      0.048033
     52 H10         1.5020    5.5300  -11.7530 h1        1 SEF      0.082200
     53 H10A        3.2230    4.8710  -11.7670 h1        1 SEF      0.082200
     54 H14         2.1370    8.1130  -15.6120 hx        1 SEF      0.117700
     55 H14A        1.6070    9.1190  -14.1700 hx        1 SEF      0.117700
     56 H15         3.8730    9.8770  -16.1870 hc        1 SEF      0.070200
     57 H15A        3.3490   10.8700  -14.7600 hc        1 SEF      0.070200
     58 H16         1.0160   10.9820  -15.7020 hc        1 SEF      0.058200
     59 H16A        1.5410    9.9940  -17.1250 hc        1 SEF      0.058200
     60 H17         3.2590   11.7460  -17.7040 hc        1 SEF      0.056200
     61 H17A        2.7320   12.7330  -16.2840 hc        1 SEF      0.056200
     62 H18         0.9240   11.8580  -18.6540 hc        1 SEF      0.062200
     63 H18A        0.3920   12.8450  -17.2280 hc        1 SEF      0.062200
     64 H20         2.3510   15.6820  -19.6150 ha        1 SEF      0.174500
     65 H012        4.3510    8.0020  -14.5730 hn        1 SEF      0.473300
@<TRIPOS>BOND
     1    1    4 1   
     2    2    4 1   
     3    2    5 1   
     4    2   28 1   
     5    2   29 1   
     6    3    4 2   
     7    4    6 1   
     8    5    7 1   
     9    5   30 1   
    10    5   31 1   
    11    6   14 1   
    12    7    8 1   
    13    7   32 1   
    14    7   33 1   
    15    8    9 1   
    16    8   34 1   
    17    8   35 1   
    18    9   10 1   
    19    9   36 1   
    20    9   37 1   
    21   10   11 1   
    22   10   38 1   
    23   10   39 1   
    24   11   12 1   
    25   11   40 1   
    26   11   41 1   
    27   12   13 1   
    28   12   42 1   
    29   12   43 1   
    30   13   19 1   
    31   13   44 1   
    32   13   45 1   
    33   14   17 1   
    34   14   46 1   
    35   14   47 1   
    36   15   20 1   
    37   15   21 1   
    38   15   48 1   
    39   15   65 1   
    40   16   19 1   
    41   16   20 1   
    42   17   49 1   
    43   17   50 1   
    44   17   51 1   
    45   18   20 2   
    46   19   52 1   
    47   19   53 1   
    48   21   22 1   
    49   21   54 1   
    50   21   55 1   
    51   22   23 1   
    52   22   56 1   
    53   22   57 1   
    54   23   24 1   
    55   23   58 1   
    56   23   59 1   
    57   24   25 1   
    58   24   60 1   
    59   24   61 1   
    60   25   26 1   
    61   25   62 1   
    62   25   63 1   
    63   26   27 3   
    64   27   64 1   
@<TRIPOS>SUBSTRUCTURE
     1 SEF         1 TEMP              0 ****  ****    0 ROOT
