@<TRIPOS>MOLECULE
SEF
   64    63     1     0     0
SMALL
bcc


@<TRIPOS>ATOM
      1 F          -8.8910   -0.1570    2.4100 f         1 SEF     -0.342400
      2 C1         -7.5660   -0.9600    0.3650 c3        1 SEF     -0.417600
      3 O1         -9.0680    1.2500    0.3880 o         1 SEF     -0.839300
      4 P1         -8.8700   -0.1090    0.8790 p5        1 SEF      1.592300
      5 C2         -6.3510   -0.0810    0.5380 c3        1 SEF     -0.077400
      6 O2        -10.1210   -1.0700    0.5540 os        1 SEF     -0.605200
      7 C3         -5.0860   -0.7350    0.0350 c3        1 SEF     -0.069400
      8 C4         -3.8880    0.1700    0.2320 c3        1 SEF     -0.080400
      9 C5         -2.6210   -0.4840   -0.2770 c3        1 SEF     -0.078400
     10 C6         -1.4220    0.4190   -0.0780 c3        1 SEF     -0.079400
     11 C7         -0.1550   -0.2340   -0.5880 c3        1 SEF     -0.078400
     12 C8          1.0440    0.6680   -0.3880 c3        1 SEF     -0.078400
     13 C9          2.3080    0.0120   -0.8990 c3        1 SEF     -0.087400
     14 C01       -11.3590   -0.3960    0.4230 c3        1 SEF      0.165400
     15 N01         6.8590    0.2690   -1.8070 n         1 SEF     -0.512900
     16 O01         4.6370    0.2210   -1.1970 os        1 SEF     -0.451900
     17 C02       -12.4150   -1.3890    0.0090 c3        1 SEF     -0.096100
     18 O02         5.8510    2.0180   -0.5710 o         1 SEF     -0.582000
     19 C10         3.4950    0.9330   -0.6860 c3        1 SEF      0.151400
     20 C12         5.8310    0.9130   -1.1360 c         1 SEF      0.722100
     21 C14         8.2240    0.6250   -1.5100 c3        1 SEF      0.077000
     22 C15         8.9030   -0.2270   -0.4370 c3        1 SEF     -0.114400
     23 C16        10.3390    0.2130   -0.2600 c3        1 SEF     -0.077400
     24 C17        11.0370   -0.6230    0.7920 c3        1 SEF     -0.075400
     25 C18        12.4770   -0.1710    0.9690 c3        1 SEF     -0.003300
     26 C19        13.1720   -0.9490    1.9520 c1        1 SEF     -0.140100
     27 C20        13.7630   -1.5900    2.7710 c1        1 SEF     -0.158500
     28 H1         -7.4120   -1.9260    0.9130 hc        1 SEF      0.117700
     29 H1A        -7.6550   -1.2590   -0.7130 hc        1 SEF      0.117700
     30 H2         -6.5310    0.8860   -0.0100 hc        1 SEF      0.061200
     31 H41        -6.2460    0.1680    1.6280 hc        1 SEF      0.061200
     32 H3         -4.9220   -1.7030    0.5780 hc        1 SEF      0.043200
     33 H61        -5.1990   -0.9810   -1.0540 hc        1 SEF      0.043200
     34 H4         -4.0560    1.1390   -0.3090 hc        1 SEF      0.044700
     35 H4A        -3.7750    0.4130    1.3210 hc        1 SEF      0.044700
     36 H5         -2.4550   -1.4540    0.2630 hc        1 SEF      0.040200
     37 H5A        -2.7330   -0.7260   -1.3660 hc        1 SEF      0.040200
     38 H6         -1.5880    1.3890   -0.6170 hc        1 SEF      0.042200
     39 H6A        -1.3090    0.6610    1.0110 hc        1 SEF      0.042200
     40 H7          0.0110   -1.2050   -0.0500 hc        1 SEF      0.041200
     41 H7A        -0.2670   -0.4750   -1.6780 hc        1 SEF      0.041200
     42 H8          0.8780    1.6390   -0.9260 hc        1 SEF      0.044200
     43 H8A         1.1570    0.9080    0.7030 hc        1 SEF      0.044200
     44 H9          2.4860   -0.9570   -0.3630 hc        1 SEF      0.054200
     45 H9A         2.2080   -0.2250   -1.9900 hc        1 SEF      0.054200
     46 H01       -11.5960    0.0670    1.4210 h1        1 SEF      0.046200
     47 H201      -11.2320    0.4220   -0.3390 h1        1 SEF      0.046200
     48 HN01        6.6920   -0.6850   -2.0440 hn        1 SEF      0.310500
     49 H02       -13.3970   -0.8660   -0.0820 hc        1 SEF      0.046367
     50 H02A      -12.1520   -1.8490   -0.9730 hc        1 SEF      0.046367
     51 H24       -12.5020   -2.2040    0.7660 hc        1 SEF      0.046367
     52 H10         3.3850    1.8960   -1.2490 h1        1 SEF      0.055200
     53 H10A        3.6650    1.1560    0.3990 h1        1 SEF      0.055200
     54 H14         8.7990    0.5230   -2.4750 h1        1 SEF      0.070200
     55 H14A        8.2520    1.7080   -1.1950 h1        1 SEF      0.070200
     56 H15         8.3540   -0.1260    0.5360 hc        1 SEF      0.048700
     57 H15A        8.8740   -1.3100   -0.7270 hc        1 SEF      0.048700
     58 H16        10.8860    0.1230   -1.2360 hc        1 SEF      0.044700
     59 H16A       10.3670    1.2950    0.0380 hc        1 SEF      0.044700
     60 H17        10.4920   -0.5340    1.7680 hc        1 SEF      0.049200
     61 H17A       11.0150   -1.7030    0.4940 hc        1 SEF      0.049200
     62 H18        13.0180   -0.2490   -0.0160 hc        1 SEF      0.059700
     63 H18A       12.4950    0.9140    1.2730 hc        1 SEF      0.059700
     64 H20        14.2880   -2.1570    3.4970 ha        1 SEF      0.164500
@<TRIPOS>BOND
     1    1    4 1   
     2    2    4 1   
     3    2    5 1   
     4    2   28 1   
     5    2   29 1   
     6    3    4 2   
     7    4    6 1   
     8    5    7 1   
     9    5   30 1   
    10    5   31 1   
    11    6   14 1   
    12    7    8 1   
    13    7   32 1   
    14    7   33 1   
    15    8    9 1   
    16    8   34 1   
    17    8   35 1   
    18    9   10 1   
    19    9   36 1   
    20    9   37 1   
    21   10   11 1   
    22   10   38 1   
    23   10   39 1   
    24   11   12 1   
    25   11   40 1   
    26   11   41 1   
    27   12   13 1   
    28   12   42 1   
    29   12   43 1   
    30   13   19 1   
    31   13   44 1   
    32   13   45 1   
    33   14   17 1   
    34   14   46 1   
    35   14   47 1   
    36   15   20 1   
    37   15   21 1   
    38   15   48 1   
    39   16   19 1   
    40   16   20 1   
    41   17   49 1   
    42   17   50 1   
    43   17   51 1   
    44   18   20 2   
    45   19   52 1   
    46   19   53 1   
    47   21   22 1   
    48   21   54 1   
    49   21   55 1   
    50   22   23 1   
    51   22   56 1   
    52   22   57 1   
    53   23   24 1   
    54   23   58 1   
    55   23   59 1   
    56   24   25 1   
    57   24   60 1   
    58   24   61 1   
    59   25   26 1   
    60   25   62 1   
    61   25   63 1   
    62   26   27 3   
    63   27   64 1   
@<TRIPOS>SUBSTRUCTURE
     1 SEF         1 TEMP              0 ****  ****    0 ROOT
