@<TRIPOS>MOLECULE
SEG
   13    12     1     0     0
SMALL
bcc


@<TRIPOS>ATOM
      1 N           1.5610    0.5790   -0.6930 n3        1 SEG     -0.898800
      2 OD         -0.6150   -0.0180   -2.5550 oh        1 SEG     -0.620800
      3 CB         -0.6750   -0.4760   -1.2080 c3        1 SEG      0.107400
      4 CA          0.1650    0.4580   -0.3230 c3        1 SEG      0.030500
      5 C          -0.0620   -0.0620    1.1410 c         1 SEG      0.908600
      6 O           0.8290   -0.7900    1.6620 o         1 SEG     -0.838300
      7 OXT        -1.1480    0.2590    1.6950 o         1 SEG     -0.838300
      8 H           1.7050    0.2010   -1.6100 hn        1 SEG      0.335800
      9 H2          2.1180    0.0490   -0.0430 hn        1 SEG      0.335800
     10 HD         -1.2580   -0.5420   -3.0440 ho        1 SEG      0.371000
     11 HB3        -0.2830   -1.5280   -1.1620 h1        1 SEG      0.025700
     12 HB2        -1.7340   -0.4600   -0.8400 h1        1 SEG      0.025700
     13 HA         -0.2800    1.4910   -0.3990 h1        1 SEG      0.055700
@<TRIPOS>BOND
     1    1    4 1   
     2    1    8 1   
     3    1    9 1   
     4    2    3 1   
     5    2   10 1   
     6    3    4 1   
     7    3   11 1   
     8    3   12 1   
     9    4    5 1   
    10    4   13 1   
    11    5    6 1   
    12    5    7 1   
@<TRIPOS>SUBSTRUCTURE
     1 SEG         1 TEMP              0 ****  ****    0 ROOT
