@<TRIPOS>MOLECULE
SEG
   13    12     1     0     0
SMALL
bcc


@<TRIPOS>ATOM
      1 N          -1.5970   -0.4880   -0.0870 n3        1 SEG     -0.884800
      2 OD          1.6850    1.0090   -0.3990 oh        1 SEG     -0.653800
      3 CB          0.2940    0.8910   -0.6020 c3        1 SEG      0.167400
      4 CA         -0.1750   -0.4570   -0.1030 c3        1 SEG     -0.021500
      5 C           0.3500   -0.6870    1.2960 c         1 SEG      0.885600
      6 O          -0.1040   -0.0130    2.2570 o         1 SEG     -0.844300
      7 OXT         1.2420   -1.5530    1.4990 o         1 SEG     -0.844300
      8 H          -1.8810   -1.2210    0.3830 hn        1 SEG      0.331300
      9 H2         -1.9110   -0.5360   -0.9460 hn        1 SEG      0.331300
     10 HD          2.0100    1.6400   -0.9340 ho        1 SEG      0.448000
     11 HB3         0.0960    0.9720   -1.5580 h1        1 SEG      0.015700
     12 HB2        -0.1690    1.6000   -0.1100 h1        1 SEG      0.015700
     13 HA          0.1600   -1.1580   -0.6960 h1        1 SEG      0.052700
@<TRIPOS>BOND
     1    1    4 1   
     2    1    8 1   
     3    1    9 1   
     4    2    3 1   
     5    2   10 1   
     6    3    4 1   
     7    3   11 1   
     8    3   12 1   
     9    4    5 1   
    10    4   13 1   
    11    5    6 1   
    12    5    7 1   
@<TRIPOS>SUBSTRUCTURE
     1 SEG         1 TEMP              0 ****  ****    0 ROOT
