@<TRIPOS>MOLECULE
SEH
   29    25     1     0     0
SMALL
bcc


@<TRIPOS>ATOM
      1 C1         -1.2350   -0.7390    1.6110 c3        1 SEH     -0.262000
      2 S1         -1.6910   -0.8240   -0.1000 ss        1 SEH      0.074000
      3 C2         -1.6330   -2.0240    2.3040 c3        1 SEH     -0.198000
      4 CB          0.0940    0.3760   -1.9690 c3        1 SEH     -0.058000
      5 CG          1.2950   -0.2370   -1.2810 c2        1 SEH     -0.052000
      6 CD1         2.2470    0.5800   -0.6920 c2        1 SEH     -0.105000
      7 CD2         1.4750   -1.6110   -1.2940 c1        1 SEH     -0.132000
      8 CE1         3.3780    0.0230   -0.1160 c1        1 SEH     -0.134000
      9 CE2         2.6060   -2.1680   -0.7190 c1        1 SEH     -0.145500
     10 CZ          3.5580   -1.3510   -0.1290 c1        1 SEH     -0.145500
     11 C13        -1.0180    0.5720   -0.9620 c2        1 SEH     -0.289000
     12 N17        -1.4820    1.7690   -0.7270 n1        1 SEH      0.064000
     13 O18        -2.4860    1.9460    0.1820 o         1 SEH     -0.916667
     14 S19        -2.9030    3.3940    0.1320 s4        1 SEH      2.890000
     15 O20        -4.2680    3.5920    0.7450 o         1 SEH     -0.916667
     16 O21        -3.1510    3.8440   -1.2880 o         1 SEH     -0.916667
     17 O22        -1.8670    4.2600    0.8080 os        1 SEH     -1.055000
     18 H1C1       -0.2670   -0.6150    1.6850 h1        1 SEH      0.126000
     19 H1C2       -1.6930    0.0150    2.0340 h1        1 SEH      0.126000
     20 H2C1       -0.8850   -2.3450    2.8500 hc        1 SEH      0.070333
     21 H2C2       -2.4090   -1.8580    2.8790 hc        1 SEH      0.070333
     22 H2C3       -1.8610   -2.7000    1.6330 hc        1 SEH      0.070333
     23 HBC1        0.3430    1.2400   -2.3520 hc        1 SEH      0.095500
     24 HBC2       -0.2130   -0.2200   -2.6810 hc        1 SEH      0.095500
     25 HD1         2.1210    1.5480   -0.6820 ha        1 SEH      0.166000
     26 HD2         0.8130   -2.1860   -1.7250 ha        1 SEH      0.124000
     27 HE1         4.0450    0.5980    0.3060 ha        1 SEH      0.126000
     28 HE2         2.7320   -3.1360   -0.7280 ha        1 SEH      0.114000
     29 HZ          4.3540   -1.7440    0.2760 ha        1 SEH      0.114000
@<TRIPOS>BOND
     1    1    2 1   
     2    1    3 1   
     3    1   18 1   
     4    1   19 1   
     5    2   11 1   
     6    3   20 1   
     7    3   21 1   
     8    3   22 1   
     9    4    5 1   
    10    4   11 1   
    11    4   23 1   
    12    4   24 1   
    13    5    6 1   
    14    5    7 1   
    15    6    8 1   
    16    6   25 1   
    17    7   26 1   
    18    8   27 1   
    19    9   10 1   
    20    9   28 1   
    21   10   29 1   
    22   11   12 1   
    23   13   14 1   
    24   14   15 1   
    25   14   16 1   
@<TRIPOS>SUBSTRUCTURE
     1 SEH         1 TEMP              0 ****  ****    0 ROOT
