@<TRIPOS>MOLECULE
SEH
   29    29     1     0     0
SMALL
bcc


@<TRIPOS>ATOM
      1 C1          3.1620    0.3240    0.4040 c3        1 SEH     -0.001300
      2 S1          2.4610   -1.3070    0.3880 ss        1 SEH     -0.332300
      3 C2          4.2800    0.3200    1.4020 c3        1 SEH     -0.080100
      4 CB          0.4880   -2.6300   -0.7240 c3        1 SEH     -0.047400
      5 CG         -0.7750   -2.6690    0.0660 ca        1 SEH     -0.059300
      6 CD1        -1.8940   -1.9290   -0.3380 ca        1 SEH     -0.118500
      7 CD2        -0.8650   -3.4730    1.2090 ca        1 SEH     -0.118500
      8 CE1        -3.0800   -1.9970    0.3910 ca        1 SEH     -0.139000
      9 CE2        -2.0540   -3.5410    1.9340 ca        1 SEH     -0.139000
     10 CZ         -3.1640   -2.8040    1.5260 ca        1 SEH     -0.147000
     11 C13         1.1430   -1.2740   -0.7270 c2        1 SEH      0.298200
     12 N17         0.6860   -0.3400   -1.5240 n2        1 SEH     -0.322200
     13 O18         1.2370    0.8050   -1.5400 os        1 SEH     -0.339200
     14 S19         0.6390    2.0830   -2.6770 s6        1 SEH      1.712300
     15 O20         0.9080    1.5260   -3.9140 o         1 SEH     -0.729867
     16 O21         1.4960    3.0810   -2.2460 o         1 SEH     -0.729867
     17 O22        -0.6920    2.2120   -2.3250 o         1 SEH     -0.729867
     18 H1C1        2.3780    1.0730    0.6700 h1        1 SEH      0.086700
     19 H1C2        3.5280    0.5910   -0.6180 h1        1 SEH      0.086700
     20 H2C1        3.9030    0.0700    2.4240 hc        1 SEH      0.031033
     21 H2C2        5.0640   -0.4260    1.1240 hc        1 SEH      0.031033
     22 H2C3        4.7560    1.3310    1.4420 hc        1 SEH      0.031033
     23 HBC1        0.2620   -2.9470   -1.7800 hc        1 SEH      0.056200
     24 HBC2        1.2230   -3.3730   -0.3060 hc        1 SEH      0.056200
     25 HD1        -1.8290   -1.2780   -1.2260 ha        1 SEH      0.145000
     26 HD2         0.0120   -4.0470    1.5420 ha        1 SEH      0.145000
     27 HE1        -3.9500   -1.4040    0.0720 ha        1 SEH      0.120000
     28 HE2        -2.1120   -4.1730    2.8310 ha        1 SEH      0.120000
     29 HZ         -4.1000   -2.8540    2.0990 ha        1 SEH      0.114000
@<TRIPOS>BOND
     1    1    2 1   
     2    1    3 1   
     3    1   18 1   
     4    1   19 1   
     5    2   11 1   
     6    3   20 1   
     7    3   21 1   
     8    3   22 1   
     9    4    5 1   
    10    4   11 1   
    11    4   23 1   
    12    4   24 1   
    13    5    6 ar  
    14    5    7 ar  
    15    6    8 ar  
    16    6   25 1   
    17    7    9 ar  
    18    7   26 1   
    19    8   10 ar  
    20    8   27 1   
    21    9   10 ar  
    22    9   28 1   
    23   10   29 1   
    24   11   12 2   
    25   12   13 1   
    26   13   14 1   
    27   14   15 1   
    28   14   16 1   
    29   14   17 1   
@<TRIPOS>SUBSTRUCTURE
     1 SEH         1 TEMP              0 ****  ****    0 ROOT
