@<TRIPOS>MOLECULE
SEH
   29    29     1     0     0
SMALL
bcc


@<TRIPOS>ATOM
      1 C1          1.6010    0.2310    0.3020 c3        1 SEH     -0.001300
      2 S1          0.6460    0.3480   -1.1900 ss        1 SEH     -0.332300
      3 C2          1.1270    1.3140    1.2220 c3        1 SEH     -0.080100
      4 CB          0.4860   -0.7630   -3.5600 c3        1 SEH     -0.047400
      5 CG          1.2660   -0.0860   -4.6340 ca        1 SEH     -0.059300
      6 CD1         2.4310   -0.6690   -5.1490 ca        1 SEH     -0.118500
      7 CD2         0.8220    1.1330   -5.1620 ca        1 SEH     -0.118500
      8 CE1         3.1350   -0.0420   -6.1750 ca        1 SEH     -0.139000
      9 CE2         1.5270    1.7560   -6.1910 ca        1 SEH     -0.139000
     10 CZ          2.6840    1.1700   -6.7000 ca        1 SEH     -0.147000
     11 C13         1.2380   -0.8710   -2.2600 c2        1 SEH      0.298200
     12 N17         2.1410   -1.8080   -2.1140 n2        1 SEH     -0.322200
     13 O18         2.7760   -1.9130   -1.0180 os        1 SEH     -0.339200
     14 S19         3.9890   -3.2400   -0.7960 s6        1 SEH      1.712300
     15 O20         3.2040   -4.3740   -0.8780 o         1 SEH     -0.729867
     16 O21         4.3990   -2.8580    0.4700 o         1 SEH     -0.729867
     17 O22         4.8810   -3.0200   -1.8300 o         1 SEH     -0.729867
     18 H1C1        1.4700   -0.7800    0.7590 h1        1 SEH      0.086700
     19 H1C2        2.6880    0.3390    0.0680 h1        1 SEH      0.086700
     20 H2C1        0.0420    1.1930    1.4580 hc        1 SEH      0.031033
     21 H2C2        1.2780    2.3230    0.7650 hc        1 SEH      0.031033
     22 H2C3        1.7010    1.2750    2.1820 hc        1 SEH      0.031033
     23 HBC1        0.1950   -1.7900   -3.9190 hc        1 SEH      0.056200
     24 HBC2       -0.4690   -0.2000   -3.3670 hc        1 SEH      0.056200
     25 HD1         2.7990   -1.6190   -4.7280 ha        1 SEH      0.145000
     26 HD2        -0.0840    1.6060   -4.7560 ha        1 SEH      0.145000
     27 HE1         4.0540   -0.5030   -6.5640 ha        1 SEH      0.120000
     28 HE2         1.1720    2.7140   -6.5950 ha        1 SEH      0.120000
     29 HZ          3.2430    1.6620   -7.5070 ha        1 SEH      0.114000
@<TRIPOS>BOND
     1    1    2 1   
     2    1    3 1   
     3    1   18 1   
     4    1   19 1   
     5    2   11 1   
     6    3   20 1   
     7    3   21 1   
     8    3   22 1   
     9    4    5 1   
    10    4   11 1   
    11    4   23 1   
    12    4   24 1   
    13    5    6 ar  
    14    5    7 ar  
    15    6    8 ar  
    16    6   25 1   
    17    7    9 ar  
    18    7   26 1   
    19    8   10 ar  
    20    8   27 1   
    21    9   10 ar  
    22    9   28 1   
    23   10   29 1   
    24   11   12 2   
    25   12   13 1   
    26   13   14 1   
    27   14   15 1   
    28   14   16 1   
    29   14   17 1   
@<TRIPOS>SUBSTRUCTURE
     1 SEH         1 TEMP              0 ****  ****    0 ROOT
