@<TRIPOS>MOLECULE
SEH
   29    29     1     0     0
SMALL
bcc


@<TRIPOS>ATOM
      1 C1          1.6010    0.0810    0.3240 c3        1 SEH     -0.001300
      2 S1          0.6500    0.2830   -1.1610 ss        1 SEH     -0.332300
      3 C2          1.1350    1.1190    1.2990 c3        1 SEH     -0.080100
      4 CB          0.4820   -0.7050   -3.5840 c3        1 SEH     -0.047400
      5 CG          1.2690    0.0190   -4.6230 ca        1 SEH     -0.059300
      6 CD1         2.4280   -0.5490   -5.1680 ca        1 SEH     -0.118500
      7 CD2         0.8370    1.2670   -5.0880 ca        1 SEH     -0.118500
      8 CE1         3.1380    0.1220   -6.1610 ca        1 SEH     -0.139000
      9 CE2         1.5490    1.9350   -6.0840 ca        1 SEH     -0.139000
     10 CZ          2.7000    1.3630   -6.6230 ca        1 SEH     -0.147000
     11 C13         1.2330   -0.8840   -2.2920 c2        1 SEH      0.298200
     12 N17         2.1290   -1.8350   -2.1940 n2        1 SEH     -0.322200
     13 O18         2.7620   -2.0000   -1.1040 os        1 SEH     -0.339200
     14 S19         3.9660   -3.3450   -0.9510 s6        1 SEH      1.712300
     15 O20         3.1710   -4.4680   -1.0900 o         1 SEH     -0.729867
     16 O21         4.3780   -3.0320    0.3340 o         1 SEH     -0.729867
     17 O22         4.8590   -3.0800   -1.9720 o         1 SEH     -0.729867
     18 H1C1        2.6900    0.1930    0.0970 h1        1 SEH      0.086700
     19 H1C2        1.4630   -0.9520    0.7280 h1        1 SEH      0.086700
     20 H2C1        0.0480    0.9940    1.5280 hc        1 SEH      0.031033
     21 H2C2        1.7070    1.0260    2.2560 hc        1 SEH      0.031033
     22 H2C3        1.2930    2.1480    0.8950 hc        1 SEH      0.031033
     23 HBC1        0.1820   -1.7100   -3.9940 hc        1 SEH      0.056200
     24 HBC2       -0.4680   -0.1420   -3.3630 hc        1 SEH      0.056200
     25 HD1         2.7870   -1.5230   -4.7960 ha        1 SEH      0.145000
     26 HD2        -0.0640    1.7280   -4.6580 ha        1 SEH      0.145000
     27 HE1         4.0530   -0.3280   -6.5740 ha        1 SEH      0.120000
     28 HE2         1.2030    2.9150   -6.4390 ha        1 SEH      0.120000
     29 HZ          3.2630    1.8910   -7.4050 ha        1 SEH      0.114000
@<TRIPOS>BOND
     1    1    2 1   
     2    1    3 1   
     3    1   18 1   
     4    1   19 1   
     5    2   11 1   
     6    3   20 1   
     7    3   21 1   
     8    3   22 1   
     9    4    5 1   
    10    4   11 1   
    11    4   23 1   
    12    4   24 1   
    13    5    6 ar  
    14    5    7 ar  
    15    6    8 ar  
    16    6   25 1   
    17    7    9 ar  
    18    7   26 1   
    19    8   10 ar  
    20    8   27 1   
    21    9   10 ar  
    22    9   28 1   
    23   10   29 1   
    24   11   12 2   
    25   12   13 1   
    26   13   14 1   
    27   14   15 1   
    28   14   16 1   
    29   14   17 1   
@<TRIPOS>SUBSTRUCTURE
     1 SEH         1 TEMP              0 ****  ****    0 ROOT
