@<TRIPOS>MOLECULE
SEH
   29    29     1     0     0
SMALL
bcc


@<TRIPOS>ATOM
      1 C1          1.5620    0.3510    0.2750 c3        1 SEH     -0.001300
      2 S1          0.5950    0.2860   -1.2120 ss        1 SEH     -0.332300
      3 C2          0.9800    1.4260    1.1400 c3        1 SEH     -0.080100
      4 CB          0.5450   -0.9620   -3.5180 c3        1 SEH     -0.047400
      5 CG          1.2440   -0.2630   -4.6340 ca        1 SEH     -0.059300
      6 CD1         2.4640   -0.7450   -5.1270 ca        1 SEH     -0.118500
      7 CD2         0.6710    0.8710   -5.2220 ca        1 SEH     -0.118500
      8 CE1         3.0940   -0.1020   -6.1910 ca        1 SEH     -0.139000
      9 CE2         1.3020    1.5100   -6.2880 ca        1 SEH     -0.139000
     10 CZ          2.5140    1.0240   -6.7760 ca        1 SEH     -0.147000
     11 C13         1.3090   -0.9190   -2.2220 c2        1 SEH      0.298200
     12 N17         2.3060   -1.7470   -2.0350 n2        1 SEH     -0.322200
     13 O18         2.9520   -1.7260   -0.9400 os        1 SEH     -0.339200
     14 S19         4.3000   -2.9030   -0.6600 s6        1 SEH      1.712300
     15 O20         3.6390   -4.1170   -0.6740 o         1 SEH     -0.729867
     16 O21         4.6720   -2.4130    0.5810 o         1 SEH     -0.729867
     17 O22         5.1600   -2.6460   -1.7120 o         1 SEH     -0.729867
     18 H1C1        1.5410   -0.6420    0.7860 h1        1 SEH      0.086700
     19 H1C2        2.6310    0.5600    0.0250 h1        1 SEH      0.086700
     20 H2C1       -0.0860    1.2050    1.3920 hc        1 SEH      0.031033
     21 H2C2        1.0220    2.4190    0.6290 hc        1 SEH      0.031033
     22 H2C3        1.5580    1.4990    2.0950 hc        1 SEH      0.031033
     23 HBC1        0.3640   -2.0310   -3.8210 hc        1 SEH      0.056200
     24 HBC2       -0.4650   -0.4930   -3.3470 hc        1 SEH      0.056200
     25 HD1         2.9330   -1.6270   -4.6590 ha        1 SEH      0.145000
     26 HD2        -0.2800    1.2660   -4.8340 ha        1 SEH      0.145000
     27 HE1         4.0560   -0.4820   -6.5630 ha        1 SEH      0.120000
     28 HE2         0.8450    2.4010   -6.7400 ha        1 SEH      0.120000
     29 HZ          3.0140    1.5290   -7.6130 ha        1 SEH      0.114000
@<TRIPOS>BOND
     1    1    2 1   
     2    1    3 1   
     3    1   18 1   
     4    1   19 1   
     5    2   11 1   
     6    3   20 1   
     7    3   21 1   
     8    3   22 1   
     9    4    5 1   
    10    4   11 1   
    11    4   23 1   
    12    4   24 1   
    13    5    6 ar  
    14    5    7 ar  
    15    6    8 ar  
    16    6   25 1   
    17    7    9 ar  
    18    7   26 1   
    19    8   10 ar  
    20    8   27 1   
    21    9   10 ar  
    22    9   28 1   
    23   10   29 1   
    24   11   12 2   
    25   12   13 1   
    26   13   14 1   
    27   14   15 1   
    28   14   16 1   
    29   14   17 1   
@<TRIPOS>SUBSTRUCTURE
     1 SEH         1 TEMP              0 ****  ****    0 ROOT
