@<TRIPOS>MOLECULE
SEI
   81    83     1     0     0
SMALL
bcc


@<TRIPOS>ATOM
      1 C2         -2.8620   -1.8700   -9.7710 c3        1 SEI      0.101900
      2 C3         -1.9580   -0.6320   -9.7060 c3        1 SEI      0.047000
      3 C15        -0.0900   -0.4910   -8.1120 c         1 SEI      0.662700
      4 C19         1.4500    0.2140   -4.1780 ca        1 SEI     -0.127600
      5 C20         1.7420   -0.9790   -4.8510 ca        1 SEI     -0.094000
      6 C21         1.2230   -1.2080   -6.1230 ca        1 SEI     -0.104000
      7 C22         0.4070   -0.2450   -6.7250 ca        1 SEI     -0.108600
      8 C30         1.4310    2.7110    0.0340 c3        1 SEI     -0.062700
      9 C31        -0.0100    3.1290   -0.1520 c3        1 SEI     -0.104100
     10 C35         1.8150    2.7470    1.4990 c3        1 SEI     -0.104100
     11 O1         -3.8780   -1.8350   -8.7730 os        1 SEI     -0.409600
     12 N4         -1.4510   -0.3590   -8.3740 n         1 SEI     -0.456800
     13 C5         -2.4550   -0.4500   -7.3380 c3        1 SEI      0.047000
     14 C6         -3.3460   -1.6970   -7.4620 c3        1 SEI      0.101900
     15 O16         0.7130   -0.7450   -9.0320 o         1 SEI     -0.585100
     16 C17         0.1300    0.9550   -6.0630 ca        1 SEI     -0.104000
     17 C18         0.6530    1.1860   -4.7910 ca        1 SEI     -0.094000
     18 N28         1.3060    1.1510   -1.9080 n         1 SEI     -0.552900
     19 C29         1.7470    1.3110   -0.5460 c3        1 SEI      0.047700
     20 C40         1.1070    0.2220    0.3560 c         1 SEI      0.641100
     21 O42        -0.1380    0.1210    0.4350 o         1 SEI     -0.637100
     22 C44         1.3790   -1.7150    1.8780 c3        1 SEI      0.034700
     23 C45         3.3370   -0.8070    0.8160 c3        1 SEI      0.074000
     24 C46         3.7480   -2.1670    1.4010 c3        1 SEI     -0.088400
     25 C47         2.4860   -2.7840    1.9920 c3        1 SEI     -0.086400
     26 C52         0.9160   -1.2540    3.2810 c         1 SEI      0.660100
     27 N53        -0.2130   -0.4630    3.3160 n         1 SEI     -0.566900
     28 N54         1.9230   -0.6070    1.0990 n         1 SEI     -0.452800
     29 C59        -0.7470    0.0660    4.5410 c3        1 SEI      0.031700
     30 C61        -0.9290    1.6060    4.5070 c3        1 SEI     -0.071700
     31 C62        -1.7970    2.0680    3.3570 c3        1 SEI     -0.108600
     32 C66        -1.4800    2.0870    5.8320 c3        1 SEI     -0.108600
     33 C71        -2.0890   -0.5910    4.8770 c         1 SEI      0.530100
     34 C73        -2.2920   -1.0930    6.3430 c3        1 SEI      0.284600
     35 O74        -3.0070   -0.7550    4.0830 o         1 SEI     -0.452100
     36 F75        -1.2580   -0.7970    7.1940 f         1 SEI     -0.198800
     37 F76        -3.3660   -0.4800    6.9420 f         1 SEI     -0.198800
     38 C77        -2.5330   -2.6930    6.3270 c3        1 SEI      0.597900
     39 F78        -2.2690   -3.2700    7.5370 f         1 SEI     -0.211967
     40 F79        -3.8200   -3.0270    6.0230 f         1 SEI     -0.211967
     41 F80        -1.7460   -3.3470    5.4230 f         1 SEI     -0.211967
     42 H21        -3.4270   -1.8830  -10.7400 h1        1 SEI      0.058200
     43 H22        -2.2620   -2.8120   -9.6620 h1        1 SEI      0.058200
     44 H31        -2.5550    0.2700  -10.0230 h1        1 SEI      0.069950
     45 H32        -1.0990   -0.7670  -10.4220 h1        1 SEI      0.069950
     46 H201        2.4000   -1.7230   -4.3720 ha        1 SEI      0.152500
     47 H211        1.4680   -2.1340   -6.6650 ha        1 SEI      0.153500
     48 H301        2.0860    3.4420   -0.5220 hc        1 SEI      0.061700
     49 H311       -0.2240    4.0350    0.4660 hc        1 SEI      0.045033
     50 H312       -0.2180    3.3840   -1.2190 hc        1 SEI      0.045033
     51 H313       -0.7060    2.3120    0.1640 hc        1 SEI      0.045033
     52 H351        1.1010    2.1380    2.1080 hc        1 SEI      0.045033
     53 H352        2.8460    2.3440    1.6490 hc        1 SEI      0.045033
     54 H353        1.7860    3.7990    1.8720 hc        1 SEI      0.045033
     55 H51        -1.9790   -0.4490   -6.3190 h1        1 SEI      0.069950
     56 H52        -3.1100    0.4650   -7.4250 h1        1 SEI      0.069950
     57 H61        -4.2480   -1.5900   -6.8040 h1        1 SEI      0.058200
     58 H62        -2.7760   -2.6230   -7.1870 h1        1 SEI      0.058200
     59 H171       -0.4920    1.7220   -6.5490 ha        1 SEI      0.153500
     60 H182        0.4450    2.1450   -4.2920 ha        1 SEI      0.152500
     61 H281        0.3450    1.3340   -2.0870 hn        1 SEI      0.324500
     62 H291        2.8760    1.2070   -0.5410 h1        1 SEI      0.099700
     63 H441        0.4760   -2.1430    1.3470 h1        1 SEI      0.085700
     64 H451        3.5270   -0.7850   -0.2960 h1        1 SEI      0.064700
     65 H452        3.9240    0.0250    1.2960 h1        1 SEI      0.064700
     66 H461        4.1780   -2.8180    0.6020 hc        1 SEI      0.060700
     67 H462        4.5270   -2.0260    2.1890 hc        1 SEI      0.060700
     68 H471        2.1800   -3.6940    1.4190 hc        1 SEI      0.075200
     69 H472        2.6450   -3.0800    3.0600 hc        1 SEI      0.075200
     70 H531       -0.6800   -0.2190    2.4680 hn        1 SEI      0.351500
     71 H591       -0.0160   -0.1740    5.3770 h1        1 SEI      0.117700
     72 H611        0.1010    2.0460    4.3720 hc        1 SEI      0.066700
     73 H621       -2.0510    3.1480    3.4840 hc        1 SEI      0.047200
     74 H622       -1.2660    1.9480    2.3800 hc        1 SEI      0.047200
     75 H623       -2.7490    1.4840    3.3160 hc        1 SEI      0.047200
     76 H661       -2.5220    1.7120    5.9890 hc        1 SEI      0.047200
     77 H662       -0.8460    1.7220    6.6770 hc        1 SEI      0.047200
     78 H663       -1.4990    3.2030    5.8550 hc        1 SEI      0.047200
     79 C27         2.0390    0.4110   -2.8220 c         1 SEI      0.672700
     80 O58         1.5120   -1.5900    4.3210 o         1 SEI     -0.602100
     81 O81         3.1560   -0.0570   -2.5200 o         1 SEI     -0.607100
@<TRIPOS>BOND
     1    1    2 1   
     2    1   11 1   
     3    1   42 1   
     4    1   43 1   
     5    2   12 1   
     6    2   44 1   
     7    2   45 1   
     8    3    7 1   
     9    3   12 1   
    10    3   15 2   
    11    4    5 ar  
    12    4   17 ar  
    13    4   79 1   
    14    5    6 ar  
    15    5   46 1   
    16    6    7 ar  
    17    6   47 1   
    18    7   16 ar  
    19    8    9 1   
    20    8   10 1   
    21    8   19 1   
    22    8   48 1   
    23    9   49 1   
    24    9   50 1   
    25    9   51 1   
    26   10   52 1   
    27   10   53 1   
    28   10   54 1   
    29   11   14 1   
    30   12   13 1   
    31   13   14 1   
    32   13   55 1   
    33   13   56 1   
    34   14   57 1   
    35   14   58 1   
    36   16   17 ar  
    37   16   59 1   
    38   17   60 1   
    39   18   19 1   
    40   18   61 1   
    41   18   79 1   
    42   19   20 1   
    43   19   62 1   
    44   20   21 2   
    45   20   28 1   
    46   22   25 1   
    47   22   26 1   
    48   22   28 1   
    49   22   63 1   
    50   23   24 1   
    51   23   28 1   
    52   23   64 1   
    53   23   65 1   
    54   24   25 1   
    55   24   66 1   
    56   24   67 1   
    57   25   68 1   
    58   25   69 1   
    59   26   27 1   
    60   26   80 2   
    61   27   29 1   
    62   27   70 1   
    63   29   30 1   
    64   29   33 1   
    65   29   71 1   
    66   30   31 1   
    67   30   32 1   
    68   30   72 1   
    69   31   73 1   
    70   31   74 1   
    71   31   75 1   
    72   32   76 1   
    73   32   77 1   
    74   32   78 1   
    75   33   34 1   
    76   33   35 2   
    77   34   36 1   
    78   34   37 1   
    79   34   38 1   
    80   38   39 1   
    81   38   40 1   
    82   38   41 1   
    83   79   81 2   
@<TRIPOS>SUBSTRUCTURE
     1 SEI         1 TEMP              0 ****  ****    0 ROOT
