@<TRIPOS>MOLECULE
SEI
   83    78     1     0     0
SMALL
bcc


@<TRIPOS>ATOM
      1 C2          1.7540    0.0660   -0.3860 c1        1 SEI     -0.236000
      2 C3          2.6470    0.0040   -1.1780 c1        1 SEI      0.066000
      3 C15         1.5030   -1.6510    4.5830 c2        1 SEI      0.347000
      4 C19         4.1800    1.5490    5.4980 ca        1 SEI     -0.091000
      5 C20         2.8050    1.7980    5.4060 ca        1 SEI     -0.094500
      6 C21         1.9320    0.7620    5.0770 ca        1 SEI     -0.107000
      7 C22         2.4360   -0.5190    4.8310 ca        1 SEI     -0.133000
      8 C30         7.3630    0.9470    7.9810 c3        1 SEI     -0.194000
      9 C31         8.5920    1.8350    7.9380 c3        1 SEI     -0.225000
     10 C35         7.3020    0.0740    9.1480 c1        1 SEI     -0.082000
     11 O1          0.6420    0.2770    0.3490 os        1 SEI      0.115000
     12 N4          1.0640   -1.9070    3.2730 n         1 SEI     -0.405000
     13 C5          1.5230   -1.2300    2.1210 c3        1 SEI     -0.067000
     14 C6          0.5100   -0.3100    1.5160 c2        1 SEI      0.228000
     15 O16         1.0770   -2.3890    5.4770 o         1 SEI     -0.255000
     16 C17         3.8090   -0.7700    4.9230 ca        1 SEI     -0.107000
     17 C18         4.6810    0.2670    5.2570 ca        1 SEI     -0.094500
     18 N28         6.0260    2.6670    6.7650 n         1 SEI     -0.375000
     19 C29         6.0320    1.7440    7.8630 c3        1 SEI      0.059000
     20 C40         5.8070    2.4960    9.2010 c2        1 SEI      0.316000
     21 O42         6.4060    3.5730    9.4450 o         1 SEI     -0.442000
     22 C44         4.6510    2.7140   11.3730 c3        1 SEI      0.026000
     23 C45         4.3570    0.6670   10.1430 c3        1 SEI     -0.050000
     24 C46         3.6760    0.4610   11.5030 c3        1 SEI     -0.169000
     25 C47         3.8030    1.7760   12.2660 c3        1 SEI     -0.163000
     26 C52         5.9570    3.0670   12.1050 c2        1 SEI      0.236000
     27 N53         6.3380    4.5120   12.1180 n4        1 SEI     -0.140000
     28 N54         4.8970    2.0210   10.1200 n         1 SEI     -0.300000
     29 C59         7.4700    9.1150   13.8270 c1        1 SEI     -0.031000
     30 C61         7.9400   10.3120   13.7140 c1        1 SEI     -0.080000
     31 C62         4.7270    6.5020   10.2930 c3        1 SEI     -0.301000
     32 C66         8.3880   11.4530   13.6140 c1        1 SEI      0.053000
     33 C71         6.9790    7.8580   13.9680 c2        1 SEI      0.283000
     34 C73         6.6870    7.3930   15.4380 c3        1 SEI      0.235000
     35 O74         6.7210    7.0370   13.0540 o         1 SEI     -0.442000
     36 F75         7.5570    7.8890   16.3680 f         1 SEI     -0.108000
     37 F76         5.4570    7.8140   15.8710 f         1 SEI     -0.108000
     38 C77         6.7320    5.7760   15.4460 c3        1 SEI      0.387000
     39 F78         6.8240    5.2430   16.6930 f         1 SEI     -0.149000
     40 F79         5.6180    5.2210   14.8710 f         1 SEI     -0.149000
     41 F80         7.7730    5.2550   14.7250 f         1 SEI     -0.149000
     42 H21        -0.9880    1.1280    3.6250 ha        1 SEI      0.005125
     43 H22        -1.5680    1.2160    3.9670 ha        1 SEI      0.005125
     44 H31         0.5240   -2.7380    3.1390 hn        1 SEI      0.263000
     45 H32         3.4590   -0.0700   -1.8720 ha        1 SEI      0.293000
     46 H201       -0.4730   -0.0410    1.9900 h4        1 SEI      0.255000
     47 H211        0.8470    0.9540    5.0310 ha        1 SEI      0.156500
     48 H301        7.4020    0.2510    7.0800 hc        1 SEI      0.143000
     49 H311        8.7710    2.2130    6.9030 hc        1 SEI      0.100667
     50 H312        8.4640    2.7130    8.6180 hc        1 SEI      0.100667
     51 H313        9.4940    1.2590    8.2590 hc        1 SEI      0.100667
     52 H351        7.9040    1.6460   10.6000 ha        1 SEI      0.005125
     53 H352        8.2150    1.1560   10.9600 ha        1 SEI      0.005125
     54 H353        8.1940   -0.5340    9.3530 ha        1 SEI      0.081000
     55 H51         1.0420    1.7220    2.5570 ha        1 SEI      0.005125
     56 H52         1.0370    2.3610    2.7890 ha        1 SEI      0.005125
     57 H61         2.4400   -0.5930    2.3550 h1        1 SEI      0.179000
     58 H62         1.8320   -1.9650    1.3060 h1        1 SEI      0.179000
     59 H171        4.2010   -1.7850    4.7530 ha        1 SEI      0.156500
     60 H182        5.7630    0.0720    5.3210 ha        1 SEI      0.163500
     61 H281        2.4200    2.8160    5.5830 ha        1 SEI      0.163500
     62 H291        5.2020    0.9880    7.7170 h1        1 SEI      0.128000
     63 H441        4.0890    3.6690   11.1470 h1        1 SEI      0.131000
     64 H451        3.6100    0.5670    9.3080 h1        1 SEI      0.124500
     65 H452        5.1930   -0.0790    9.9850 h1        1 SEI      0.124500
     66 H461        2.6010    0.1840   11.3640 hc        1 SEI      0.119500
     67 H462        4.1750   -0.3710   12.0610 hc        1 SEI      0.119500
     68 H471        4.2900    1.6150   13.2600 hc        1 SEI      0.122500
     69 H472        2.8010    2.2410   12.4390 hc        1 SEI      0.122500
     70 H531        5.5930    5.0990   12.5280 hn        1 SEI      0.280000
     71 H591        7.1930    4.6730   12.6720 hn        1 SEI      0.280000
     72 H611        5.3180    5.8250    9.6340 hc        1 SEI      0.076500
     73 H621        3.9490    5.9190   10.8340 hc        1 SEI      0.076500
     74 H622        5.3930    7.0110   11.0260 hc        1 SEI      0.076500
     75 H623        4.2280    7.2720    9.6640 hc        1 SEI      0.076500
     76 H661        4.3270    6.8510   13.5900 ha        1 SEI      0.005125
     77 H662        8.7770   12.4440   13.5280 ha        1 SEI      0.270000
     78 H663        4.1070    6.4980   13.0540 ha        1 SEI      0.005125
     79 H282        6.6240    3.4640    6.8600 hn        1 SEI      0.258000
     80 H532        6.4970    4.8320   11.1470 hn        1 SEI      0.280000
     81 C27         5.0950    2.7030    5.7430 c2        1 SEI      0.339000
     82 O58         6.7260    2.2980   12.6590 o         1 SEI     -0.168000
     83 O81         5.0620    3.7000    4.9970 o         1 SEI     -0.320000
@<TRIPOS>BOND
     1    1    2 1   
     2    1   11 1   
     3    2   45 1   
     4    3    7 1   
     5    3   12 1   
     6    3   15 1   
     7    4    5 1   
     8    4   17 1   
     9    4   81 1   
    10    5    6 1   
    11    5   61 1   
    12    6    7 1   
    13    6   47 1   
    14    7   16 1   
    15    8    9 1   
    16    8   10 1   
    17    8   19 1   
    18    8   48 1   
    19    9   49 1   
    20    9   50 1   
    21    9   51 1   
    22   10   54 1   
    23   11   14 1   
    24   12   13 1   
    25   12   44 1   
    26   13   14 1   
    27   13   57 1   
    28   13   58 1   
    29   14   46 1   
    30   16   17 1   
    31   16   59 1   
    32   17   60 1   
    33   18   19 1   
    34   18   79 1   
    35   18   81 1   
    36   19   20 1   
    37   19   62 1   
    38   20   21 1   
    39   20   28 1   
    40   22   25 1   
    41   22   26 1   
    42   22   28 1   
    43   22   63 1   
    44   23   24 1   
    45   23   28 1   
    46   23   64 1   
    47   23   65 1   
    48   24   25 1   
    49   24   66 1   
    50   24   67 1   
    51   25   68 1   
    52   25   69 1   
    53   26   27 1   
    54   26   82 1   
    55   27   70 1   
    56   27   71 1   
    57   27   80 1   
    58   29   30 1   
    59   29   33 1   
    60   30   32 1   
    61   31   72 1   
    62   31   73 1   
    63   31   74 1   
    64   31   75 1   
    65   32   77 1   
    66   33   34 1   
    67   33   35 1   
    68   34   36 1   
    69   34   37 1   
    70   34   38 1   
    71   38   39 1   
    72   38   40 1   
    73   38   41 1   
    74   42   43 1   
    75   52   53 1   
    76   55   56 1   
    77   76   78 1   
    78   81   83 1   
@<TRIPOS>SUBSTRUCTURE
     1 SEI         1 TEMP              0 ****  ****    0 ROOT
