@<TRIPOS>MOLECULE
SEI
   81    79     1     0     0
SMALL
bcc


@<TRIPOS>ATOM
      1 C2         -5.7020   -2.8980   -9.1140 c3        1 SEI      0.102400
      2 C3         -5.8270   -2.3820   -7.6880 c3        1 SEI     -0.009700
      3 C15        -3.9630   -1.7870   -6.1150 c1        1 SEI      0.570500
      4 C19        -1.0330   -2.2660   -3.0610 cg        1 SEI     -0.076200
      5 C20        -1.4940   -1.0620   -3.5870 c1        1 SEI     -0.043500
      6 C21        -2.4010   -1.0660   -4.6450 c1        1 SEI     -0.043500
      7 C22        -2.8470   -2.2740   -5.1770 c1        1 SEI     -0.089000
      8 C27         0.0260   -2.2620   -1.9430 c         1 SEI      0.621300
      9 C30         2.8880   -0.8430   -0.9250 c3        1 SEI     -0.063700
     10 C31         3.6450   -2.1790   -0.8030 c3        1 SEI     -0.100600
     11 C35         2.8110   -0.4310   -2.4070 c3        1 SEI     -0.100600
     12 O1         -5.4090   -4.2950   -9.1610 os        1 SEI     -0.409600
     13 N4         -4.7190   -2.7420   -6.8930 n3        1 SEI     -0.276400
     14 C5         -4.4160   -4.1190   -6.9270 c3        1 SEI     -0.009700
     15 C6         -4.2840   -4.6430   -8.3500 c3        1 SEI      0.102400
     16 O16        -4.2750   -0.6090   -6.1280 o         1 SEI     -0.582500
     17 C17        -2.3860   -3.4790   -4.6500 c1        1 SEI     -0.052500
     18 C18        -1.4790   -3.4750   -3.5920 c1        1 SEI     -0.027500
     19 N28         0.5420   -1.0100   -1.4410 n         1 SEI     -0.548900
     20 C29         1.4790   -1.0050   -0.3690 c3        1 SEI      0.047700
     21 C40         1.1690    0.1500    0.5710 c         1 SEI      0.635100
     22 O42         1.1890    1.2960    0.1550 o         1 SEI     -0.632100
     23 C44         0.3080    0.9560    3.0390 c3        1 SEI      0.032700
     24 C45         0.6930   -1.2380    2.5030 c3        1 SEI      0.073000
     25 C46        -0.4150   -1.1220    3.6320 c3        1 SEI     -0.088400
     26 C47        -0.2950    0.0530    4.1560 c3        1 SEI     -0.086400
     27 C52         1.3330    1.7070    3.5570 c         1 SEI      0.661100
     28 N53         1.0430    2.8020    4.4670 n         1 SEI     -0.566900
     29 N54         0.7610   -0.1180    1.9410 n         1 SEI     -0.450800
     30 O58         2.4870    1.4580    3.2510 o         1 SEI     -0.602100
     31 C59         2.1090    3.5650    5.0260 c3        1 SEI      0.031700
     32 C61         1.9670    5.0240    4.6020 c3        1 SEI     -0.070700
     33 C62         1.0210    5.7500    5.5720 c3        1 SEI     -0.108100
     34 C66         3.3470    5.7020    4.6290 c3        1 SEI     -0.108100
     35 C71         2.0610    3.4700    6.5370 c         1 SEI      0.530100
     36 C73         3.3550    3.2520    7.3330 c3        1 SEI      0.284600
     37 O74         0.9890    3.5090    7.1160 o         1 SEI     -0.451100
     38 F75         4.1380    2.3760    6.6830 f         1 SEI     -0.198800
     39 F76         4.0020    4.4210    7.4630 f         1 SEI     -0.198800
     40 C77         3.0150    2.7020    8.7160 c3        1 SEI      0.597900
     41 F78         2.7430    1.3910    8.6220 f         1 SEI     -0.211967
     42 F79         4.0600    2.8840    9.5400 f         1 SEI     -0.211967
     43 F80         1.9430    3.3470    9.2040 f         1 SEI     -0.211967
     44 O81         0.4180   -3.3150   -1.4720 o         1 SEI     -0.610100
     45 H21        -6.5500   -2.7340   -9.5880 h1        1 SEI      0.057950
     46 H22        -4.9820   -2.4060   -9.5690 h1        1 SEI      0.057950
     47 H31        -5.9000   -1.4010   -7.7090 h1        1 SEI      0.070700
     48 H32        -6.6430   -2.7550   -7.2850 h1        1 SEI      0.070700
     49 H201       -1.1800   -0.2120   -3.2140 ha        1 SEI      0.092500
     50 H211       -2.7250   -0.2170   -5.0160 ha        1 SEI      0.092500
     51 H301        3.3640   -0.1490   -0.4160 hc        1 SEI      0.060700
     52 H311        3.3040   -2.8120   -1.4750 hc        1 SEI      0.044533
     53 H312        3.5090   -2.5510    0.0960 hc        1 SEI      0.044533
     54 H313        4.6050   -2.0270   -0.9540 hc        1 SEI      0.044533
     55 H351        3.4550    0.0360   -2.9920 hc        1 SEI      0.044533
     56 H352        3.5110   -1.1180   -2.4630 hc        1 SEI      0.044533
     57 H353        2.8010    0.4580   -1.9870 hc        1 SEI      0.044533
     58 H51        -5.1330   -4.6150   -6.4700 h1        1 SEI      0.070700
     59 H52        -3.5720   -4.2710   -6.4530 h1        1 SEI      0.070700
     60 H61        -3.4710   -4.2660   -8.7540 h1        1 SEI      0.057950
     61 H62        -4.2020   -5.6230   -8.3220 h1        1 SEI      0.057950
     62 H171       -2.7000   -4.3290   -5.0230 ha        1 SEI      0.094500
     63 H182       -1.1540   -4.3240   -3.2210 ha        1 SEI      0.101500
     64 H281        0.2410   -0.2160   -1.7910 hn        1 SEI      0.327500
     65 H291        1.4170   -1.8520    0.1230 h1        1 SEI      0.099700
     66 H441       -0.2640    1.6530    2.6440 h1        1 SEI      0.086700
     67 H451        1.5620   -1.4650    2.9080 h1        1 SEI      0.065200
     68 H452        0.4360   -1.9260    1.8510 h1        1 SEI      0.065200
     69 H461       -1.3100   -1.2230    3.2350 hc        1 SEI      0.059700
     70 H462       -0.2700   -1.8130    4.3180 hc        1 SEI      0.059700
     71 H471        0.3120    0.0180    4.9290 hc        1 SEI      0.075700
     72 H472       -1.1780    0.3940    4.4310 hc        1 SEI      0.075700
     73 H531        0.1730    3.0120    4.6690 hn        1 SEI      0.351500
     74 H591        2.9680    3.2130    4.7030 h1        1 SEI      0.117700
     75 H611        1.5990    5.0660    3.6920 hc        1 SEI      0.066700
     76 H621        0.6640    6.5590    5.1390 hc        1 SEI      0.047033
     77 H622        0.2790    5.1540    5.8130 hc        1 SEI      0.047033
     78 H623        1.5140    6.0030    6.3830 hc        1 SEI      0.047033
     79 H661        3.2990    6.5610    4.1520 hc        1 SEI      0.047033
     80 H662        4.0060    5.1210    4.1900 hc        1 SEI      0.047033
     81 H663        3.6170    5.8590    5.5610 hc        1 SEI      0.047033
@<TRIPOS>BOND
     1    1    2 1   
     2    1   12 1   
     3    1   45 1   
     4    1   46 1   
     5    2   13 1   
     6    2   47 1   
     7    2   48 1   
     8    3   13 2   
     9    3   16 2   
    10    4    8 1   
    11    4   18 3   
    12    5    6 3   
    13    5   49 1   
    14    6   50 1   
    15    7   17 3   
    16    8   19 1   
    17    8   44 2   
    18    9   10 1   
    19    9   11 1   
    20    9   20 1   
    21    9   51 1   
    22   10   52 1   
    23   10   53 1   
    24   10   54 1   
    25   11   55 1   
    26   11   56 1   
    27   11   57 1   
    28   12   15 1   
    29   13   14 1   
    30   14   15 1   
    31   14   58 1   
    32   14   59 1   
    33   15   60 1   
    34   15   61 1   
    35   17   62 1   
    36   18   63 1   
    37   19   20 1   
    38   19   64 1   
    39   20   21 1   
    40   20   65 1   
    41   21   22 2   
    42   21   29 1   
    43   23   26 1   
    44   23   27 1   
    45   23   29 1   
    46   23   66 1   
    47   24   25 1   
    48   24   29 1   
    49   24   67 1   
    50   24   68 1   
    51   25   26 1   
    52   25   69 1   
    53   25   70 1   
    54   26   71 1   
    55   26   72 1   
    56   27   28 1   
    57   27   30 2   
    58   28   31 1   
    59   28   73 1   
    60   31   32 1   
    61   31   35 1   
    62   31   74 1   
    63   32   33 1   
    64   32   34 1   
    65   32   75 1   
    66   33   76 1   
    67   33   77 1   
    68   33   78 1   
    69   34   79 1   
    70   34   80 1   
    71   34   81 1   
    72   35   36 1   
    73   35   37 2   
    74   36   38 1   
    75   36   39 1   
    76   36   40 1   
    77   40   41 1   
    78   40   42 1   
    79   40   43 1   
@<TRIPOS>SUBSTRUCTURE
     1 SEI         1 TEMP              0 ****  ****    0 ROOT
