@<TRIPOS>MOLECULE
SEI
   83    77     1     0     0
SMALL
bcc


@<TRIPOS>ATOM
      1 C2          1.1070    1.4840    0.0360 c1        1 SEI     -0.214000
      2 C3         -0.0840    1.5560   -0.0170 c1        1 SEI     -0.128000
      3 C15         1.4630   -1.2080    2.5090 c2        1 SEI      0.313000
      4 C19         4.5870   -0.8890    5.4420 c2        1 SEI     -0.291000
      5 C20         3.6580    0.1670    5.3370 c1        1 SEI     -0.147000
      6 C21         2.6310    0.1060    4.3220 c3        1 SEI     -0.206000
      7 C22         2.6220   -1.0940    3.4550 c2        1 SEI      0.011000
      8 C30         7.0800   -0.9560    9.9870 c2        1 SEI     -0.261000
      9 C31         8.3000    2.3610    7.8010 c3        1 SEI     -0.287000
     10 C35         7.8080   -1.2680   11.0980 c2        1 SEI      0.090000
     11 O1          2.4650    1.5530    0.0210 os        1 SEI      0.078000
     12 N4          1.6700   -1.1540    1.1520 n         1 SEI     -0.367000
     13 C5          2.9250   -0.8550    0.5280 c3        1 SEI     -0.127000
     14 C6          3.2590    0.5680    0.2270 c1        1 SEI      0.018000
     15 O16         0.3200   -1.3530    2.9810 o         1 SEI     -0.317000
     16 C17         3.5480   -2.0860    3.5980 c2        1 SEI     -0.201000
     17 C18         4.5560   -1.9940    4.6030 c2        1 SEI      0.133000
     18 N28         5.6220    0.5250    7.2160 n4        1 SEI     -0.215000
     19 C29         6.2470    0.1410    9.8390 c1        1 SEI     -0.089000
     20 C40         5.9240    1.1650   10.8280 c2        1 SEI      0.299000
     21 O42         6.5960    2.2280   10.8840 o         1 SEI     -0.413000
     22 C44         4.2300    2.1590   12.3340 c3        1 SEI      0.023000
     23 C45         3.9140   -0.1160   11.6130 c3        1 SEI     -0.036000
     24 C46         2.5940    0.3250   12.2640 c3        1 SEI     -0.170000
     25 C47         2.8320    1.7200   12.8330 c3        1 SEI     -0.165000
     26 C52         5.0950    2.6080   13.5230 c2        1 SEI      0.240000
     27 N53         5.9870    3.7810   13.2640 n4        1 SEI     -0.147000
     28 N54         4.8300    1.0170   11.6630 n         1 SEI     -0.326000
     29 C59         5.9360    9.0130   13.6950 c2        1 SEI     -0.275000
     30 C61         6.1240   12.6690   15.0630 c1        1 SEI     -0.223500
     31 C62         6.0960    9.1270   15.0210 c2        1 SEI     -0.031000
     32 C66         5.9350   12.5440   13.8890 c1        1 SEI     -0.223500
     33 C71         5.8320    7.7420   13.0130 c2        1 SEI      0.297000
     34 C73         5.6410    7.8440   11.4580 c3        1 SEI      0.218000
     35 O74         5.8740    6.6090   13.5080 o         1 SEI     -0.366000
     36 F75         4.4640    8.4550   11.1160 f         1 SEI     -0.103000
     37 F76         6.6010    8.6100   10.8550 f         1 SEI     -0.103000
     38 C77         5.6730    6.3530   10.8330 c3        1 SEI      0.370000
     39 F78         5.5880    6.3160    9.4760 f         1 SEI     -0.157667
     40 F79         6.8010    5.6500   11.1650 f         1 SEI     -0.157667
     41 F80         4.6530    5.5550   11.2920 f         1 SEI     -0.157667
     42 H21         2.1300    2.9710    2.7680 ha        1 SEI      0.001333
     43 H22         2.0390    2.7420    2.1360 ha        1 SEI      0.001333
     44 H31         0.8580   -1.1950    0.5720 hn        1 SEI      0.262000
     45 H32        -1.1450    1.6150   -0.0580 ha        1 SEI      0.255000
     46 H201        2.7130    1.0510    3.6870 hc        1 SEI      0.217000
     47 H211        1.6130    0.2030    4.8270 hc        1 SEI      0.217000
     48 H301        7.1700   -1.6120    9.0890 ha        1 SEI      0.198000
     49 H311        9.1670    2.9550    8.1680 hc        1 SEI      0.073250
     50 H312        7.7070    2.0050    8.6750 hc        1 SEI      0.073250
     51 H313        8.6790    1.4930    7.2170 hc        1 SEI      0.073250
     52 H351        7.7860   -0.6570   12.0160 ha        1 SEI      0.158000
     53 H352        8.4750   -2.1490   11.1230 ha        1 SEI      0.158000
     54 H353        7.6700    3.0080    7.1530 hc        1 SEI      0.073250
     55 H51         4.4760    2.0180    1.7670 ha        1 SEI      0.001333
     56 H52         4.3400    1.8490    2.4100 ha        1 SEI      0.001333
     57 H61         2.9810   -1.4020   -0.4670 h1        1 SEI      0.144500
     58 H62         3.7720   -1.2520    1.1630 h1        1 SEI      0.144500
     59 H171        3.5300   -2.9860    2.9580 ha        1 SEI      0.183000
     60 H182        5.2960   -2.8110    4.6960 ha        1 SEI      0.177000
     61 H281        4.7390    1.0220    7.0210 hn        1 SEI      0.278333
     62 H291        5.7770    0.3720    8.3130 hn        1 SEI      0.278333
     63 H441        4.1360    3.0270   11.6120 h1        1 SEI      0.138000
     64 H451        3.7560   -0.4360   10.5460 h1        1 SEI      0.106500
     65 H452        4.3690   -0.9740   12.1820 h1        1 SEI      0.106500
     66 H461        2.0620    2.4450   12.4660 hc        1 SEI      0.133000
     67 H462        2.3010   -0.3920   13.0720 hc        1 SEI      0.128500
     68 H471        2.7910    1.7020   13.9510 hc        1 SEI      0.133000
     69 H472        1.7720    0.3390   11.5050 hc        1 SEI      0.128500
     70 H531        5.4190    4.6170   13.0400 hn        1 SEI      0.281000
     71 H591        6.5660    4.0000   14.0830 hn        1 SEI      0.281000
     72 H611        5.8720    9.9110   13.0470 ha        1 SEI      0.181000
     73 H621        6.1630    8.2590   15.6940 ha        1 SEI      0.150500
     74 H622        6.1680   10.1210   15.4980 ha        1 SEI      0.150500
     75 H623        6.2920   12.8070   16.1030 ha        1 SEI      0.224000
     76 H661        5.8280   11.2050   10.9000 ha        1 SEI      0.001333
     77 H662        5.3270   10.7840   11.0730 ha        1 SEI      0.001333
     78 H663        5.7670   12.4600   12.8430 ha        1 SEI      0.224000
     79 H282        6.4000    1.0880    6.8670 hn        1 SEI      0.278333
     80 H532        6.5940    3.5900   12.4480 hn        1 SEI      0.281000
     81 C27         5.5990   -0.7750    6.4940 c2        1 SEI      0.331000
     82 O58         5.1410    2.1200   14.6390 o         1 SEI     -0.150000
     83 O81         6.4120   -1.6260    6.8560 o         1 SEI     -0.260000
@<TRIPOS>BOND
     1    1    2 1   
     2    1   11 1   
     3    2   45 1   
     4    3    7 1   
     5    3   12 1   
     6    3   15 1   
     7    4    5 1   
     8    4   17 1   
     9    4   81 1   
    10    5    6 1   
    11    6    7 1   
    12    6   46 1   
    13    6   47 1   
    14    7   16 1   
    15    8   10 1   
    16    8   19 1   
    17    8   48 1   
    18    9   49 1   
    19    9   50 1   
    20    9   51 1   
    21    9   54 1   
    22   10   52 1   
    23   10   53 1   
    24   11   14 1   
    25   12   13 1   
    26   12   44 1   
    27   13   14 1   
    28   13   57 1   
    29   13   58 1   
    30   16   17 1   
    31   16   59 1   
    32   17   60 1   
    33   18   61 1   
    34   18   62 1   
    35   18   79 1   
    36   18   81 1   
    37   19   20 1   
    38   20   21 1   
    39   20   28 1   
    40   22   25 1   
    41   22   26 1   
    42   22   28 1   
    43   22   63 1   
    44   23   24 1   
    45   23   28 1   
    46   23   64 1   
    47   23   65 1   
    48   24   25 1   
    49   24   67 1   
    50   24   69 1   
    51   25   66 1   
    52   25   68 1   
    53   26   27 1   
    54   26   82 1   
    55   27   70 1   
    56   27   71 1   
    57   27   80 1   
    58   29   31 1   
    59   29   33 1   
    60   29   72 1   
    61   30   32 1   
    62   30   75 1   
    63   31   73 1   
    64   31   74 1   
    65   32   78 1   
    66   33   34 1   
    67   33   35 1   
    68   34   36 1   
    69   34   37 1   
    70   34   38 1   
    71   38   39 1   
    72   38   40 1   
    73   38   41 1   
    74   42   43 1   
    75   55   56 1   
    76   76   77 1   
    77   81   83 1   
@<TRIPOS>SUBSTRUCTURE
     1 SEI         1 TEMP              0 ****  ****    0 ROOT
