@<TRIPOS>MOLECULE
SEI
   83    76     1     0     0
SMALL
bcc


@<TRIPOS>ATOM
      1 C2          1.4130   -3.1830   -2.5020 c1        1 SEI     -0.114000
      2 C3          0.8550   -4.2340   -2.3880 c1        1 SEI     -0.174000
      3 C15         0.9770   -2.2250    1.4910 c2        1 SEI      0.310000
      4 C19         3.3530   -0.1800    4.4210 c2        1 SEI     -0.291000
      5 C20         1.9550   -0.2090    4.5890 c1        1 SEI     -0.158000
      6 C21         1.1330   -0.8430    3.5870 c3        1 SEI     -0.202000
      7 C22         1.8400   -1.4290    2.4250 c2        1 SEI      0.027000
      8 C30         7.1780    0.8640    9.5300 c2        1 SEI     -0.221000
      9 C31         8.0690    2.6520    6.5330 c3        1 SEI     -0.272000
     10 C35         8.4110    0.6410    9.9810 c2        1 SEI     -0.151000
     11 O1          2.0570   -2.0530   -2.8020 os        1 SEI     -0.028000
     12 N4          1.0490   -2.0500    0.1330 ns        1 SEI     -0.290000
     13 C5          1.8640   -1.1150   -0.5070 c2        1 SEI     -0.158000
     14 C6          2.2840   -1.1390   -1.7880 c2        1 SEI     -0.026000
     15 O16         0.1820   -3.0510    1.9850 o         1 SEI     -0.325000
     16 C17         3.1980   -1.3520    2.3000 c2        1 SEI     -0.204000
     17 C18         3.9820   -0.7170    3.3040 c2        1 SEI      0.139000
     18 N28         3.2660    0.9440    6.6340 nz        1 SEI     -0.145000
     19 C29         5.9580    0.3690   10.2160 c3        1 SEI     -0.137000
     20 C40         4.8920    1.4440   10.2330 c2        1 SEI      0.372000
     21 O42         4.1110    1.6250    9.2770 o         1 SEI     -0.420000
     22 C44         3.7330    3.2850   11.4460 c3        1 SEI      0.030000
     23 C45         5.5300    2.0600   12.4700 c1        1 SEI     -0.164000
     24 C46         6.2000    1.8400   13.4410 c1        1 SEI     -0.120000
     25 C47         2.8660    3.2080   12.6990 c3        1 SEI     -0.254000
     26 C52         4.3000    4.7140   11.3360 c2        1 SEI      0.228000
     27 N53         5.2160    5.1670   12.4280 nz        1 SEI     -0.138000
     28 N54         4.7910    2.2970   11.3570 n         1 SEI     -0.216000
     29 C59         6.2610    8.9570   15.7920 c2        1 SEI     -0.272000
     30 C61         7.8170   12.5480   16.8080 c1        1 SEI     -0.222000
     31 C62         5.0090    9.2330   16.1820 c2        1 SEI     -0.036000
     32 C66         8.3830   11.7900   16.0770 c1        1 SEI     -0.222000
     33 C71         6.5840    7.8690   14.8920 c2        1 SEI      0.298000
     34 C73         8.1160    7.6380   14.6440 c3        1 SEI      0.219000
     35 O74         5.7970    7.1100   14.3100 o         1 SEI     -0.378000
     36 F75         8.8000    8.7960   14.3960 f         1 SEI     -0.103000
     37 F76         8.7400    7.1080   15.7420 f         1 SEI     -0.103000
     38 C77         8.2880    6.6290   13.3930 c3        1 SEI      0.373000
     39 F78         9.5690    6.4820   12.9680 f         1 SEI     -0.155333
     40 F79         7.8280    5.3630   13.6620 f         1 SEI     -0.155333
     41 F80         7.5580    7.0010   12.2920 f         1 SEI     -0.155333
     42 H21        -0.7170   -4.5310   -0.3010 ha        1 SEI      0.001000
     43 H22        -0.9510   -4.4340    0.3280 ha        1 SEI      0.001000
     44 H31         0.4720   -2.6530   -0.4270 hn        1 SEI      0.275000
     45 H32         0.3600   -5.1680   -2.2920 ha        1 SEI      0.258000
     46 H201        0.3450   -0.1010    3.2370 hc        1 SEI      0.224000
     47 H211        0.5120   -1.6650    4.0850 hc        1 SEI      0.224000
     48 H301        7.0050    1.3970    8.5780 ha        1 SEI      0.140000
     49 H311        7.3090    1.9250    6.1680 hc        1 SEI      0.068500
     50 H312        7.5640    3.4750    7.0850 hc        1 SEI      0.068500
     51 H313        8.6230    3.0750    5.6660 hc        1 SEI      0.068500
     52 H351        8.6260    0.1000   10.9130 ha        1 SEI      0.135500
     53 H352        8.7840    2.1350    7.2090 hc        1 SEI      0.068500
     54 H353        9.2990    0.9820    9.4250 ha        1 SEI      0.135500
     55 H51         0.8170    2.2490    7.1030 ha        1 SEI      0.001000
     56 H52         0.2290    2.0650    6.8190 ha        1 SEI      0.001000
     57 H61         2.8920   -0.3260   -2.2310 h4        1 SEI      0.197000
     58 H62         2.1680   -0.2560    0.1210 h4        1 SEI      0.146000
     59 H171        3.7180   -1.7970    1.4320 ha        1 SEI      0.189000
     60 H182        5.0810   -0.6680    3.1790 ha        1 SEI      0.180000
     61 H281        2.2610    0.7720    6.3760 hn        1 SEI      0.274333
     62 H291        3.5040    0.4430    7.4950 hn        1 SEI      0.274333
     63 H441        3.0660    3.1640   10.5290 h1        1 SEI      0.189000
     64 H451        5.5330   -0.5010    9.6400 hc        1 SEI      0.134000
     65 H452        6.1900    0.0040   11.2530 hc        1 SEI      0.134000
     66 H461        2.2730    2.2590   12.6860 hc        1 SEI      0.120000
     67 H462        6.7910    1.6380   14.3040 ha        1 SEI      0.271000
     68 H471        3.4750    3.2190   13.6350 hc        1 SEI      0.120000
     69 H472        2.1480    4.0660   12.7100 hc        1 SEI      0.120000
     70 H531        5.9660    4.4810   12.5940 hn        1 SEI      0.277000
     71 H591        5.6550    6.0790   12.2040 hn        1 SEI      0.277000
     72 H611        7.1230    9.5620   16.1410 ha        1 SEI      0.190000
     73 H621        4.1370    8.6500   15.8470 ha        1 SEI      0.145500
     74 H622        4.7910   10.0680   16.8670 ha        1 SEI      0.145500
     75 H623        7.3240   13.2280   17.4600 ha        1 SEI      0.222500
     76 H661        9.3050    9.3620   16.7880 ha        1 SEI      0.001000
     77 H662        8.9130   11.1410   15.4250 ha        1 SEI      0.222500
     78 H663        9.8190    9.0380   17.0890 ha        1 SEI      0.001000
     79 H282        3.4250    1.9390    6.8030 hn        1 SEI      0.274333
     80 H532        4.6930    5.2910   13.3050 hn        1 SEI      0.277000
     81 C27         4.1200    0.4550    5.4900 c2        1 SEI      0.331000
     82 O58         4.0550    5.5190   10.4540 o         1 SEI     -0.149000
     83 O81         5.3270    0.6400    5.5920 o         1 SEI     -0.219000
@<TRIPOS>BOND
     1    1    2 1   
     2    1   11 1   
     3    2   45 1   
     4    3    7 1   
     5    3   12 1   
     6    3   15 1   
     7    4    5 1   
     8    4   17 1   
     9    4   81 1   
    10    5    6 1   
    11    6    7 1   
    12    6   46 1   
    13    6   47 1   
    14    7   16 1   
    15    8   10 1   
    16    8   19 1   
    17    8   48 1   
    18    9   49 1   
    19    9   50 1   
    20    9   51 1   
    21    9   53 1   
    22   10   52 1   
    23   10   54 1   
    24   11   14 1   
    25   12   13 1   
    26   12   44 1   
    27   13   14 1   
    28   13   58 1   
    29   14   57 1   
    30   16   17 1   
    31   16   59 1   
    32   17   60 1   
    33   18   61 1   
    34   18   62 1   
    35   18   79 1   
    36   18   81 1   
    37   19   20 1   
    38   19   64 1   
    39   19   65 1   
    40   20   21 1   
    41   20   28 1   
    42   22   25 1   
    43   22   26 1   
    44   22   28 1   
    45   22   63 1   
    46   23   24 1   
    47   23   28 1   
    48   24   67 1   
    49   25   66 1   
    50   25   68 1   
    51   25   69 1   
    52   26   27 1   
    53   26   82 1   
    54   27   70 1   
    55   27   71 1   
    56   27   80 1   
    57   29   31 1   
    58   29   33 1   
    59   29   72 1   
    60   30   32 1   
    61   30   75 1   
    62   31   73 1   
    63   31   74 1   
    64   32   77 1   
    65   33   34 1   
    66   33   35 1   
    67   34   36 1   
    68   34   37 1   
    69   34   38 1   
    70   38   39 1   
    71   38   40 1   
    72   38   41 1   
    73   42   43 1   
    74   55   56 1   
    75   76   78 1   
    76   81   83 1   
@<TRIPOS>SUBSTRUCTURE
     1 SEI         1 TEMP              0 ****  ****    0 ROOT
