@<TRIPOS>MOLECULE
SEK
    3     2     1     0     0
SMALL
bcc


@<TRIPOS>ATOM
      1 SE         -0.3940    0.0000    0.0000 s         1 SEK     -0.845100
      2 C           1.1800   -0.0000   -0.0000 c1        1 SEK      0.492900
      3 N           2.3590   -0.0000   -0.0000 n1        1 SEK     -0.647800
@<TRIPOS>BOND
     1    1    2 1   
     2    2    3 3   
@<TRIPOS>SUBSTRUCTURE
     1 SEK         1 TEMP              0 ****  ****    0 ROOT
