@<TRIPOS>MOLECULE
SEK
    3     2     1     0     0
SMALL
bcc


@<TRIPOS>ATOM
      1 SE          0.6950    1.2710   -0.8010 s         1 SEK     -0.845100
      2 C          -0.1080   -0.1980    0.1250 c1        1 SEK      0.492900
      3 N          -0.5870   -1.0730    0.6770 n1        1 SEK     -0.647800
@<TRIPOS>BOND
     1    1    2 1   
     2    2    3 3   
@<TRIPOS>SUBSTRUCTURE
     1 SEK         1 TEMP              0 ****  ****    0 ROOT
