@<TRIPOS>MOLECULE
SEL
   15    14     1     0     0
SMALL
bcc


@<TRIPOS>ATOM
      1 N          -0.1700    1.4100   -0.2330 n3        1 SEL     -0.901800
      2 CA         -0.0700    0.0210    0.1650 c3        1 SEL      0.120500
      3 CB         -1.2460   -0.8180   -0.3770 c3        1 SEL      0.115400
      4 OG         -2.4580   -0.5010    0.2700 oh        1 SEL     -0.602800
      5 C           1.2340   -0.6910   -0.2520 c3        1 SEL      0.115400
      6 OXT         2.3120    0.0820    0.2480 oh        1 SEL     -0.602800
      7 HN1         0.5430    1.9430    0.2280 hn        1 SEL      0.355300
      8 HN2        -0.0480    1.5010   -1.2240 hn        1 SEL      0.355300
      9 HA1        -0.1240    0.0020    1.2950 h1        1 SEL      0.083700
     10 HB1        -1.3520   -0.6860   -1.4870 h1        1 SEL      0.035200
     11 HB2        -1.0750   -1.9030   -0.1440 h1        1 SEL      0.035200
     12 HOG        -2.5980    0.4500    0.1820 ho        1 SEL      0.411500
     13 H21         1.2590   -1.7230    0.1860 h1        1 SEL      0.035200
     14 H22         1.3070   -0.7660   -1.3710 h1        1 SEL      0.035200
     15 HXT         3.1190   -0.4090    0.0550 ho        1 SEL      0.411500
@<TRIPOS>BOND
     1    1    2 1   
     2    1    7 1   
     3    1    8 1   
     4    2    3 1   
     5    2    5 1   
     6    2    9 1   
     7    3    4 1   
     8    3   10 1   
     9    3   11 1   
    10    4   12 1   
    11    5    6 1   
    12    5   13 1   
    13    5   14 1   
    14    6   15 1   
@<TRIPOS>SUBSTRUCTURE
     1 SEL         1 TEMP              0 ****  ****    0 ROOT
