@<TRIPOS>MOLECULE
SEM
   26    26     1     0     0
SMALL
bcc


@<TRIPOS>ATOM
      1 C           3.7980   -0.0730   -0.0680 c         1 SEM      0.888600
      2 O           4.7430   -0.8720    0.1840 o         1 SEM     -0.839300
      3 CA          2.3590   -0.6740   -0.2450 c3        1 SEM      0.016500
      4 N           2.2480   -2.0840    0.0980 n3        1 SEM     -0.883800
      5 CB          1.3950    0.2280    0.5280 c3        1 SEM      0.138400
      6 OG          0.0660   -0.0360    0.0590 os        1 SEM     -0.423600
      7 C'         -0.8710    0.8940    0.5850 c3        1 SEM      0.171700
      8 C1'        -2.2510    0.4970    0.1710 ca        1 SEM     -0.069300
      9 C2'        -2.5000   -0.7040   -0.5020 ca        1 SEM     -0.119000
     10 C3'        -3.8030   -1.0430   -0.8640 ca        1 SEM     -0.140000
     11 C4'        -4.8630   -0.1910   -0.5580 ca        1 SEM     -0.146000
     12 C5'        -4.6180    1.0080    0.1130 ca        1 SEM     -0.140000
     13 C6'        -3.3170    1.3520    0.4750 ca        1 SEM     -0.119000
     14 OXT         3.9310    1.1750   -0.2050 o         1 SEM     -0.839300
     15 HA          2.1070   -0.5920   -1.3420 h1        1 SEM      0.058700
     16 H           3.0960   -2.5320   -0.2120 hn        1 SEM      0.330800
     17 H2          2.2290   -2.1730    1.0980 hn        1 SEM      0.330800
     18 HB2         1.4310    0.0340    1.6330 h1        1 SEM      0.037700
     19 HB3         1.6650    1.3000    0.3260 h1        1 SEM      0.037700
     20 H'1        -0.8050    0.9100    1.7090 h1        1 SEM      0.028700
     21 H'2        -0.6340    1.9240    0.1990 h1        1 SEM      0.028700
     22 H2'        -1.6540   -1.3710   -0.7420 ha        1 SEM      0.148000
     23 H3'        -3.9930   -1.9880   -1.3940 ha        1 SEM      0.120000
     24 H4'        -5.8890   -0.4610   -0.8440 ha        1 SEM      0.116000
     25 H5'        -5.4510    1.6830    0.3540 ha        1 SEM      0.120000
     26 H6'        -3.1240    2.2980    1.0010 ha        1 SEM      0.148000
@<TRIPOS>BOND
     1    1    2 1   
     2    1    3 1   
     3    1   14 1   
     4    3    4 1   
     5    3    5 1   
     6    3   15 1   
     7    4   16 1   
     8    4   17 1   
     9    5    6 1   
    10    5   18 1   
    11    5   19 1   
    12    6    7 1   
    13    7    8 1   
    14    7   20 1   
    15    7   21 1   
    16    8    9 ar  
    17    8   13 ar  
    18    9   10 ar  
    19    9   22 1   
    20   10   11 ar  
    21   10   23 1   
    22   11   12 ar  
    23   11   24 1   
    24   12   13 ar  
    25   12   25 1   
    26   13   26 1   
@<TRIPOS>SUBSTRUCTURE
     1 SEM         1 TEMP              0 ****  ****    0 ROOT
