@<TRIPOS>MOLECULE
SEN
   24    23     1     0     0
SMALL
bcc


@<TRIPOS>ATOM
      1 N           1.4870   -1.7360    0.2510 n3        1 SEN     -0.925800
      2 CA          1.7430   -0.5160   -0.4960 c3        1 SEN      0.024500
      3 C           3.2450   -0.1110   -0.5410 c         1 SEN      0.905600
      4 O           4.0130   -0.4410    0.4120 o         1 SEN     -0.869800
      5 CB          0.9320    0.7080   -0.0090 c3        1 SEN      0.184400
      6 OG         -0.4130    0.6170   -0.3840 os        1 SEN     -0.611200
      7 P          -1.5420    0.3420    0.8000 p5        1 SEN      1.429700
      8 O2         -2.1200    1.6770    1.1300 o         1 SEN     -0.861500
      9 O3         -0.8700   -0.4780    1.8500 o         1 SEN     -0.861500
     10 N1         -2.6720   -0.5610    0.0350 n3        1 SEN     -0.826700
     11 C1         -2.4980   -1.9560   -0.0970 c3        1 SEN      0.231600
     12 C2         -3.7530    0.0540   -0.6290 c3        1 SEN      0.231600
     13 OXT         3.6530    0.5380   -1.5500 o         1 SEN     -0.869800
     14 H           2.2490   -1.8850    0.8910 hn        1 SEN      0.347800
     15 HN2         0.6490   -1.6180    0.8010 hn        1 SEN      0.347800
     16 HA          1.4230   -0.7190   -1.5600 h1        1 SEN      0.041700
     17 HB          1.0100    0.8180    1.1070 h1        1 SEN      0.025700
     18 HBA         1.3550    1.6230   -0.5100 h1        1 SEN      0.025700
     19 H1         -3.3690   -2.5330    0.3320 h1        1 SEN      0.005200
     20 H1A        -2.4100   -2.2840   -1.1740 h1        1 SEN      0.005200
     21 H1B        -1.5610   -2.2470    0.4550 h1        1 SEN      0.005200
     22 H2         -3.7030    1.1610   -0.4310 h1        1 SEN      0.005200
     23 H2A        -3.7410   -0.1240   -1.7450 h1        1 SEN      0.005200
     24 H2B        -4.7500   -0.3360   -0.2680 h1        1 SEN      0.005200
@<TRIPOS>BOND
     1    1    2 1   
     2    1   14 1   
     3    1   15 1   
     4    2    3 1   
     5    2    5 1   
     6    2   16 1   
     7    3    4 1   
     8    3   13 1   
     9    5    6 1   
    10    5   17 1   
    11    5   18 1   
    12    6    7 1   
    13    7    8 1   
    14    7    9 1   
    15    7   10 1   
    16   10   11 1   
    17   10   12 1   
    18   11   19 1   
    19   11   20 1   
    20   11   21 1   
    21   12   22 1   
    22   12   23 1   
    23   12   24 1   
@<TRIPOS>SUBSTRUCTURE
     1 SEN         1 TEMP              0 ****  ****    0 ROOT
