@<TRIPOS>MOLECULE
SEN
   24    23     1     0     0
SMALL
bcc


@<TRIPOS>ATOM
      1 N          -2.6050   -0.7940    2.2830 n3        1 SEN     -0.902800
      2 CA         -1.2190   -0.9090    2.1180 c3        1 SEN      0.028500
      3 C          -0.5620   -1.0440    3.4760 c         1 SEN      0.914600
      4 O          -0.7980   -0.1770    4.3900 o         1 SEN     -0.866800
      5 CB         -0.6850    0.3360    1.4150 c3        1 SEN      0.201400
      6 OG         -0.0540   -0.0390    0.1830 os        1 SEN     -0.600200
      7 P           0.6900    1.0820   -0.6510 p5        1 SEN      1.427700
      8 O2          1.9380    1.5040    0.0750 o         1 SEN     -0.862500
      9 O3         -0.2150    2.2620   -0.8120 o         1 SEN     -0.862500
     10 N1          1.1020    0.4800   -2.1570 n3        1 SEN     -0.835700
     11 C1          2.3310   -0.2090   -2.3290 c3        1 SEN      0.230600
     12 C2          0.2340    0.6940   -3.2740 c3        1 SEN      0.230600
     13 OXT         0.2550   -1.9960    3.6970 o         1 SEN     -0.866800
     14 H          -2.8880   -1.3730    2.9590 hn        1 SEN      0.326800
     15 HN2        -3.0240   -1.0110    1.5000 hn        1 SEN      0.326800
     16 HA         -1.0230   -1.6850    1.5880 h1        1 SEN      0.004700
     17 HB         -1.4200    0.9420    1.2310 h1        1 SEN      0.035700
     18 HBA        -0.0220    0.7880    2.0010 h1        1 SEN      0.035700
     19 H1          2.5880   -0.6360   -1.4770 h1        1 SEN      0.006033
     20 H1A         3.0500    0.4470   -2.6070 h1        1 SEN      0.006033
     21 H1B         2.2300   -0.8890   -3.0160 h1        1 SEN      0.006033
     22 H2          0.3150    1.6310   -3.5780 h1        1 SEN      0.006033
     23 H2A        -0.7030    0.5140   -3.0020 h1        1 SEN      0.006033
     24 H2B         0.4870    0.0830   -4.0130 h1        1 SEN      0.006033
@<TRIPOS>BOND
     1    1    2 1   
     2    1   14 1   
     3    1   15 1   
     4    2    3 1   
     5    2    5 1   
     6    2   16 1   
     7    3    4 1   
     8    3   13 1   
     9    5    6 1   
    10    5   17 1   
    11    5   18 1   
    12    6    7 1   
    13    7    8 1   
    14    7    9 1   
    15    7   10 1   
    16   10   11 1   
    17   10   12 1   
    18   11   19 1   
    19   11   20 1   
    20   11   21 1   
    21   12   22 1   
    22   12   23 1   
    23   12   24 1   
@<TRIPOS>SUBSTRUCTURE
     1 SEN         1 TEMP              0 ****  ****    0 ROOT
