@<TRIPOS>MOLECULE
SEO
   10     9     1     0     0
SMALL
bcc


@<TRIPOS>ATOM
      1 OB1         0.0430    0.0000    0.0800 oh        1 SEO     -0.601800
      2 CB1         1.4620   -0.0000    0.0070 c3        1 SEO      0.141400
      3 CB          1.9680    0.0000    1.4340 c3        1 SEO      0.000700
      4 SG          3.7370   -0.0000    1.3570 sh        1 SEO     -0.376900
      5 HO1        -0.2770    0.0000   -0.8300 ho        1 SEO      0.404000
      6 HB11        1.8160   -0.9160   -0.5390 h1        1 SEO      0.038700
      7 HB12        1.8170    0.9160   -0.5390 h1        1 SEO      0.038700
      8 HB1         1.5900   -0.9020    1.9720 h1        1 SEO      0.074700
      9 HB2         1.5900    0.9020    1.9720 h1        1 SEO      0.074700
     10 HS          3.9920    0.0000    2.6540 hs        1 SEO      0.207800
@<TRIPOS>BOND
     1    1    2 1   
     2    1    5 1   
     3    2    3 1   
     4    2    6 1   
     5    2    7 1   
     6    3    4 1   
     7    3    8 1   
     8    3    9 1   
     9    4   10 1   
@<TRIPOS>SUBSTRUCTURE
     1 SEO         1 TEMP              0 ****  ****    0 ROOT
