@<TRIPOS>MOLECULE
SEO
   10     9     1     0     0
SMALL
bcc


@<TRIPOS>ATOM
      1 OB1        -1.3760   -0.0090   -0.8840 oh        1 SEO     -0.591800
      2 CB1         0.0110   -0.2660   -0.8510 c3        1 SEO      0.138400
      3 CB          0.5030   -0.1940    0.5780 c3        1 SEO     -0.040300
      4 SG         -0.1050    1.2870    1.3390 sh        1 SEO     -0.364900
      5 HO1        -1.7120   -0.2920   -1.6570 ho        1 SEO      0.398000
      6 HB11        0.1860   -1.1590   -1.2130 h1        1 SEO      0.061700
      7 HB12        0.4790    0.4030   -1.3920 h1        1 SEO      0.061700
      8 HB1         0.1790   -0.9730    1.0730 h1        1 SEO      0.066200
      9 HB2         1.4810   -0.1870    0.5850 h1        1 SEO      0.066200
     10 HS          0.3520    1.3890    2.4200 hs        1 SEO      0.204800
@<TRIPOS>BOND
     1    1    2 1   
     2    1    5 1   
     3    2    3 1   
     4    2    6 1   
     5    2    7 1   
     6    3    4 1   
     7    3    8 1   
     8    3    9 1   
     9    4   10 1   
@<TRIPOS>SUBSTRUCTURE
     1 SEO         1 TEMP              0 ****  ****    0 ROOT
