@<TRIPOS>MOLECULE
SEO
   10     9     1     0     0
SMALL
bcc


@<TRIPOS>ATOM
      1 OB1         0.0420   -0.0020    0.0830 oh        1 SEO     -0.601800
      2 CB1         1.4610    0.0010    0.0080 c3        1 SEO      0.141400
      3 CB          1.9690   -0.0010    1.4340 c3        1 SEO      0.000700
      4 SG          3.7380    0.0010    1.3540 sh        1 SEO     -0.376900
      5 HO1        -0.2800   -0.0010   -0.8260 ho        1 SEO      0.404000
      6 HB11        1.8160   -0.9140   -0.5400 h1        1 SEO      0.038700
      7 HB12        1.8130    0.9170   -0.5380 h1        1 SEO      0.038700
      8 HB1         1.5930   -0.9030    1.9720 h1        1 SEO      0.074700
      9 HB2         1.5910    0.9010    1.9740 h1        1 SEO      0.074700
     10 HS          3.9950   -0.0000    2.6500 hs        1 SEO      0.207800
@<TRIPOS>BOND
     1    1    2 1   
     2    1    5 1   
     3    2    3 1   
     4    2    6 1   
     5    2    7 1   
     6    3    4 1   
     7    3    8 1   
     8    3    9 1   
     9    4   10 1   
@<TRIPOS>SUBSTRUCTURE
     1 SEO         1 TEMP              0 ****  ****    0 ROOT
