@<TRIPOS>MOLECULE
SEP
   16    15     1     0     0
SMALL
bcc


@<TRIPOS>ATOM
      1 N           1.7620   -0.0460    1.3310 n3        1 SEP     -0.934800
      2 CA          0.4410    0.5080    1.5930 c3        1 SEP      0.033500
      3 CB         -0.5800    0.2150    0.4530 c3        1 SEP      0.206400
      4 OG         -0.2720    0.9240   -0.6910 os        1 SEP     -0.591200
      5 C          -0.1360    0.0830    2.9640 c         1 SEP      0.908600
      6 O           0.0010   -1.1050    3.3970 o         1 SEP     -0.906800
      7 OXT        -0.7340    0.9580    3.6730 o         1 SEP     -0.906800
      8 P           0.1730    0.0090   -2.0710 p5        1 SEP      1.325900
      9 O1P        -0.9830   -0.9410   -2.2790 o         1 SEP     -0.949167
     10 O2P         0.3140    1.0680   -3.1390 o         1 SEP     -0.949167
     11 O3P         1.4660   -0.6420   -1.6360 o         1 SEP     -0.949167
     12 H           1.9080   -0.0330    0.3250 hn        1 SEP      0.354800
     13 H2          1.7540   -1.0110    1.6120 hn        1 SEP      0.354800
     14 HA          0.5710    1.6300    1.6260 h1        1 SEP      0.026700
     15 HB2        -0.6140   -0.8890    0.2380 h1        1 SEP     -0.011800
     16 HB3        -1.5950    0.5400    0.8270 h1        1 SEP     -0.011800
@<TRIPOS>BOND
     1    1    2 1   
     2    1   12 1   
     3    1   13 1   
     4    2    3 1   
     5    2    5 1   
     6    2   14 1   
     7    3    4 1   
     8    3   15 1   
     9    3   16 1   
    10    4    8 1   
    11    5    6 1   
    12    5    7 1   
    13    8    9 1   
    14    8   10 1   
    15    8   11 1   
@<TRIPOS>SUBSTRUCTURE
     1 SEP         1 TEMP              0 ****  ****    0 ROOT
