@<TRIPOS>MOLECULE
SER
   13    12     1     0     0
SMALL
bcc


@<TRIPOS>ATOM
      1 N           1.5610    0.5800   -0.6920 n3        1 SER     -0.898800
      2 CA          0.1650    0.4580   -0.3230 c3        1 SER      0.030500
      3 C          -0.0620   -0.0620    1.1410 c         1 SER      0.908600
      4 O           0.8290   -0.7900    1.6620 o         1 SER     -0.838300
      5 CB         -0.6740   -0.4770   -1.2080 c3        1 SER      0.107400
      6 OG         -0.6150   -0.0190   -2.5560 oh        1 SER     -0.620800
      7 OXT        -1.1490    0.2580    1.6940 o         1 SER     -0.838300
      8 H           2.1180    0.0500   -0.0430 hn        1 SER      0.335800
      9 H2          1.7050    0.2020   -1.6090 hn        1 SER      0.335800
     10 HA         -0.2810    1.4910   -0.3990 h1        1 SER      0.055700
     11 HB2        -0.2820   -1.5280   -1.1620 h1        1 SER      0.025700
     12 HB3        -1.7340   -0.4600   -0.8400 h1        1 SER      0.025700
     13 HG         -1.2570   -0.5430   -3.0440 ho        1 SER      0.371000
@<TRIPOS>BOND
     1    1    2 1   
     2    1    8 1   
     3    1    9 1   
     4    2    3 1   
     5    2    5 1   
     6    2   10 1   
     7    3    4 1   
     8    3    7 1   
     9    5    6 1   
    10    5   11 1   
    11    5   12 1   
    12    6   13 1   
@<TRIPOS>SUBSTRUCTURE
     1 SER         1 TEMP              0 ****  ****    0 ROOT
