@<TRIPOS>MOLECULE
SES
   31    30     1     0     0
SMALL
bcc


@<TRIPOS>ATOM
      1 C1         -0.4230    0.2320   -0.9750 c3        1 SES     -0.096100
      2 C2          0.8780   -0.0720   -1.6580 c3        1 SES     -0.096100
      3 C3          2.5130    0.5000    1.7180 c2        1 SES     -0.186000
      4 C4          3.2130   -0.4550    2.3330 ce        1 SES     -0.221800
      5 C11         6.0360   -4.1700    2.0320 c3        1 SES     -0.094100
      6 C12         5.8870   -2.7540    2.5240 c3        1 SES     -0.079400
      7 N21         3.9250    0.9140    4.2840 nc        1 SES     -0.681000
      8 C22         4.6880    0.8100    5.3880 cd        1 SES      0.592300
      9 N22         4.9960    1.8400    6.2850 nh        1 SES     -0.882500
     10 SE1         5.4380   -0.7510    5.5800 ss        1 SES     -0.116300
     11 C24         4.7160   -1.2980    4.1630 cd        1 SES     -0.194700
     12 C25         3.9500   -0.2860    3.5760 cc        1 SES      0.413100
     13 H11         1.3620   -0.9710   -1.2050 hc        1 SES      0.032200
     14 H12        -1.1280   -0.6290   -1.0680 hc        1 SES      0.032200
     15 H13        -0.2600    0.4350    0.1120 hc        1 SES      0.032200
     16 H21        -0.9070    1.1300   -1.4290 hc        1 SES      0.032200
     17 H22         0.7170   -0.2740   -2.7450 hc        1 SES      0.032200
     18 H31         1.5840    0.7890   -1.5650 hc        1 SES      0.032200
     19 H32         1.9790    0.3030    0.7760 ha        1 SES      0.122000
     20 H41         2.4250    1.5260    2.0990 ha        1 SES      0.122000
     21 H42         3.2770   -1.4740    1.9110 ha        1 SES      0.126000
     22 H111        5.5400   -2.0930    1.6860 hc        1 SES      0.047200
     23 H112        6.4010   -4.8370    2.8510 hc        1 SES      0.034033
     24 H113        6.7690   -4.2110    1.1910 hc        1 SES      0.034033
     25 H121        5.0580   -4.5670    1.6670 hc        1 SES      0.034033
     26 H122        6.8820   -2.3640    2.8630 hc        1 SES      0.047200
     27 H131        3.9010   -3.0800    3.3270 hc        1 SES      0.051200
     28 H132        5.2440   -3.3360    4.5080 hc        1 SES      0.051200
     29 HN21        4.6350    2.7320    6.0060 hn        1 SES      0.390800
     30 HN22        4.7160    1.6130    7.2190 hn        1 SES      0.390800
     31 C13         4.8920   -2.6730    3.6700 c3        1 SES     -0.001100
@<TRIPOS>BOND
     1    1    2 1   
     2    1   14 1   
     3    1   15 1   
     4    1   16 1   
     5    2   13 1   
     6    2   17 1   
     7    2   18 1   
     8    3    4 2   
     9    3   19 1   
    10    3   20 1   
    11    4   12 1   
    12    4   21 1   
    13    5    6 1   
    14    5   23 1   
    15    5   24 1   
    16    5   25 1   
    17    6   22 1   
    18    6   26 1   
    19    6   31 1   
    20    7    8 2   
    21    7   12 1   
    22    8    9 1   
    23    8   10 1   
    24    9   29 1   
    25    9   30 1   
    26   10   11 1   
    27   11   12 2   
    28   11   31 1   
    29   27   31 1   
    30   28   31 1   
@<TRIPOS>SUBSTRUCTURE
     1 SES         1 TEMP              0 ****  ****    0 ROOT
