@<TRIPOS>MOLECULE
SES
   31    30     1     0     0
SMALL
bcc


@<TRIPOS>ATOM
      1 C1         -3.1000   -1.5160   -3.4280 c3        1 SES     -0.210000
      2 C2         -1.7400   -0.8820   -3.2340 c3        1 SES     -0.159000
      3 C3         -1.4370   -0.7820   -1.7550 c3        1 SES     -0.155000
      4 C4         -0.1890    0.0480   -1.5500 c3        1 SES     -0.091000
      5 C11         0.4690    3.0170    3.7950 c3        1 SES     -0.210000
      6 C12         1.1630    1.9970    2.9190 c3        1 SES     -0.165000
      7 C13         0.1820    1.4510    1.9060 c3        1 SES     -0.088000
      8 N21         1.3180   -1.4900   -0.5730 n2        1 SES     -0.156000
      9 C22         2.3230   -1.6690    0.4640 c1        1 SES     -0.185000
     10 N22         3.2770   -2.7180    0.5290 n2        1 SES     -0.279000
     11 SE1         2.0850   -0.5330    1.5850 ss        1 SES      0.470000
     12 C24         0.8390    0.3420    1.1140 c2        1 SES     -0.398000
     13 C25         0.3640   -0.2050   -0.1650 c2        1 SES     -0.060000
     14 H11        -3.3680   -1.4320   -4.3670 hc        1 SES      0.072333
     15 H12        -3.7560   -1.0620   -2.8590 hc        1 SES      0.072333
     16 H13        -3.0560   -2.4640   -3.1850 hc        1 SES      0.072333
     17 H21        -1.7370    0.0130   -3.6280 hc        1 SES      0.077500
     18 H22        -1.0580   -1.4320   -3.6690 hc        1 SES      0.077500
     19 H31        -2.1900   -0.3570   -1.2960 hc        1 SES      0.087000
     20 H32        -1.2960   -1.6780   -1.3890 hc        1 SES      0.087000
     21 H41        -0.4080    0.9960   -1.6460 hc        1 SES      0.094500
     22 H42         0.4810   -0.2000   -2.2190 hc        1 SES      0.094500
     23 H111       -0.1880    2.5660    4.3650 hc        1 SES      0.074667
     24 H112        0.0130    3.6770    3.2300 hc        1 SES      0.074667
     25 H113        1.1320    3.4710    4.3570 hc        1 SES      0.074667
     26 H121        1.4990    1.2660    3.4750 hc        1 SES      0.084000
     27 H122        1.9100    2.4230    2.4530 hc        1 SES      0.084000
     28 H131       -0.0920    2.1680    1.2980 hc        1 SES      0.095000
     29 H132       -0.6040    1.0990    2.3700 hc        1 SES      0.095000
     30 HN21        3.3920   -3.2760   -0.1850 hn        1 SES      0.184500
     31 HN22        3.7730   -2.8380    1.2880 hn        1 SES      0.184500
@<TRIPOS>BOND
     1    1    2 1   
     2    1   14 1   
     3    1   15 1   
     4    1   16 1   
     5    2    3 1   
     6    2   17 1   
     7    2   18 1   
     8    3    4 1   
     9    3   19 1   
    10    3   20 1   
    11    4   13 1   
    12    4   21 1   
    13    4   22 1   
    14    5    6 1   
    15    5   23 1   
    16    5   24 1   
    17    5   25 1   
    18    6    7 1   
    19    6   26 1   
    20    6   27 1   
    21    7   12 1   
    22    7   28 1   
    23    7   29 1   
    24    8    9 1   
    25    8   13 1   
    26    9   11 1   
    27   10   30 1   
    28   10   31 1   
    29   11   12 1   
    30   12   13 1   
@<TRIPOS>SUBSTRUCTURE
     1 SES         1 TEMP              0 ****  ****    0 ROOT
