@<TRIPOS>MOLECULE
SES
   31    31     1     0     0
SMALL
bcc


@<TRIPOS>ATOM
      1 C1          5.1390    1.8440   -0.6850 c3        1 SES     -0.092100
      2 C2          4.2670    0.9310    0.1380 c3        1 SES     -0.081400
      3 C3          2.7990    1.1470   -0.1670 c3        1 SES     -0.076400
      4 C4          1.9330    0.2260    0.6710 c3        1 SES     -0.105700
      5 C11         0.6140   -4.3030    0.4760 c3        1 SES     -0.094100
      6 C12         0.1820   -2.8990    0.8070 c3        1 SES     -0.078400
      7 N21        -0.1660    1.5790    0.5450 nc        1 SES     -0.686000
      8 C22        -1.4570    1.4710    0.1780 cd        1 SES      0.595300
      9 N22        -2.3940    2.5090    0.1310 nh        1 SES     -0.883500
     10 SE1        -1.8890   -0.1120   -0.4080 ss        1 SES     -0.128300
     11 C24        -0.3150   -0.6600   -0.1520 cd        1 SES     -0.199700
     12 C25         0.4860    0.3670    0.3420 cc        1 SES      0.371600
     13 H11         4.9850    1.6580   -1.7760 hc        1 SES      0.033033
     14 H12         4.8980    2.9140   -0.4750 hc        1 SES      0.033033
     15 H13         6.2160    1.6710   -0.4460 hc        1 SES      0.033033
     16 H21         4.5410   -0.1370   -0.0670 hc        1 SES      0.036700
     17 H22         4.4520    1.1160    1.2290 hc        1 SES      0.036700
     18 H31         2.5250    2.2150    0.0370 hc        1 SES      0.051200
     19 H32         2.6090    0.9560   -1.2560 hc        1 SES      0.051200
     20 H41         2.2430   -0.8400    0.5040 hc        1 SES      0.053200
     21 H42         2.0890    0.4540    1.7610 hc        1 SES      0.053200
     22 H111       -0.1140   -4.7880   -0.2180 hc        1 SES      0.034033
     23 H112        1.6180   -4.3030   -0.0150 hc        1 SES      0.034033
     24 H113        0.6770   -4.9180    1.4060 hc        1 SES      0.034033
     25 H121       -0.8150   -2.9200    1.3210 hc        1 SES      0.044700
     26 H122        0.9130   -2.4340    1.5210 hc        1 SES      0.044700
     27 H131        1.0870   -2.0400   -0.9660 hc        1 SES      0.052700
     28 H132       -0.6460   -2.5130   -1.1550 hc        1 SES      0.052700
     29 HN21       -2.0150    3.4030    0.3770 hn        1 SES      0.391300
     30 HN22       -3.2100    2.2980    0.6720 hn        1 SES      0.391300
     31 C13         0.0890   -2.0440   -0.4450 c3        1 SES     -0.000100
@<TRIPOS>BOND
     1    1    2 1   
     2    1   13 1   
     3    1   14 1   
     4    1   15 1   
     5    2    3 1   
     6    2   16 1   
     7    2   17 1   
     8    3    4 1   
     9    3   18 1   
    10    3   19 1   
    11    4   12 1   
    12    4   20 1   
    13    4   21 1   
    14    5    6 1   
    15    5   22 1   
    16    5   23 1   
    17    5   24 1   
    18    6   25 1   
    19    6   26 1   
    20    6   31 1   
    21    7    8 2   
    22    7   12 1   
    23    8    9 1   
    24    8   10 1   
    25    9   29 1   
    26    9   30 1   
    27   10   11 1   
    28   11   12 2   
    29   11   31 1   
    30   27   31 1   
    31   28   31 1   
@<TRIPOS>SUBSTRUCTURE
     1 SES         1 TEMP              0 ****  ****    0 ROOT
