@<TRIPOS>MOLECULE
SES
   32    30     1     0     0
SMALL
bcc


@<TRIPOS>ATOM
      1 C1         -0.2450   -0.6820   -0.6570 c3        1 SES     -0.097100
      2 C2          1.1270   -0.2830   -1.1140 c3        1 SES     -0.097100
      3 C3          1.9420    1.0500    2.1910 c2        1 SES     -0.128000
      4 C4          3.0400    0.3140    2.3830 ce        1 SES     -0.261800
      5 C11         5.2290   -5.2000    1.0540 c3        1 SES     -0.113800
      6 C12         6.2890   -2.4230    3.0600 c2        1 SES     -0.144000
      7 N21         3.9100    1.5100    4.3740 nc        1 SES     -0.577000
      8 C22         4.8670    1.3480    5.3310 cd        1 SES      0.272300
      9 N22         5.0580    2.3580    6.3540 n4        1 SES     -0.764300
     10 SE1         5.7730   -0.0850    5.2040 ss        1 SES      0.124700
     11 C24         4.9160   -0.5440    3.8530 cd        1 SES     -0.104200
     12 C25         3.9310    0.4330    3.5260 cc        1 SES      0.433100
     13 H11         1.9040   -0.6210   -0.3840 hc        1 SES      0.032533
     14 H12        -0.4820   -0.2250    0.3350 hc        1 SES      0.032533
     15 H13        -1.0180   -0.3430   -1.3890 hc        1 SES      0.032533
     16 H21        -0.3220   -1.7920   -0.5580 hc        1 SES      0.032533
     17 H22         1.3610   -0.7410   -2.1060 hc        1 SES      0.032533
     18 H31         1.2040    0.8270   -1.2160 hc        1 SES      0.032533
     19 H32         1.5970    1.8280    2.8860 ha        1 SES      0.138500
     20 H41         1.3120    0.9030    1.2980 ha        1 SES      0.138500
     21 H42         3.3450   -0.4560    1.6510 ha        1 SES      0.152000
     22 H111        4.5480   -4.3870    1.3930 hc        1 SES      0.028950
     23 H112        5.6630   -5.7150    1.9390 hc        1 SES      0.028950
     24 H113        4.6540   -5.9320    0.4470 hc        1 SES      0.028950
     25 H121        6.0450   -4.7680    0.4350 hc        1 SES      0.028950
     26 H122        6.3770   -3.3680    2.4990 ha        1 SES      0.139000
     27 H131        7.2180   -2.0660    3.5250 ha        1 SES      0.139000
     28 H132        4.2210   -2.1770    2.6370 ha        1 SES      0.169000
     29 HN21        5.2620    3.2670    5.9150 hn        1 SES      0.469800
     30 HN22        4.1990    2.4500    6.9150 hn        1 SES      0.469800
     31 H223        5.8380    2.0870    6.9610 hn        1 SES      0.469800
     32 C13         5.1220   -1.7750    3.1430 cf        1 SES     -0.138200
@<TRIPOS>BOND
     1    1    2 1   
     2    1   14 1   
     3    1   15 1   
     4    1   16 1   
     5    2   13 1   
     6    2   17 1   
     7    2   18 1   
     8    3    4 2   
     9    3   19 1   
    10    3   20 1   
    11    4   12 1   
    12    4   21 1   
    13    5   22 1   
    14    5   23 1   
    15    5   24 1   
    16    5   25 1   
    17    6   26 1   
    18    6   27 1   
    19    6   32 2   
    20    7    8 2   
    21    7   12 1   
    22    8    9 1   
    23    8   10 1   
    24    9   29 1   
    25    9   30 1   
    26    9   31 1   
    27   10   11 1   
    28   11   12 2   
    29   11   32 1   
    30   28   32 1   
@<TRIPOS>SUBSTRUCTURE
     1 SES         1 TEMP              0 ****  ****    0 ROOT
