@<TRIPOS>MOLECULE
SES
   31    29     1     0     0
SMALL
bcc


@<TRIPOS>ATOM
      1 C1          0.0360    0.4140   -0.1330 c3        1 SES     -0.092100
      2 C2          1.5330    0.2340   -0.1920 c3        1 SES     -0.057200
      3 C3          2.1690    0.4570    1.1290 c2        1 SES     -0.121200
      4 C4          3.2540   -0.2190    1.5340 ce        1 SES     -0.236800
      5 C11         6.1650   -5.5100    0.7560 c3        1 SES     -0.111800
      6 C12         6.3090   -2.8910    3.2360 c2        1 SES     -0.231000
      7 N21         3.6760    1.1110    3.5850 nc        1 SES     -0.691000
      8 C22         4.4150    1.0650    4.7120 cd        1 SES      0.603300
      9 N22         4.3440    1.9700    5.7740 nv        1 SES     -0.885500
     10 SE1         5.4210   -0.3480    4.8400 ss        1 SES     -0.118300
     11 C24         4.8630   -0.9100    3.3470 cd        1 SES     -0.176200
     12 C25         3.9210   -0.0190    2.8100 cc        1 SES      0.439100
     13 H11        -0.5450    1.7830    2.9830 ha        1 SES      0.000500
     14 H12        -0.2250    1.4590    0.1660 hc        1 SES      0.036367
     15 H13        -0.4160    0.2080   -1.1320 hc        1 SES      0.036367
     16 H21        -0.4160   -0.2840    0.6130 hc        1 SES      0.036367
     17 H22         1.9690    0.9700   -0.9240 hc        1 SES      0.048700
     18 H31         1.7740   -0.7920   -0.5790 hc        1 SES      0.048700
     19 H32        -0.5060    1.3990    2.4270 ha        1 SES      0.000500
     20 H41         1.6930    1.2270    1.7610 ha        1 SES      0.144000
     21 H42         3.7100   -0.9900    0.8910 ha        1 SES      0.127000
     22 H111        5.4990   -4.6200    0.8000 hc        1 SES      0.028200
     23 H112        7.2210   -5.1760    0.6510 hc        1 SES      0.028200
     24 H113        5.8860   -6.1400   -0.1160 hc        1 SES      0.028200
     25 H121        6.0540   -6.1000    1.6920 hc        1 SES      0.028200
     26 H122        6.8800   -2.6290    4.1360 ha        1 SES      0.118000
     27 H131        6.6090   -3.8260    2.7430 ha        1 SES      0.118000
     28 H132        4.7700   -2.4550    1.8480 ha        1 SES      0.132000
     29 HN21        5.2440    2.3170    6.0350 hn        1 SES      0.395300
     30 HN22        3.6860    2.7120    5.6330 hn        1 SES      0.395300
     31 C13         5.3130   -2.1380    2.7580 cf        1 SES     -0.071200
@<TRIPOS>BOND
     1    1    2 1   
     2    1   14 1   
     3    1   15 1   
     4    1   16 1   
     5    2    3 1   
     6    2   17 1   
     7    2   18 1   
     8    3    4 2   
     9    3   20 1   
    10    4   12 1   
    11    4   21 1   
    12    5   22 1   
    13    5   23 1   
    14    5   24 1   
    15    5   25 1   
    16    6   26 1   
    17    6   27 1   
    18    6   31 2   
    19    7    8 2   
    20    7   12 1   
    21    8    9 1   
    22    8   10 1   
    23    9   29 1   
    24    9   30 1   
    25   10   11 1   
    26   11   12 2   
    27   11   31 1   
    28   13   19 1   
    29   28   31 1   
@<TRIPOS>SUBSTRUCTURE
     1 SES         1 TEMP              0 ****  ****    0 ROOT
