@<TRIPOS>MOLECULE
SET
   15    14     1     0     0
SMALL
bcc


@<TRIPOS>ATOM
      1 N           0.9880    1.0260   -0.3670 n3        1 SET     -0.901800
      2 CA         -0.2900    0.3470   -0.3270 c3        1 SET      0.093500
      3 CB         -0.4460   -0.8260   -1.3190 c3        1 SET      0.098400
      4 OG         -0.2150   -0.2940   -2.6140 oh        1 SET     -0.616800
      5 C          -0.6190   -0.1920    1.0800 c         1 SET      0.656100
      6 O          -1.0670   -1.3460    1.2410 o         1 SET     -0.626100
      7 H           1.1030    1.4570   -1.2650 hn        1 SET      0.361300
      8 H2          1.7360    0.3740   -0.2260 hn        1 SET      0.361300
      9 HA         -1.0850    1.1130   -0.5810 h1        1 SET      0.088700
     10 HB2         0.2980   -1.6360   -1.0960 h1        1 SET      0.047700
     11 HB3        -1.4820   -1.2480   -1.2390 h1        1 SET      0.047700
     12 HG         -0.4310   -0.9940   -3.2410 ho        1 SET      0.410000
     13 HNT1       -0.6420    0.3170    3.0590 hn        1 SET      0.317000
     14 HNT2       -0.0230    1.5300    2.0360 hn        1 SET      0.317000
     15 NT         -0.4650    0.6530    2.1450 n         1 SET     -0.655000
@<TRIPOS>BOND
     1    1    2 1   
     2    1    7 1   
     3    1    8 1   
     4    2    3 1   
     5    2    5 1   
     6    2    9 1   
     7    3    4 1   
     8    3   10 1   
     9    3   11 1   
    10    4   12 1   
    11    5    6 2   
    12    5   15 1   
    13   13   15 1   
    14   14   15 1   
@<TRIPOS>SUBSTRUCTURE
     1 SET         1 TEMP              0 ****  ****    0 ROOT
