@<TRIPOS>MOLECULE
SEU
   15    14     1     0     0
SMALL
bcc


@<TRIPOS>ATOM
      1 C1          0.0040    0.1330    0.1310 c3        1 SEU     -0.109100
      2 C2          1.4800   -0.0030   -0.1140 c3        1 SEU     -0.003300
      3 S3          2.1990    0.0870    1.5120 ss        1 SEU     -0.183300
      4 C4          3.8900   -0.0700    1.2240 c2        1 SEU      0.522100
      5 N5          4.6120   -0.2190    0.1810 n2        1 SEU     -0.737100
      6 N6          4.6450   -0.0130    2.5250 n4        1 SEU     -0.816600
      7 H11        -0.5360    0.0870   -0.8500 hc        1 SEU      0.077700
      8 H12        -0.2390    1.1110    0.6150 hc        1 SEU      0.077700
      9 H13        -0.3790   -0.6970    0.7760 hc        1 SEU      0.077700
     10 H21         1.8590    0.8250   -0.7600 h1        1 SEU      0.088700
     11 H22         1.7200   -0.9800   -0.5990 h1        1 SEU      0.088700
     12 HN5         4.1880   -0.2660   -0.7210 hn        1 SEU      0.488400
     13 HN61        4.4530    0.8890    2.9750 hn        1 SEU      0.476467
     14 HN62        5.6610   -0.1090    2.3810 hn        1 SEU      0.476467
     15 H63         4.3170   -0.7760    3.1270 hn        1 SEU      0.476467
@<TRIPOS>BOND
     1    1    2 1   
     2    1    7 1   
     3    1    8 1   
     4    1    9 1   
     5    2    3 1   
     6    2   10 1   
     7    2   11 1   
     8    3    4 1   
     9    4    5 2   
    10    4    6 1   
    11    5   12 1   
    12    6   13 1   
    13    6   14 1   
    14    6   15 1   
@<TRIPOS>SUBSTRUCTURE
     1 SEU         1 TEMP              0 ****  ****    0 ROOT
