@<TRIPOS>MOLECULE
SEU
   15    14     1     0     0
SMALL
bcc


@<TRIPOS>ATOM
      1 C1          0.0010    0.1650    0.1510 c3        1 SEU     -0.109100
      2 C2          1.4730    0.0150   -0.1050 c3        1 SEU     -0.003300
      3 S3          2.2050    0.0860    1.5150 ss        1 SEU     -0.183300
      4 C4          3.8920   -0.0870    1.2140 c2        1 SEU      0.522100
      5 N5          4.6050   -0.2380    0.1630 n2        1 SEU     -0.737100
      6 N6          4.6580   -0.0470    2.5080 nz        1 SEU     -0.816600
      7 H11        -0.2280    1.1430    0.6430 hc        1 SEU      0.077700
      8 H12        -0.3870   -0.6640    0.7940 hc        1 SEU      0.077700
      9 H13        -0.5470    0.1320   -0.8260 hc        1 SEU      0.077700
     10 H21         1.6980   -0.9620   -0.5990 h1        1 SEU      0.088700
     11 H22         1.8560    0.8430   -0.7500 h1        1 SEU      0.088700
     12 HN5         4.1730   -0.2740   -0.7350 hn        1 SEU      0.488400
     13 HN61        4.3250   -0.8110    3.1090 hn        1 SEU      0.476467
     14 HN62        5.6720   -0.1540    2.3560 hn        1 SEU      0.476467
     15 H63         4.4800    0.8540    2.9660 hn        1 SEU      0.476467
@<TRIPOS>BOND
     1    1    2 1   
     2    1    7 1   
     3    1    8 1   
     4    1    9 1   
     5    2    3 1   
     6    2   10 1   
     7    2   11 1   
     8    3    4 1   
     9    4    5 2   
    10    4    6 1   
    11    5   12 1   
    12    6   13 1   
    13    6   14 1   
    14    6   15 1   
@<TRIPOS>SUBSTRUCTURE
     1 SEU         1 TEMP              0 ****  ****    0 ROOT
