@<TRIPOS>MOLECULE
SEU
   14    12     1     0     0
SMALL
bcc


@<TRIPOS>ATOM
      1 C1         -2.3590   -0.0930   -0.7720 c3        1 SEU     -0.091100
      2 C2         -0.8470   -0.0930   -0.7720 c3        1 SEU      0.006700
      3 S3         -0.2560   -0.0930    0.8980 ss        1 SEU     -0.355700
      4 C4          1.5150   -0.1070    0.8980 c2        1 SEU      0.299600
      5 N5          2.1600   -1.2440    0.8810 n1        1 SEU     -0.279000
      6 N6          2.2340    1.1160    0.9170 nh        1 SEU     -0.821600
      7 H11        -2.6840   -0.0730   -1.6920 hc        1 SEU      0.049700
      8 H12        -2.6840   -0.8990   -0.3290 hc        1 SEU      0.049700
      9 H13        -2.6840    0.6940   -0.2950 hc        1 SEU      0.049700
     10 H21        -0.5210    0.7040   -1.2320 h1        1 SEU      0.068700
     11 H22        -0.5210   -0.8900   -1.2320 h1        1 SEU      0.068700
     12 HN5         1.6980   -2.0300    0.8690 DU        1 SEU      0.169000
     13 HN61        2.0720    1.7300    1.5710 hn        1 SEU      0.392800
     14 HN62        2.8770    1.2760    0.2910 hn        1 SEU      0.392800
@<TRIPOS>BOND
     1    1    2 1   
     2    1    7 1   
     3    1    8 1   
     4    1    9 1   
     5    2    3 1   
     6    2   10 1   
     7    2   11 1   
     8    3    4 1   
     9    4    5 2   
    10    4    6 1   
    11    6   13 1   
    12    6   14 1   
@<TRIPOS>SUBSTRUCTURE
     1 SEU         1 TEMP              0 ****  ****    0 ROOT
