@<TRIPOS>MOLECULE
SEU
   15    14     1     0     0
SMALL
bcc


@<TRIPOS>ATOM
      1 C1          0.0010   -0.1100    0.1410 c3        1 SEU     -0.109100
      2 C2          1.4760    0.0170   -0.1090 c3        1 SEU     -0.003300
      3 S3          2.2010   -0.0890    1.5130 ss        1 SEU     -0.183300
      4 C4          3.8920    0.0580    1.2190 c2        1 SEU      0.522100
      5 N5          4.6110    0.2090    0.1730 n2        1 SEU     -0.737100
      6 N6          4.6530   -0.0140    2.5150 n4        1 SEU     -0.816600
      7 H11        -0.3740    0.7170    0.7930 hc        1 SEU      0.077700
      8 H12        -0.2480   -1.0900    0.6200 hc        1 SEU      0.077700
      9 H13        -0.5440   -0.0540   -0.8370 hc        1 SEU      0.077700
     10 H21         1.8460   -0.8100   -0.7620 h1        1 SEU      0.088700
     11 H22         1.7200    0.9960   -0.5890 h1        1 SEU      0.088700
     12 HN5         4.1830    0.2660   -0.7260 hn        1 SEU      0.488400
     13 HN61        4.3360    0.7500    3.1230 hn        1 SEU      0.476467
     14 HN62        4.4520   -0.9160    2.9630 hn        1 SEU      0.476467
     15 H63         5.6690    0.0710    2.3670 hn        1 SEU      0.476467
@<TRIPOS>BOND
     1    1    2 1   
     2    1    7 1   
     3    1    8 1   
     4    1    9 1   
     5    2    3 1   
     6    2   10 1   
     7    2   11 1   
     8    3    4 1   
     9    4    5 2   
    10    4    6 1   
    11    5   12 1   
    12    6   13 1   
    13    6   14 1   
    14    6   15 1   
@<TRIPOS>SUBSTRUCTURE
     1 SEU         1 TEMP              0 ****  ****    0 ROOT
