@<TRIPOS>MOLECULE
SEY
    8     7     1     0     0
SMALL
bcc


@<TRIPOS>ATOM
      1 SE         -0.7280    0.0000   -0.0010 s         1 SEY     -0.616400
      2 C           0.9030    0.0000   -0.0000 c         1 SEY      0.597400
      3 N2          1.6010   -1.1870   -0.0000 n         1 SEY     -0.639000
      4 N1          1.6010    1.1870   -0.0000 n         1 SEY     -0.639000
      5 H2          1.0680   -2.0240   -0.0000 hn        1 SEY      0.324500
      6 H3          1.0680    2.0240   -0.0000 hn        1 SEY      0.324500
      7 H4          2.5870    1.2400    0.0000 hn        1 SEY      0.324500
      8 H1          2.5870   -1.2400    0.0000 hn        1 SEY      0.324500
@<TRIPOS>BOND
     1    1    2 2   
     2    2    3 1   
     3    2    4 1   
     4    3    5 1   
     5    3    8 1   
     6    4    6 1   
     7    4    7 1   
@<TRIPOS>SUBSTRUCTURE
     1 SEY         1 TEMP              0 ****  ****    0 ROOT
