@<TRIPOS>MOLECULE
SEY
   10     9     1     0     0
SMALL
bcc


@<TRIPOS>ATOM
      1 SE          0.0580    0.0050   -0.0000 s         1 SEY      0.463600
      2 C           1.5600   -0.0010    0.0000 c         1 SEY     -0.074600
      3 N2          2.3990   -0.0310    1.2450 n4        1 SEY     -0.698400
      4 N1          2.4000    0.0240   -1.2450 n4        1 SEY     -0.698400
      5 H2          3.0020    0.8040    1.3320 hn        1 SEY      0.501133
      6 H3          3.0020    0.8620   -1.2940 hn        1 SEY      0.501133
      7 H4          1.7550    0.0440   -2.0620 hn        1 SEY      0.501133
      8 H1          2.9960   -0.8730    1.2950 hn        1 SEY      0.501133
      9 H23         1.7550   -0.0460    2.0620 hn        1 SEY      0.501133
     10 H13         2.9970   -0.8150   -1.3310 hn        1 SEY      0.501133
@<TRIPOS>BOND
     1    1    2 2   
     2    2    3 1   
     3    2    4 1   
     4    3    5 1   
     5    3    8 1   
     6    3    9 1   
     7    4    6 1   
     8    4    7 1   
     9    4   10 1   
@<TRIPOS>SUBSTRUCTURE
     1 SEY         1 TEMP              0 ****  ****    0 ROOT
