@<TRIPOS>MOLECULE
SEY
   10     9     1     0     0
SMALL
bcc


@<TRIPOS>ATOM
      1 SE          0.0570    0.0020   -0.0050 s         1 SEY      0.463600
      2 C           1.5590   -0.0010   -0.0020 c         1 SEY     -0.074600
      3 N2          2.3960    0.0340    1.2450 n4        1 SEY     -0.698400
      4 N1          2.4020   -0.0410   -1.2440 n4        1 SEY     -0.698400
      5 H2          2.9980    0.8730    1.2890 hn        1 SEY      0.501133
      6 H3          3.0000   -0.8820   -1.2860 hn        1 SEY      0.501133
      7 H4          1.7590   -0.0640   -2.0620 hn        1 SEY      0.501133
      8 H1          1.7500    0.0610    2.0600 hn        1 SEY      0.501133
      9 H23         2.9940   -0.8030    1.3400 hn        1 SEY      0.501133
     10 H13         3.0030    0.7940   -1.3360 hn        1 SEY      0.501133
@<TRIPOS>BOND
     1    1    2 2   
     2    2    3 1   
     3    2    4 1   
     4    3    5 1   
     5    3    8 1   
     6    3    9 1   
     7    4    6 1   
     8    4    7 1   
     9    4   10 1   
@<TRIPOS>SUBSTRUCTURE
     1 SEY         1 TEMP              0 ****  ****    0 ROOT
