@<TRIPOS>MOLECULE
SEY
   10     9     1     0     0
SMALL
bcc


@<TRIPOS>ATOM
      1 SE          0.0580    0.0040   -0.0060 s         1 SEY      0.463600
      2 C           1.5600   -0.0010   -0.0020 c         1 SEY     -0.074600
      3 N2          2.3960   -0.0480    1.2450 nz        1 SEY     -0.698400
      4 N1          2.4040    0.0410   -1.2440 nz        1 SEY     -0.698400
      5 H2          2.9970    0.7860    1.3460 hn        1 SEY      0.501133
      6 H3          3.0060    0.8800   -1.2800 hn        1 SEY      0.501133
      7 H4          1.7620    0.0730   -2.0620 hn        1 SEY      0.501133
      8 H1          2.9930   -0.8900    1.2850 hn        1 SEY      0.501133
      9 H23         1.7480   -0.0760    2.0600 hn        1 SEY      0.501133
     10 H13         3.0010   -0.7960   -1.3400 hn        1 SEY      0.501133
@<TRIPOS>BOND
     1    1    2 2   
     2    2    3 1   
     3    2    4 1   
     4    3    5 1   
     5    3    8 1   
     6    3    9 1   
     7    4    6 1   
     8    4    7 1   
     9    4   10 1   
@<TRIPOS>SUBSTRUCTURE
     1 SEY         1 TEMP              0 ****  ****    0 ROOT
