@<TRIPOS>MOLECULE
SF1
   42    45     1     0     0
SMALL
bcc


@<TRIPOS>ATOM
      1 CAJ         0.3100   -0.3400    0.5060 ca        1 SF1     -0.111500
      2 CAF         1.6720   -0.1210    0.7100 ca        1 SF1     -0.142500
      3 CAD         2.1110    0.5840    1.8320 ca        1 SF1     -0.136000
      4 CAG         1.1850    1.0680    2.7550 ca        1 SF1     -0.142500
      5 CAK        -0.1780    0.8470    2.5580 ca        1 SF1     -0.111500
      6 CAU        -0.6190    0.1480    1.4310 ca        1 SF1     -0.108300
      7 CAQ        -2.0910   -0.0470    1.1910 c3        1 SF1      0.079600
      8 NBA        -2.5350   -1.4130    1.2180 na        1 SF1     -0.057400
      9 CAX        -2.7230   -2.2240    0.0960 cc        1 SF1      0.031700
     10 CAS        -2.4070   -1.6710   -1.3040 c         1 SF1      0.925800
     11 OAB        -3.2300   -0.8620   -1.7950 o         1 SF1     -0.791300
     12 OAA        -1.3070   -2.0240   -1.8050 o         1 SF1     -0.791300
     13 CAZ        -2.8430   -2.1510    2.3700 ca        1 SF1     -0.059200
     14 CAO        -2.8140   -1.8030    3.7250 ca        1 SF1     -0.129000
     15 CAN        -3.1940   -2.7600    4.6580 ca        1 SF1     -0.142000
     16 CAT        -3.5970   -4.0400    4.2450 ca        1 SF1     -0.005600
     17 ClAC       -4.0550   -5.1780    5.4380 cl        1 SF1     -0.146400
     18 CAP        -3.6350   -4.4110    2.9020 ca        1 SF1     -0.094000
     19 CAY        -3.2580   -3.4720    1.9460 ca        1 SF1     -0.029800
     20 CAW        -3.1840   -3.4950    0.4960 cd        1 SF1     -0.177600
     21 SAR        -3.7270   -4.7690   -0.4260 ss        1 SF1     -0.086500
     22 CAV        -2.3770   -5.6710   -0.9210 ca        1 SF1     -0.018100
     23 CAL        -1.1080   -5.1400   -1.1790 ca        1 SF1     -0.118500
     24 CAH        -0.0800   -5.9650   -1.6310 ca        1 SF1     -0.134000
     25 CAE        -0.3090   -7.3240   -1.8480 ca        1 SF1     -0.156000
     26 CAI        -1.5760   -7.8560   -1.6090 ca        1 SF1     -0.134000
     27 CAM        -2.6010   -7.0380   -1.1420 ca        1 SF1     -0.118500
     28 HAJ        -0.0440   -0.9010   -0.3840 ha        1 SF1      0.159500
     29 HAF         2.3990   -0.5080   -0.0180 ha        1 SF1      0.123000
     30 HAD         3.1850    0.7550    1.9890 ha        1 SF1      0.116000
     31 HAG         1.5280    1.6200    3.6420 ha        1 SF1      0.123000
     32 HAK        -0.9050    1.2220    3.2930 ha        1 SF1      0.159500
     33 HAQ1       -2.3470    0.3690    0.1670 h1        1 SF1      0.079700
     34 HAQ2       -2.6760    0.5230    1.9700 h1        1 SF1      0.079700
     35 HAO        -2.4910   -0.8030    4.0450 ha        1 SF1      0.127000
     36 HAN        -3.1770   -2.5110    5.7290 ha        1 SF1      0.128000
     37 HAP        -3.9520   -5.4180    2.5920 ha        1 SF1      0.151000
     38 HAL        -0.9370   -4.0510   -1.0570 ha        1 SF1      0.158000
     39 HAH         0.9120   -5.5350   -1.8310 ha        1 SF1      0.116500
     40 HAE         0.5010   -7.9710   -2.2090 ha        1 SF1      0.110000
     41 HAI        -1.7660   -8.9240   -1.7850 ha        1 SF1      0.116500
     42 HAM        -3.5960   -7.4630   -0.9420 ha        1 SF1      0.158000
@<TRIPOS>BOND
     1    1    2 ar  
     2    1    6 ar  
     3    1   28 1   
     4    2    3 ar  
     5    2   29 1   
     6    3    4 ar  
     7    3   30 1   
     8    4    5 ar  
     9    4   31 1   
    10    5    6 ar  
    11    5   32 1   
    12    6    7 1   
    13    7    8 1   
    14    7   33 1   
    15    7   34 1   
    16    8    9 1   
    17    8   13 1   
    18    9   10 1   
    19    9   20 2   
    20   10   11 1   
    21   10   12 1   
    22   13   14 ar  
    23   13   19 ar  
    24   14   15 ar  
    25   14   35 1   
    26   15   16 ar  
    27   15   36 1   
    28   16   17 1   
    29   16   18 ar  
    30   18   19 ar  
    31   18   37 1   
    32   19   20 1   
    33   20   21 1   
    34   21   22 1   
    35   22   23 ar  
    36   22   27 ar  
    37   23   24 ar  
    38   23   38 1   
    39   24   25 ar  
    40   24   39 1   
    41   25   26 ar  
    42   25   40 1   
    43   26   27 ar  
    44   26   41 1   
    45   27   42 1   
@<TRIPOS>SUBSTRUCTURE
     1 SF1         1 TEMP              0 ****  ****    0 ROOT
