@<TRIPOS>MOLECULE
SF1
   42    34     1     0     0
SMALL
bcc


@<TRIPOS>ATOM
      1 CAJ         1.0370    3.5160    1.8170 c1        1 SF1     -0.125000
      2 CAF         0.1100    4.5590    1.9940 c1        1 SF1     -0.135875
      3 CAD        -0.7260    4.9450    0.9320 c1        1 SF1     -0.135875
      4 CAG        -0.6370    4.2880   -0.3120 c1        1 SF1     -0.135875
      5 CAK         0.2900    3.2420   -0.4930 c1        1 SF1     -0.135875
      6 CAU         1.1280    2.8540    0.5680 c1        1 SF1     -0.101000
      7 CAQ         2.2210    1.8430    0.3310 c3        1 SF1      0.013000
      8 NBA         1.6700    0.5190    0.3640 n3        1 SF1     -0.149000
      9 CAX         1.4100   -0.1990   -0.7680 c1        1 SF1      0.032000
     10 CAS         1.6610    0.0200   -2.2240 c1        1 SF1      0.376000
     11 OAB         2.7150   -0.4350   -2.7600 o         1 SF1     -0.526000
     12 OAA         0.8720    0.7050   -2.8920 o         1 SF1     -0.526000
     13 CAZ         1.3830   -0.2720    1.4410 c1        1 SF1      0.032000
     14 CAO         1.5510   -0.0700    2.8170 c1        1 SF1     -0.135875
     15 CAN         1.2740   -1.0880    3.7030 c1        1 SF1     -0.135875
     16 CAT         0.8310   -2.3130    3.2350 c1        1 SF1     -0.084000
     17 CLAC        0.4440   -3.5140    4.3730 cl        1 SF1     -0.068000
     18 CAP         0.6630   -2.5190    1.8710 c1        1 SF1     -0.094000
     19 CAY         0.9410   -1.4910    0.9720 c1        1 SF1     -0.224000
     20 CAW         0.9580   -1.4470   -0.3890 c1        1 SF1     -0.224000
     21 SAR         0.6310   -2.8300   -1.4420 s         1 SF1      0.381000
     22 CAV        -1.1170   -2.8120   -1.9270 c2        1 SF1     -0.245000
     23 CAL        -1.5190   -2.0830   -3.0510 c2        1 SF1     -0.105000
     24 CAH        -2.8310   -2.1850   -3.5180 c1        1 SF1     -0.127000
     25 CAE        -3.7340   -3.0070   -2.8690 c1        1 SF1     -0.135875
     26 CAI        -3.3330   -3.7360   -1.7460 c1        1 SF1     -0.135875
     27 CAM        -2.0190   -3.6340   -1.2780 c1        1 SF1     -0.132000
     28 HAJ         1.6060    3.2540    2.5390 ha        1 SF1      0.120000
     29 HAF         0.0430    5.0430    2.9080 ha        1 SF1      0.129500
     30 HAD        -1.4110    5.7160    1.0640 ha        1 SF1      0.129500
     31 HAG        -1.2530    4.5740   -1.0930 ha        1 SF1      0.129500
     32 HAK         0.3540    2.7730   -1.3830 ha        1 SF1      0.129500
     33 HAQ1        2.8990    1.9300    1.0280 h1        1 SF1      0.119000
     34 HAQ2        2.6370    2.0070   -0.5580 h1        1 SF1      0.119000
     35 HAO         1.8710    0.8110    3.1560 ha        1 SF1      0.129500
     36 HAN         1.4460   -0.9550    4.7100 ha        1 SF1      0.129500
     37 HAP         0.3460   -3.3890    1.5420 ha        1 SF1      0.151000
     38 HAL        -0.8860   -1.5050   -3.5050 ha        1 SF1      0.192000
     39 HAH        -3.1340   -1.6150   -4.2640 ha        1 SF1      0.123000
     40 HAE        -4.6720   -3.0800   -3.2030 ha        1 SF1      0.129500
     41 HAI        -3.9950   -4.2490   -1.2350 ha        1 SF1      0.129500
     42 HAM        -1.7250   -4.1680   -0.4550 ha        1 SF1      0.124000
@<TRIPOS>BOND
     1    1    6 1   
     2    1   28 1   
     3    2    3 1   
     4    2   29 1   
     5    3   30 1   
     6    4    5 1   
     7    4   31 1   
     8    5   32 1   
     9    6    7 1   
    10    7    8 1   
    11    7   33 1   
    12    7   34 1   
    13    8    9 1   
    14    8   13 1   
    15    9   20 1   
    16   10   11 1   
    17   10   12 1   
    18   13   19 1   
    19   14   15 1   
    20   14   35 1   
    21   15   36 1   
    22   16   17 1   
    23   16   18 1   
    24   18   37 1   
    25   21   22 1   
    26   22   23 1   
    27   22   27 1   
    28   23   24 1   
    29   23   38 1   
    30   24   39 1   
    31   25   26 1   
    32   25   40 1   
    33   26   41 1   
    34   27   42 1   
@<TRIPOS>SUBSTRUCTURE
     1 SF1         1 TEMP              0 ****  ****    0 ROOT
