@<TRIPOS>MOLECULE
SF1
   42    45     1     0     0
SMALL
bcc


@<TRIPOS>ATOM
      1 CAJ         0.2940   -0.3320    0.4850 ca        1 SF1     -0.111500
      2 CAF         1.6540   -0.1020    0.6880 ca        1 SF1     -0.142500
      3 CAD         2.0880    0.6150    1.8030 ca        1 SF1     -0.136000
      4 CAG         1.1590    1.1010    2.7220 ca        1 SF1     -0.142500
      5 CAK        -0.2020    0.8700    2.5270 ca        1 SF1     -0.111500
      6 CAU        -0.6390    0.1580    1.4060 ca        1 SF1     -0.108300
      7 CAQ        -2.1090   -0.0490    1.1680 c3        1 SF1      0.079600
      8 NBA        -2.5440   -1.4180    1.2060 na        1 SF1     -0.057400
      9 CAX        -2.7260   -2.2400    0.0910 cc        1 SF1      0.031700
     10 CAS        -2.4140   -1.6970   -1.3140 c         1 SF1      0.925800
     11 OAB        -3.2420   -0.8980   -1.8120 o         1 SF1     -0.791300
     12 OAA        -1.3120   -2.0460   -1.8120 o         1 SF1     -0.791300
     13 CAZ        -2.8480   -2.1480    2.3650 ca        1 SF1     -0.059200
     14 CAO        -2.8210   -1.7880    3.7160 ca        1 SF1     -0.129000
     15 CAN        -3.1960   -2.7390    4.6570 ca        1 SF1     -0.142000
     16 CAT        -3.5900   -4.0260    4.2550 ca        1 SF1     -0.005600
     17 CLAC       -4.0400   -5.1570    5.4580 cl        1 SF1     -0.146400
     18 CAP        -3.6250   -4.4090    2.9160 ca        1 SF1     -0.094000
     19 CAY        -3.2540   -3.4750    1.9520 ca        1 SF1     -0.029800
     20 CAW        -3.1790   -3.5110    0.5020 cd        1 SF1     -0.177600
     21 SAR        -3.7130   -4.7960   -0.4100 ss        1 SF1     -0.086500
     22 CAV        -2.3570   -5.6930   -0.8960 ca        1 SF1     -0.018100
     23 CAL        -1.0910   -5.1550   -1.1580 ca        1 SF1     -0.118500
     24 CAH        -0.0580   -5.9780   -1.6030 ca        1 SF1     -0.134000
     25 CAE        -0.2780   -7.3400   -1.8080 ca        1 SF1     -0.156000
     26 CAI        -1.5420   -7.8790   -1.5650 ca        1 SF1     -0.134000
     27 CAM        -2.5710   -7.0640   -1.1050 ca        1 SF1     -0.118500
     28 HAJ        -0.0570   -0.9040   -0.4000 ha        1 SF1      0.159500
     29 HAF         2.3840   -0.4900   -0.0370 ha        1 SF1      0.123000
     30 HAD         3.1610    0.7950    1.9590 ha        1 SF1      0.116000
     31 HAG         1.4980    1.6630    3.6040 ha        1 SF1      0.123000
     32 HAK        -0.9320    1.2460    3.2590 ha        1 SF1      0.159500
     33 HAQ1       -2.3680    0.3560    0.1400 h1        1 SF1      0.079700
     34 HAQ2       -2.6980    0.5240    1.9410 h1        1 SF1      0.079700
     35 HAO        -2.5050   -0.7830    4.0270 ha        1 SF1      0.127000
     36 HAN        -3.1810   -2.4820    5.7260 ha        1 SF1      0.128000
     37 HAP        -3.9350   -5.4200    2.6140 ha        1 SF1      0.151000
     38 HAL        -0.9280   -4.0640   -1.0460 ha        1 SF1      0.158000
     39 HAH         0.9310   -5.5420   -1.8070 ha        1 SF1      0.116500
     40 HAE         0.5370   -7.9840   -2.1630 ha        1 SF1      0.110000
     41 HAI        -1.7240   -8.9500   -1.7310 ha        1 SF1      0.116500
     42 HAM        -3.5640   -7.4930   -0.9020 ha        1 SF1      0.158000
@<TRIPOS>BOND
     1    1    2 ar  
     2    1    6 ar  
     3    1   28 1   
     4    2    3 ar  
     5    2   29 1   
     6    3    4 ar  
     7    3   30 1   
     8    4    5 ar  
     9    4   31 1   
    10    5    6 ar  
    11    5   32 1   
    12    6    7 1   
    13    7    8 1   
    14    7   33 1   
    15    7   34 1   
    16    8    9 1   
    17    8   13 1   
    18    9   10 1   
    19    9   20 2   
    20   10   11 1   
    21   10   12 1   
    22   13   14 ar  
    23   13   19 ar  
    24   14   15 ar  
    25   14   35 1   
    26   15   16 ar  
    27   15   36 1   
    28   16   17 1   
    29   16   18 ar  
    30   18   19 ar  
    31   18   37 1   
    32   19   20 1   
    33   20   21 1   
    34   21   22 1   
    35   22   23 ar  
    36   22   27 ar  
    37   23   24 ar  
    38   23   38 1   
    39   24   25 ar  
    40   24   39 1   
    41   25   26 ar  
    42   25   40 1   
    43   26   27 ar  
    44   26   41 1   
    45   27   42 1   
@<TRIPOS>SUBSTRUCTURE
     1 SF1         1 TEMP              0 ****  ****    0 ROOT
