@<TRIPOS>MOLECULE
SF1
   42    45     1     0     0
SMALL
bcc


@<TRIPOS>ATOM
      1 CAJ        -3.5500   -0.0270   -0.7110 ca        1 SF1     -0.111500
      2 CAF        -4.3660   -0.0290   -1.8410 ca        1 SF1     -0.142500
      3 CAD        -4.9510    1.1550   -2.2900 ca        1 SF1     -0.136000
      4 CAG        -4.7150    2.3490   -1.6090 ca        1 SF1     -0.142500
      5 CAK        -3.8960    2.3580   -0.4810 ca        1 SF1     -0.111500
      6 CAU        -3.3160    1.1710   -0.0250 ca        1 SF1     -0.108300
      7 CAQ        -2.4720    1.1700    1.2200 c3        1 SF1      0.079600
      8 NBA        -1.0940    0.8220    1.0200 na        1 SF1     -0.057400
      9 CAX        -0.5430   -0.4470    1.2120 cc        1 SF1      0.031700
     10 CAS        -1.4510   -1.6140    1.6360 c         1 SF1      0.925800
     11 OAB        -1.8290   -1.6350    2.8320 o         1 SF1     -0.791300
     12 OAA        -1.7980   -2.4080    0.7220 o         1 SF1     -0.791300
     13 CAZ        -0.0820    1.6970    0.5940 ca        1 SF1     -0.059200
     14 CAO        -0.1160    3.0570    0.2670 ca        1 SF1     -0.129000
     15 CAN         1.0710    3.6700   -0.1160 ca        1 SF1     -0.142000
     16 CAT         2.2680    2.9380   -0.1710 ca        1 SF1     -0.005600
     17 CLAC        3.7000    3.7460   -0.6500 cl        1 SF1     -0.146400
     18 CAP         2.3280    1.5830    0.1500 ca        1 SF1     -0.094000
     19 CAY         1.1530    0.9440    0.5370 ca        1 SF1     -0.029800
     20 CAW         0.8410   -0.4150    0.9420 cd        1 SF1     -0.177600
     21 SAR         1.9980   -1.5870    1.1770 ss        1 SF1     -0.086500
     22 CAV         1.9930   -2.6080   -0.1800 ca        1 SF1     -0.018100
     23 CAL         0.8650   -2.9140   -0.9490 ca        1 SF1     -0.118500
     24 CAH         0.9630   -3.8070   -2.0140 ca        1 SF1     -0.134000
     25 CAE         2.1810   -4.4180   -2.3130 ca        1 SF1     -0.156000
     26 CAI         3.3050   -4.1310   -1.5390 ca        1 SF1     -0.134000
     27 CAM         3.2150   -3.2260   -0.4850 ca        1 SF1     -0.118500
     28 HAJ        -3.0810   -0.9670   -0.3500 ha        1 SF1      0.159500
     29 HAF        -4.5470   -0.9720   -2.3780 ha        1 SF1      0.123000
     30 HAD        -5.5940    1.1490   -3.1810 ha        1 SF1      0.116000
     31 HAG        -5.1710    3.2840   -1.9630 ha        1 SF1      0.123000
     32 HAK        -3.7040    3.3030    0.0490 ha        1 SF1      0.159500
     33 HAQ1       -2.5080    2.1920    1.6960 h1        1 SF1      0.079700
     34 HAQ2       -2.9060    0.4150    1.9480 h1        1 SF1      0.079700
     35 HAO        -1.0550    3.6240    0.3030 ha        1 SF1      0.127000
     36 HAN         1.0710    4.7370   -0.3810 ha        1 SF1      0.128000
     37 HAP         3.2720    1.0220    0.1020 ha        1 SF1      0.151000
     38 HAL        -0.1150   -2.4700   -0.6810 ha        1 SF1      0.158000
     39 HAH         0.0690   -4.0400   -2.6100 ha        1 SF1      0.116500
     40 HAE         2.2540   -5.1250   -3.1500 ha        1 SF1      0.110000
     41 HAI         4.2660   -4.6140   -1.7650 ha        1 SF1      0.116500
     42 HAM         4.1060   -2.9910    0.1160 ha        1 SF1      0.158000
@<TRIPOS>BOND
     1    1    2 ar  
     2    1    6 ar  
     3    1   28 1   
     4    2    3 ar  
     5    2   29 1   
     6    3    4 ar  
     7    3   30 1   
     8    4    5 ar  
     9    4   31 1   
    10    5    6 ar  
    11    5   32 1   
    12    6    7 1   
    13    7    8 1   
    14    7   33 1   
    15    7   34 1   
    16    8    9 1   
    17    8   13 1   
    18    9   10 1   
    19    9   20 2   
    20   10   11 1   
    21   10   12 1   
    22   13   14 ar  
    23   13   19 ar  
    24   14   15 ar  
    25   14   35 1   
    26   15   16 ar  
    27   15   36 1   
    28   16   17 1   
    29   16   18 ar  
    30   18   19 ar  
    31   18   37 1   
    32   19   20 1   
    33   20   21 1   
    34   21   22 1   
    35   22   23 ar  
    36   22   27 ar  
    37   23   24 ar  
    38   23   38 1   
    39   24   25 ar  
    40   24   39 1   
    41   25   26 ar  
    42   25   40 1   
    43   26   27 ar  
    44   26   41 1   
    45   27   42 1   
@<TRIPOS>SUBSTRUCTURE
     1 SF1         1 TEMP              0 ****  ****    0 ROOT
