@<TRIPOS>MOLECULE
SF2
   46    49     1     0     0
SMALL
bcc


@<TRIPOS>ATOM
      1 CAA        -0.3170    0.2720    0.8090 c3        1 SF2      0.115700
      2 OAR         1.0870    0.4350    0.6690 os        1 SF2     -0.311900
      3 CAW         1.8610   -0.0360    1.7150 ca        1 SF2      0.114100
      4 CAO         3.2360    0.2530    1.6090 ca        1 SF2     -0.117000
      5 CAJ         1.3550   -0.7600    2.8000 ca        1 SF2     -0.209000
      6 CAH         2.2350   -1.1960    3.7920 ca        1 SF2     -0.115000
      7 CAI         3.5940   -0.9170    3.7040 ca        1 SF2     -0.157000
      8 CAV         4.0940   -0.1970    2.6100 ca        1 SF2     -0.081300
      9 CAQ         5.5730    0.0630    2.5010 c3        1 SF2      0.079600
     10 NBC         5.9550    1.4430    2.5980 na        1 SF2     -0.058400
     11 CAZ         6.2410    2.2780    1.5150 cc        1 SF2      0.032700
     12 CAT         6.1250    1.7270    0.0830 c         1 SF2      0.924800
     13 OAB         7.0530    0.9840   -0.3160 o         1 SF2     -0.789300
     14 OAC         5.0660    2.0110   -0.5340 o         1 SF2     -0.789300
     15 CBB         6.0880    2.1770    3.7870 ca        1 SF2     -0.059200
     16 CAN         5.9120    1.8070    5.1250 ca        1 SF2     -0.129000
     17 CAM         6.1330    2.7650    6.1060 ca        1 SF2     -0.143000
     18 CAU         6.5240    4.0680    5.7560 ca        1 SF2     -0.005600
     19 ClAD        6.7820    5.2070    7.0080 cl        1 SF2     -0.147400
     20 CAP         6.7060    4.4610    4.4320 ca        1 SF2     -0.095000
     21 CBA         6.4900    3.5200    3.4280 ca        1 SF2     -0.028800
     22 CAY         6.5910    3.5630    1.9800 cd        1 SF2     -0.178600
     23 SAS         7.1750    4.8750    1.1420 ss        1 SF2     -0.087500
     24 CAX         5.8490    5.7100    0.4870 ca        1 SF2     -0.018100
     25 CAK         4.6530    5.1160    0.0700 ca        1 SF2     -0.118500
     26 CAF         3.6470    5.8910   -0.5030 ca        1 SF2     -0.134000
     27 CAE         3.8280    7.2630   -0.6820 ca        1 SF2     -0.156000
     28 CAG         5.0250    7.8590   -0.2840 ca        1 SF2     -0.134000
     29 CAL         6.0250    7.0900    0.3040 ca        1 SF2     -0.118500
     30 HAA1       -0.7300    0.7770   -0.1010 h1        1 SF2      0.035700
     31 HAA2       -0.5910   -0.8110    0.8140 h1        1 SF2      0.035700
     32 HAA3       -0.6880    0.7700    1.7370 h1        1 SF2      0.035700
     33 HAO         3.6200    0.8310    0.7430 ha        1 SF2      0.213000
     34 HAJ         0.2840   -0.9850    2.8850 ha        1 SF2      0.124000
     35 HAH         1.8450   -1.7610    4.6510 ha        1 SF2      0.118000
     36 HAI         4.2790   -1.2570    4.4940 ha        1 SF2      0.123000
     37 HAQ1        6.1100   -0.5050    3.3160 h1        1 SF2      0.081200
     38 HAQ2        5.9340   -0.3180    1.4950 h1        1 SF2      0.081200
     39 HAN         5.5990    0.7890    5.3920 ha        1 SF2      0.127000
     40 HAM         6.0000    2.5000    7.1640 ha        1 SF2      0.127000
     41 HAP         7.0110    5.4850    4.1720 ha        1 SF2      0.151000
     42 HAK         4.5260    4.0180    0.1640 ha        1 SF2      0.158500
     43 HAF         2.7130    5.4100   -0.8280 ha        1 SF2      0.117500
     44 HAE         3.0350    7.8700   -1.1390 ha        1 SF2      0.110000
     45 HAG         5.1770    8.9370   -0.4280 ha        1 SF2      0.117500
     46 HAL         6.9640    7.5640    0.6290 ha        1 SF2      0.158500
@<TRIPOS>BOND
     1    1    2 1   
     2    1   30 1   
     3    1   31 1   
     4    1   32 1   
     5    2    3 1   
     6    3    4 ar  
     7    3    5 ar  
     8    4    8 ar  
     9    4   33 1   
    10    5    6 ar  
    11    5   34 1   
    12    6    7 ar  
    13    6   35 1   
    14    7    8 ar  
    15    7   36 1   
    16    8    9 1   
    17    9   10 1   
    18    9   37 1   
    19    9   38 1   
    20   10   11 1   
    21   10   15 1   
    22   11   12 1   
    23   11   22 2   
    24   12   13 1   
    25   12   14 1   
    26   15   16 ar  
    27   15   21 ar  
    28   16   17 ar  
    29   16   39 1   
    30   17   18 ar  
    31   17   40 1   
    32   18   19 1   
    33   18   20 ar  
    34   20   21 ar  
    35   20   41 1   
    36   21   22 1   
    37   22   23 1   
    38   23   24 1   
    39   24   25 ar  
    40   24   29 ar  
    41   25   26 ar  
    42   25   42 1   
    43   26   27 ar  
    44   26   43 1   
    45   27   28 ar  
    46   27   44 1   
    47   28   29 ar  
    48   28   45 1   
    49   29   46 1   
@<TRIPOS>SUBSTRUCTURE
     1 SF2         1 TEMP              0 ****  ****    0 ROOT
