@<TRIPOS>MOLECULE
SF2
   46    49     1     0     0
SMALL
bcc


@<TRIPOS>ATOM
      1 CAA        -5.6090    0.0990    2.4930 c3        1 SF2      0.115700
      2 OAR        -4.7030    0.2210    1.4080 os        1 SF2     -0.311900
      3 CAW        -4.1260   -0.9550    0.9610 ca        1 SF2      0.114100
      4 CAO        -3.1370   -0.7880   -0.0280 ca        1 SF2     -0.117000
      5 CAJ        -4.4820   -2.2270    1.4220 ca        1 SF2     -0.209000
      6 CAH        -3.8400   -3.3450    0.8880 ca        1 SF2     -0.115000
      7 CAI        -2.8600   -3.1980   -0.0880 ca        1 SF2     -0.157000
      8 CAV        -2.5130   -1.9200   -0.5480 ca        1 SF2     -0.081300
      9 CAQ        -1.4820   -1.7750   -1.6360 c3        1 SF2      0.079600
     10 NBC        -0.2700   -1.1160   -1.2390 na        1 SF2     -0.058400
     11 CAZ         0.0300    0.2290   -1.4710 cc        1 SF2      0.032700
     12 CAT        -1.0020    1.1220   -2.1810 c         1 SF2      0.924800
     13 OAB        -1.1070    0.9890   -3.4240 o         1 SF2     -0.789300
     14 OAC        -1.7030    1.8550   -1.4380 o         1 SF2     -0.789300
     15 CBB         0.7960   -1.7080   -0.5440 ca        1 SF2     -0.059200
     16 CAN         0.9840   -3.0140   -0.0800 ca        1 SF2     -0.129000
     17 CAM         2.1720   -3.3150    0.5750 ca        1 SF2     -0.143000
     18 CAU         3.1540   -2.3280    0.7600 ca        1 SF2     -0.005600
     19 CLAD        4.5990   -2.7560    1.5740 cl        1 SF2     -0.147400
     20 CAP         2.9910   -1.0210    0.3070 ca        1 SF2     -0.095000
     21 CBA         1.8100   -0.6920   -0.3510 ca        1 SF2     -0.028800
     22 CAY         1.3080    0.5300   -0.9550 cd        1 SF2     -0.178600
     23 SAS         2.2140    1.9170   -1.1020 ss        1 SF2     -0.087500
     24 CAX         1.7100    3.0010    0.1040 ca        1 SF2     -0.018100
     25 CAK         0.4080    3.0910    0.6090 ca        1 SF2     -0.118500
     26 CAF         0.0910    4.0560    1.5630 ca        1 SF2     -0.134000
     27 CAE         1.0620    4.9510    2.0120 ca        1 SF2     -0.156000
     28 CAG         2.3580    4.8770    1.5010 ca        1 SF2     -0.134000
     29 CAL         2.6820    3.9050    0.5590 ca        1 SF2     -0.118500
     30 HAA1       -5.8890    1.1590    2.7220 h1        1 SF2      0.035700
     31 HAA2       -6.5120   -0.4870    2.1910 h1        1 SF2      0.035700
     32 HAA3       -5.1170   -0.3770    3.3760 h1        1 SF2      0.035700
     33 HAO        -2.8640    0.2280   -0.3810 ha        1 SF2      0.213000
     34 HAJ        -5.2520   -2.3580    2.1930 ha        1 SF2      0.124000
     35 HAH        -4.1120   -4.3470    1.2480 ha        1 SF2      0.118000
     36 HAI        -2.3530   -4.0840   -0.4960 ha        1 SF2      0.123000
     37 HAQ1       -1.2100   -2.7980   -2.0280 h1        1 SF2      0.081200
     38 HAQ2       -1.9330   -1.1690   -2.4830 h1        1 SF2      0.081200
     39 HAN         0.2090   -3.7800   -0.2210 ha        1 SF2      0.127000
     40 HAM         2.3430   -4.3330    0.9510 ha        1 SF2      0.127000
     41 HAP         3.7680   -0.2580    0.4600 ha        1 SF2      0.151000
     42 HAK        -0.3790    2.4150    0.2170 ha        1 SF2      0.158500
     43 HAF        -0.9360    4.1160    1.9500 ha        1 SF2      0.117500
     44 HAE         0.8080    5.7130    2.7610 ha        1 SF2      0.110000
     45 HAG         3.1260    5.5840    1.8450 ha        1 SF2      0.117500
     46 HAL         3.7080    3.8400    0.1660 ha        1 SF2      0.158500
@<TRIPOS>BOND
     1    1    2 1   
     2    1   30 1   
     3    1   31 1   
     4    1   32 1   
     5    2    3 1   
     6    3    4 ar  
     7    3    5 ar  
     8    4    8 ar  
     9    4   33 1   
    10    5    6 ar  
    11    5   34 1   
    12    6    7 ar  
    13    6   35 1   
    14    7    8 ar  
    15    7   36 1   
    16    8    9 1   
    17    9   10 1   
    18    9   37 1   
    19    9   38 1   
    20   10   11 1   
    21   10   15 1   
    22   11   12 1   
    23   11   22 2   
    24   12   13 1   
    25   12   14 1   
    26   15   16 ar  
    27   15   21 ar  
    28   16   17 ar  
    29   16   39 1   
    30   17   18 ar  
    31   17   40 1   
    32   18   19 1   
    33   18   20 ar  
    34   20   21 ar  
    35   20   41 1   
    36   21   22 1   
    37   22   23 1   
    38   23   24 1   
    39   24   25 ar  
    40   24   29 ar  
    41   25   26 ar  
    42   25   42 1   
    43   26   27 ar  
    44   26   43 1   
    45   27   28 ar  
    46   27   44 1   
    47   28   29 ar  
    48   28   45 1   
    49   29   46 1   
@<TRIPOS>SUBSTRUCTURE
     1 SF2         1 TEMP              0 ****  ****    0 ROOT
