@<TRIPOS>MOLECULE
SF2
   46    49     1     0     0
SMALL
bcc


@<TRIPOS>ATOM
      1 CAA         1.3430    0.8330   -0.3040 c3        1 SF2      0.107700
      2 OAR         0.8140    0.1760    0.8490 os        1 SF2     -0.346900
      3 CAW         1.7370   -0.1750    1.8140 ca        1 SF2      0.123100
      4 CAO         3.1080    0.0870    1.7100 ca        1 SF2     -0.178000
      5 CAJ         1.2130   -0.8290    2.9440 ca        1 SF2     -0.165000
      6 CAH         2.0780   -1.2050    3.9670 ca        1 SF2     -0.118000
      7 CAI         3.4450   -0.9380    3.8800 ca        1 SF2     -0.161000
      8 CAV         3.9580   -0.2940    2.7510 ca        1 SF2     -0.075300
      9 CAQ         5.4340   -0.0270    2.6190 c3        1 SF2      0.078600
     10 NBC         5.8020    1.3610    2.6630 na        1 SF2     -0.056400
     11 CAZ         5.9610    2.1990    1.5560 cc        1 SF2      0.030700
     12 CAT         5.6870    1.6650    0.1420 c         1 SF2      0.927800
     13 OAB         6.5240    0.8650   -0.3390 o         1 SF2     -0.795300
     14 OAC         4.6010    2.0200   -0.3910 o         1 SF2     -0.795300
     15 CBB         6.0620    2.0970    3.8300 ca        1 SF2     -0.058200
     16 CAN         6.0330    1.7280    5.1790 ca        1 SF2     -0.129000
     17 CAM         6.3590    2.6870    6.1300 ca        1 SF2     -0.141000
     18 CAU         6.7070    3.9910    5.7400 ca        1 SF2     -0.005600
     19 CLAD        7.0980    5.1310    6.9550 cl        1 SF2     -0.145400
     20 CAP         6.7420    4.3830    4.4040 ca        1 SF2     -0.093000
     21 CBA         6.4200    3.4410    3.4300 ca        1 SF2     -0.030800
     22 CAY         6.3590    3.4840    1.9800 cd        1 SF2     -0.175600
     23 SAS         6.8570    4.7930    1.0810 ss        1 SF2     -0.085500
     24 CAX         5.4760    5.6560    0.6030 ca        1 SF2     -0.017100
     25 CAK         4.2240    5.0860    0.3430 ca        1 SF2     -0.118000
     26 CAF         3.1670    5.8830   -0.0920 ca        1 SF2     -0.134000
     27 CAE         3.3490    7.2520   -0.2890 ca        1 SF2     -0.155000
     28 CAG         4.5990    7.8230   -0.0490 ca        1 SF2     -0.134000
     29 CAL         5.6530    7.0330    0.4020 ca        1 SF2     -0.118000
     30 HAA1        0.4300    1.0850   -0.8980 h1        1 SF2      0.054367
     31 HAA2        1.9070    1.7560   -0.0220 h1        1 SF2      0.054367
     32 HAA3        2.0090    0.1390   -0.8730 h1        1 SF2      0.054367
     33 HAO         3.5310    0.6020    0.8250 ha        1 SF2      0.204000
     34 HAJ         0.1350   -1.0280    3.0060 ha        1 SF2      0.134000
     35 HAH         1.6770   -1.7120    4.8560 ha        1 SF2      0.118000
     36 HAI         4.1150   -1.2290    4.7010 ha        1 SF2      0.121000
     37 HAQ1        5.9860   -0.5610    3.4450 h1        1 SF2      0.079700
     38 HAQ2        5.7850   -0.4340    1.6200 h1        1 SF2      0.079700
     39 HAN         5.7530    0.7100    5.4810 ha        1 SF2      0.127000
     40 HAM         6.3410    2.4230    7.1970 ha        1 SF2      0.128000
     41 HAP         7.0150    5.4080    4.1110 ha        1 SF2      0.152000
     42 HAK         4.0920    3.9910    0.4480 ha        1 SF2      0.157000
     43 HAF         2.1880    5.4240   -0.2920 ha        1 SF2      0.116500
     44 HAE         2.5150    7.8770   -0.6350 ha        1 SF2      0.111000
     45 HAG         4.7520    8.8990   -0.2090 ha        1 SF2      0.116500
     46 HAL         6.6340    7.4880    0.6030 ha        1 SF2      0.157000
@<TRIPOS>BOND
     1    1    2 1   
     2    1   30 1   
     3    1   31 1   
     4    1   32 1   
     5    2    3 1   
     6    3    4 ar  
     7    3    5 ar  
     8    4    8 ar  
     9    4   33 1   
    10    5    6 ar  
    11    5   34 1   
    12    6    7 ar  
    13    6   35 1   
    14    7    8 ar  
    15    7   36 1   
    16    8    9 1   
    17    9   10 1   
    18    9   37 1   
    19    9   38 1   
    20   10   11 1   
    21   10   15 1   
    22   11   12 1   
    23   11   22 2   
    24   12   13 1   
    25   12   14 1   
    26   15   16 ar  
    27   15   21 ar  
    28   16   17 ar  
    29   16   39 1   
    30   17   18 ar  
    31   17   40 1   
    32   18   19 1   
    33   18   20 ar  
    34   20   21 ar  
    35   20   41 1   
    36   21   22 1   
    37   22   23 1   
    38   23   24 1   
    39   24   25 ar  
    40   24   29 ar  
    41   25   26 ar  
    42   25   42 1   
    43   26   27 ar  
    44   26   43 1   
    45   27   28 ar  
    46   27   44 1   
    47   28   29 ar  
    48   28   45 1   
    49   29   46 1   
@<TRIPOS>SUBSTRUCTURE
     1 SF2         1 TEMP              0 ****  ****    0 ROOT
