@<TRIPOS>MOLECULE
SF8
   52    51     1     0     0
SMALL
bcc


@<TRIPOS>ATOM
      1 C1         -0.2740   -0.6450   -0.0150 c         1 SF8      0.918600
      2 C2          1.2280   -0.6730    0.2660 c3        1 SF8     -0.193400
      3 C3          1.7400   -1.4940    1.4490 c3        1 SF8      0.088800
      4 C4          3.2180   -1.1830    1.7630 c3        1 SF8     -0.125400
      5 C5          3.6360    0.2120    2.2140 c         1 SF8      0.670100
      6 N6          4.3750    0.2950    3.3820 n         1 SF8     -0.556900
      7 C7          4.9660    1.5040    3.9200 c3        1 SF8     -0.011300
      8 C8          6.4670    1.6240    3.5670 c3        1 SF8     -0.070400
      9 C9          7.0340    2.9950    3.8890 c3        1 SF8     -0.092400
     10 C10         8.5580    2.9890    3.6930 c3        1 SF8      0.083000
     11 N11         9.2030    4.2720    3.8360 n         1 SF8     -0.551900
     12 C12        10.1340    4.7340    2.9220 c         1 SF8      0.677100
     13 C13        10.7610    6.1030    3.1380 c3        1 SF8     -0.132400
     14 C14        11.7520    6.3100    4.2980 c3        1 SF8      0.072800
     15 C15        11.8210    7.8200    4.5830 c3        1 SF8     -0.188400
     16 C16        12.3540    8.3130    5.9300 c         1 SF8      0.917600
     17 O17        -1.1370   -0.7300    0.9130 o         1 SF8     -0.896800
     18 O18        -0.6470   -0.4630   -1.2230 o         1 SF8     -0.896800
     19 O19         1.0000   -1.2310    2.6310 oh        1 SF8     -0.630800
     20 C20         1.7030   -3.0240    1.1230 c         1 SF8      0.897600
     21 O21         0.8950   -3.7700    1.7530 o         1 SF8     -0.877800
     22 O22         2.5160   -3.4910    0.2650 o         1 SF8     -0.877800
     23 O23         3.4680    1.2230    1.4920 o         1 SF8     -0.671100
     24 C24         4.8390    1.5540    5.4800 c         1 SF8      0.907600
     25 O25         4.5740    2.6710    6.0120 o         1 SF8     -0.860800
     26 O26         5.0190    0.4930    6.1480 o         1 SF8     -0.860800
     27 O27        10.3420    4.1110    1.8520 o         1 SF8     -0.682100
     28 C28        13.1650    5.8000    3.8750 c         1 SF8      0.908600
     29 O29        11.2570    5.5980    5.4190 oh        1 SF8     -0.639800
     30 O30        13.7520    4.9530    4.6070 o         1 SF8     -0.864300
     31 O31        13.6770    6.2600    2.8090 o         1 SF8     -0.864300
     32 O32        12.4250    7.5630    6.9480 o         1 SF8     -0.886300
     33 O33        12.6730    9.5480    6.0010 o         1 SF8     -0.886300
     34 H2          1.7450   -1.0520   -0.6540 hc        1 SF8      0.044700
     35 H2A         1.5350    0.3960    0.4250 hc        1 SF8      0.044700
     36 H4          3.5410   -1.9450    2.5210 hc        1 SF8      0.054200
     37 H4A         3.7840   -1.3800    0.8120 hc        1 SF8      0.054200
     38 HN6         4.3060   -0.4510    4.0370 hn        1 SF8      0.313500
     39 H7          4.4280    2.3950    3.4870 h1        1 SF8      0.062700
     40 H8          6.6170    1.4150    2.4760 hc        1 SF8      0.025200
     41 H8A         7.0290    0.8440    4.1440 hc        1 SF8      0.025200
     42 H9          6.5640    3.7600    3.2200 hc        1 SF8      0.054200
     43 H9A         6.7700    3.2670    4.9450 hc        1 SF8      0.054200
     44 H10         8.7810    2.5910    2.6620 h1        1 SF8      0.035700
     45 H10A        9.0010    2.2660    4.4400 h1        1 SF8      0.035700
     46 HN11        9.2500    4.6550    4.7540 hn        1 SF8      0.324500
     47 H13        11.3280    6.3500    2.1980 hc        1 SF8      0.054700
     48 H13A        9.9100    6.8270    3.2450 hc        1 SF8      0.054700
     49 H15        12.4500    8.2800    3.7780 hc        1 SF8      0.024200
     50 H15A       10.7880    8.2550    4.5070 hc        1 SF8      0.024200
     51 HO19        0.0930   -1.5110    2.4280 ho        1 SF8      0.438000
     52 HO29       11.9500    5.6750    6.0960 ho        1 SF8      0.449000
@<TRIPOS>BOND
     1    1    2 1   
     2    1   17 1   
     3    1   18 1   
     4    2    3 1   
     5    2   34 1   
     6    2   35 1   
     7    3    4 1   
     8    3   19 1   
     9    3   20 1   
    10    4    5 1   
    11    4   36 1   
    12    4   37 1   
    13    5    6 1   
    14    5   23 2   
    15    6    7 1   
    16    6   38 1   
    17    7    8 1   
    18    7   24 1   
    19    7   39 1   
    20    8    9 1   
    21    8   40 1   
    22    8   41 1   
    23    9   10 1   
    24    9   42 1   
    25    9   43 1   
    26   10   11 1   
    27   10   44 1   
    28   10   45 1   
    29   11   12 1   
    30   11   46 1   
    31   12   13 1   
    32   12   27 2   
    33   13   14 1   
    34   13   47 1   
    35   13   48 1   
    36   14   15 1   
    37   14   28 1   
    38   14   29 1   
    39   15   16 1   
    40   15   49 1   
    41   15   50 1   
    42   16   32 1   
    43   16   33 1   
    44   19   51 1   
    45   20   21 1   
    46   20   22 1   
    47   24   25 1   
    48   24   26 1   
    49   28   30 1   
    50   28   31 1   
    51   29   52 1   
@<TRIPOS>SUBSTRUCTURE
     1 SF8         1 TEMP              0 ****  ****    0 ROOT
