@<TRIPOS>MOLECULE
SF8
   52    51     1     0     0
SMALL
bcc


@<TRIPOS>ATOM
      1 C1         -7.6500   -2.7030    0.3330 c         1 SF8      0.918600
      2 C2         -6.4580   -1.9070    0.8660 c3        1 SF8     -0.193400
      3 C3         -6.3840   -0.4080    0.5710 c3        1 SF8      0.088800
      4 C4         -4.9990    0.1740    0.9210 c3        1 SF8     -0.125400
      5 C5         -3.7520   -0.2980    0.1830 c         1 SF8      0.670100
      6 N6         -2.9500    0.6810   -0.3780 n         1 SF8     -0.556900
      7 C7         -1.6700    0.4560   -1.0180 c3        1 SF8     -0.011300
      8 C8         -0.4860    0.7520   -0.0690 c3        1 SF8     -0.070400
      9 C9          0.8430    0.2730   -0.6260 c3        1 SF8     -0.092400
     10 C10         1.9920    0.7620    0.2700 c3        1 SF8      0.083000
     11 N11         3.3000    0.2590   -0.0750 n         1 SF8     -0.551900
     12 C12         4.1660   -0.2540    0.8740 c         1 SF8      0.677100
     13 C13         5.5230   -0.7750    0.4280 c3        1 SF8     -0.132400
     14 C14         6.5960    0.2170   -0.0580 c3        1 SF8      0.072800
     15 C15         7.6170   -0.5760   -0.8900 c3        1 SF8     -0.188400
     16 C16         8.5370    0.1630   -1.8640 c         1 SF8      0.917600
     17 O17        -8.2300   -2.4030   -0.7560 o         1 SF8     -0.896800
     18 O18        -8.0110   -3.7370    0.9890 o         1 SF8     -0.896800
     19 O19        -6.6170   -0.1300   -0.8010 oh        1 SF8     -0.630800
     20 C20        -7.4000    0.3860    1.4590 c         1 SF8      0.897600
     21 O21        -8.3870    0.9560    0.9070 o         1 SF8     -0.877800
     22 O22        -7.1860    0.4760    2.7080 o         1 SF8     -0.877800
     23 O23        -3.3740   -1.4930    0.2130 o         1 SF8     -0.671100
     24 C24        -1.5000    1.3590   -2.2860 c         1 SF8      0.907600
     25 O25        -0.9410    0.8500   -3.3000 o         1 SF8     -0.860800
     26 O26        -1.9090    2.5580   -2.2480 o         1 SF8     -0.860800
     27 O27         3.7830   -0.4350    2.0560 o         1 SF8     -0.682100
     28 C28         7.3150    0.8520    1.1730 c         1 SF8      0.908600
     29 O29         5.9460    1.2020   -0.8440 oh        1 SF8     -0.639800
     30 O30         7.3620    2.1120    1.2690 o         1 SF8     -0.864300
     31 O31         7.8320    0.0770    2.0350 o         1 SF8     -0.864300
     32 O32         8.2890    1.3330   -2.2800 o         1 SF8     -0.886300
     33 O33         9.5520   -0.4840   -2.2940 o         1 SF8     -0.886300
     34 H2         -6.4300   -2.0310    1.9790 hc        1 SF8      0.044700
     35 H2A        -5.5420   -2.3910    0.4350 hc        1 SF8      0.044700
     36 H4         -5.1000    1.2890    0.8320 hc        1 SF8      0.054200
     37 H4A        -4.8260   -0.0720    2.0040 hc        1 SF8      0.054200
     38 HN6        -3.3610    1.5630   -0.5880 hn        1 SF8      0.313500
     39 H7         -1.6070   -0.6240   -1.3360 h1        1 SF8      0.062700
     40 H8         -0.4390    1.8600    0.1040 hc        1 SF8      0.025200
     41 H8A        -0.6630    0.2600    0.9230 hc        1 SF8      0.025200
     42 H9          0.8450   -0.8460   -0.6770 hc        1 SF8      0.054200
     43 H9A         0.9660    0.6570   -1.6730 hc        1 SF8      0.054200
     44 H10         2.0060    1.8910    0.2310 h1        1 SF8      0.035700
     45 H10A        1.7640    0.4620    1.3330 h1        1 SF8      0.035700
     46 HN11        3.7110    0.6050   -0.9140 hn        1 SF8      0.324500
     47 H13         5.9710   -1.3080    1.3120 hc        1 SF8      0.054700
     48 H13A        5.3230   -1.5280   -0.3820 hc        1 SF8      0.054700
     49 H15         8.2640   -1.1400   -0.1700 hc        1 SF8      0.024200
     50 H15A        7.0710   -1.3250   -1.5240 hc        1 SF8      0.024200
     51 HO19       -7.5230   -0.4350   -0.9700 ho        1 SF8      0.438000
     52 HO29        6.6340    1.8560   -1.0520 ho        1 SF8      0.449000
@<TRIPOS>BOND
     1    1    2 1   
     2    1   17 1   
     3    1   18 1   
     4    2    3 1   
     5    2   34 1   
     6    2   35 1   
     7    3    4 1   
     8    3   19 1   
     9    3   20 1   
    10    4    5 1   
    11    4   36 1   
    12    4   37 1   
    13    5    6 1   
    14    5   23 2   
    15    6    7 1   
    16    6   38 1   
    17    7    8 1   
    18    7   24 1   
    19    7   39 1   
    20    8    9 1   
    21    8   40 1   
    22    8   41 1   
    23    9   10 1   
    24    9   42 1   
    25    9   43 1   
    26   10   11 1   
    27   10   44 1   
    28   10   45 1   
    29   11   12 1   
    30   11   46 1   
    31   12   13 1   
    32   12   27 2   
    33   13   14 1   
    34   13   47 1   
    35   13   48 1   
    36   14   15 1   
    37   14   28 1   
    38   14   29 1   
    39   15   16 1   
    40   15   49 1   
    41   15   50 1   
    42   16   32 1   
    43   16   33 1   
    44   19   51 1   
    45   20   21 1   
    46   20   22 1   
    47   24   25 1   
    48   24   26 1   
    49   28   30 1   
    50   28   31 1   
    51   29   52 1   
@<TRIPOS>SUBSTRUCTURE
     1 SF8         1 TEMP              0 ****  ****    0 ROOT
