@<TRIPOS>MOLECULE
SFE
   22    19     1     0     0
SMALL
bcc


@<TRIPOS>ATOM
      1 N          -1.9060   -0.2840   -0.9770 n3        1 SFE     -0.900800
      2 O           1.1240   -0.0300   -3.5660 o         1 SFE     -0.847800
      3 OXT        -0.6310    1.1740   -4.0420 o         1 SFE     -0.847800
      4 CZ          0.9440   -0.2790    3.0350 c1        1 SFE     -0.082250
      5 CE2         0.0250    0.6780    2.6320 c1        1 SFE     -0.082250
      6 CE1         1.4130   -1.2150    2.1270 c1        1 SFE     -0.082250
      7 CD2        -0.4240    0.6990    1.3210 c1        1 SFE     -0.082250
      8 CD1         0.9640   -1.1940    0.8160 c1        1 SFE     -0.071500
      9 CA         -0.0250    0.9990   -1.7220 c3        1 SFE     -0.228400
     10 C           0.1640    0.6940   -3.1920 c         1 SFE      0.906600
     11 CG          0.0460   -0.2370    0.4120 c1        1 SFE     -0.001100
     12 CB         -0.4840   -0.2480   -1.0030 c3        1 SFE      0.174600
     13 HN1        -2.1840   -0.9720   -0.4410 hn        1 SFE      0.355300
     14 HN2        -2.2240   -0.4120   -1.8270 hn        1 SFE      0.355300
     15 HB         -0.1460   -1.0370   -1.4710 h1        1 SFE      0.057700
     16 HA1C       -0.6980    1.7020   -1.6190 hc        1 SFE      0.031200
     17 HA2C        0.8240    1.3020   -1.3410 hc        1 SFE      0.031200
     18 HD2        -1.0700    1.3730    1.0370 ha        1 SFE      0.060500
     19 HE2        -0.3050    1.3380    3.2710 ha        1 SFE      0.060500
     20 HD1         1.2850   -1.8610    0.1790 ha        1 SFE      0.073500
     21 HE1         2.0480   -1.8970    2.4140 ha        1 SFE      0.060500
     22 HZ          1.2600   -0.2930    3.9580 ha        1 SFE      0.060500
@<TRIPOS>BOND
     1    1   12 1   
     2    1   13 1   
     3    1   14 1   
     4    2   10 1   
     5    3   10 1   
     6    4    6 3   
     7    4   22 1   
     8    5    7 3   
     9    5   19 1   
    10    6   21 1   
    11    7   18 1   
    12    8   11 3   
    13    8   20 1   
    14    9   10 1   
    15    9   12 1   
    16    9   16 1   
    17    9   17 1   
    18   11   12 1   
    19   12   15 1   
@<TRIPOS>SUBSTRUCTURE
     1 SFE         1 TEMP              0 ****  ****    0 ROOT
