@<TRIPOS>MOLECULE
SFE
   22    22     1     0     0
SMALL
bcc


@<TRIPOS>ATOM
      1 N           0.7220    1.6430   -0.9070 n3        1 SFE     -0.900800
      2 O           3.4120   -1.2930    0.2810 o         1 SFE     -0.847800
      3 OXT         3.2550    0.9310    0.1950 o         1 SFE     -0.847800
      4 CZ         -3.7690   -0.3320    0.3010 ca        1 SFE     -0.156000
      5 CE2        -3.1550   -1.0500   -0.7230 ca        1 SFE     -0.139500
      6 CE1        -3.0260    0.5870    1.0420 ca        1 SFE     -0.139500
      7 CD2        -1.8050   -0.8510   -1.0080 ca        1 SFE     -0.126500
      8 CD1        -1.6760    0.7850    0.7620 ca        1 SFE     -0.126500
      9 CA          1.2340   -0.3240    0.5940 c3        1 SFE     -0.228400
     10 C           2.7470   -0.2220    0.3320 c         1 SFE      0.906600
     11 CG         -1.0520    0.0670   -0.2660 ca        1 SFE     -0.035300
     12 CB          0.4170    0.2580   -0.5680 c3        1 SFE      0.208800
     13 HN1         0.5700    2.2190   -0.0990 hn        1 SFE      0.355300
     14 HN2         1.7080    1.6970   -1.1210 hn        1 SFE      0.355300
     15 HB          0.6700   -0.3490   -1.4910 h1        1 SFE      0.057700
     16 HA1C        0.9570   -1.3980    0.7360 hc        1 SFE      0.031200
     17 HA2C        1.0010    0.2290    1.5380 hc        1 SFE      0.031200
     18 HD2        -1.3250   -1.4190   -1.8180 ha        1 SFE      0.132500
     19 HE2        -3.7360   -1.7760   -1.3100 ha        1 SFE      0.113500
     20 HD1        -1.0910    1.5040    1.3550 ha        1 SFE      0.132500
     21 HE1        -3.5070    1.1550    1.8520 ha        1 SFE      0.113500
     22 HZ         -4.8340   -0.4880    0.5230 ha        1 SFE      0.111000
@<TRIPOS>BOND
     1    1   12 1   
     2    1   13 1   
     3    1   14 1   
     4    2   10 1   
     5    3   10 1   
     6    4    5 ar  
     7    4    6 ar  
     8    4   22 1   
     9    5    7 ar  
    10    5   19 1   
    11    6    8 ar  
    12    6   21 1   
    13    7   11 ar  
    14    7   18 1   
    15    8   11 ar  
    16    8   20 1   
    17    9   10 1   
    18    9   12 1   
    19    9   16 1   
    20    9   17 1   
    21   11   12 1   
    22   12   15 1   
@<TRIPOS>SUBSTRUCTURE
     1 SFE         1 TEMP              0 ****  ****    0 ROOT
