@<TRIPOS>MOLECULE
SFF
   42    44     1     0     0
SMALL
bcc


@<TRIPOS>ATOM
      1 C15         0.3870    0.3490   -0.1530 c3        1 SFF     -0.100900
      2 C16         1.5870    0.2590    0.7730 c3        1 SFF     -0.078900
      3 C17         1.1770   -0.1210    2.1800 c3        1 SFF     -0.092400
      4 C18         0.1390    0.8340    2.7310 c3        1 SFF     -0.078900
      5 C19        -1.0680    0.9230    1.8170 c3        1 SFF     -0.100900
      6 C14        -0.6100    1.3610    0.4230 c3        1 SFF      0.131500
      7 N13        -1.7910    1.5230   -0.5170 n4        1 SFF     -0.748000
      8 C8         -2.6440    2.6870   -0.1360 c2        1 SFF      0.881500
      9 O7         -3.8160    2.2230    0.4100 os        1 SFF     -0.449400
     10 C3         -4.8480    3.2570    0.6250 c3        1 SFF      0.200100
     11 C2         -5.8420    2.6110    1.5770 c3        1 SFF     -0.079400
     12 C1         -5.3380    2.5430    3.0010 c3        1 SFF     -0.081400
     13 C6         -4.8610    3.8950    3.4860 c3        1 SFF     -0.081400
     14 C5         -3.7890    4.4480    2.5730 c3        1 SFF     -0.051400
     15 C4         -4.2820    4.5740    1.1390 c3        1 SFF     -0.346900
     16 S10        -3.0600    5.3140    0.1130 sy        1 SFF      1.521400
     17 O11        -3.7020    5.8460   -0.9990 o         1 SFF     -0.583800
     18 O12        -2.2240    6.1140    0.8760 o         1 SFF     -0.583800
     19 N9         -2.3000    3.8950   -0.2980 ne        1 SFF     -0.820300
     20 H1          0.7310    0.6690   -1.1720 hc        1 SFF      0.065700
     21 H2         -0.0920   -0.6610   -0.2430 hc        1 SFF      0.065700
     22 H3          2.1280    1.2410    0.7860 hc        1 SFF      0.071200
     23 H4          2.2960   -0.5110    0.3650 hc        1 SFF      0.071200
     24 H5          2.0820   -0.1090    2.8450 hc        1 SFF      0.068200
     25 H6          0.7710   -1.1670    2.1880 hc        1 SFF      0.068200
     26 H7         -0.2010    0.4810    3.7410 hc        1 SFF      0.071200
     27 H8          0.5900    1.8530    2.8640 hc        1 SFF      0.071200
     28 H9         -1.8080    1.6590    2.2320 hc        1 SFF      0.065700
     29 H10        -1.5710   -0.0790    1.7620 hc        1 SFF      0.065700
     30 H11        -0.1110    2.3770    0.4880 hx        1 SFF      0.127700
     31 H12        -2.3700    0.6730   -0.4890 hn        1 SFF      0.475300
     32 H13        -5.3170    3.4130   -0.3910 h1        1 SFF      0.088700
     33 H14        -6.7830    3.2240    1.5300 hc        1 SFF      0.080700
     34 H15        -6.0840    1.5790    1.2100 hc        1 SFF      0.080700
     35 H16        -6.1620    2.1720    3.6650 hc        1 SFF      0.057700
     36 H17        -4.4960    1.8030    3.0630 hc        1 SFF      0.057700
     37 H18        -4.4490    3.8000    4.5250 hc        1 SFF      0.066200
     38 H19        -5.7250    4.6100    3.5310 hc        1 SFF      0.066200
     39 H20        -2.8960    3.7670    2.5960 hc        1 SFF      0.062200
     40 H21        -3.4590    5.4570    2.9430 hc        1 SFF      0.062200
     41 H22        -5.1720    5.2750    1.1640 h1        1 SFF      0.157700
     42 H132       -1.4380    1.6690   -1.4730 hn        1 SFF      0.475300
@<TRIPOS>BOND
     1    1    2 1   
     2    1    6 1   
     3    1   20 1   
     4    1   21 1   
     5    2    3 1   
     6    2   22 1   
     7    2   23 1   
     8    3    4 1   
     9    3   24 1   
    10    3   25 1   
    11    4    5 1   
    12    4   26 1   
    13    4   27 1   
    14    5    6 1   
    15    5   28 1   
    16    5   29 1   
    17    6    7 1   
    18    6   30 1   
    19    7    8 1   
    20    7   31 1   
    21    7   42 1   
    22    8    9 1   
    23    8   19 2   
    24    9   10 1   
    25   10   11 1   
    26   10   15 1   
    27   10   32 1   
    28   11   12 1   
    29   11   33 1   
    30   11   34 1   
    31   12   13 1   
    32   12   35 1   
    33   12   36 1   
    34   13   14 1   
    35   13   37 1   
    36   13   38 1   
    37   14   15 1   
    38   14   39 1   
    39   14   40 1   
    40   15   16 1   
    41   15   41 1   
    42   16   17 2   
    43   16   18 2   
    44   16   19 1   
@<TRIPOS>SUBSTRUCTURE
     1 SFF         1 TEMP              0 ****  ****    0 ROOT
