@<TRIPOS>MOLECULE
SFF
   42    44     1     0     0
SMALL
bcc


@<TRIPOS>ATOM
      1 C15         0.3830    0.3610   -0.1740 c3        1 SFF     -0.100900
      2 C16         1.5870    0.2740    0.7460 c3        1 SFF     -0.078900
      3 C17         1.1870   -0.1110    2.1540 c3        1 SFF     -0.092400
      4 C18         0.1470    0.8370    2.7130 c3        1 SFF     -0.078900
      5 C19        -1.0660    0.9230    1.8050 c3        1 SFF     -0.100900
      6 C14        -0.6160    1.3670    0.4100 c3        1 SFF      0.131500
      7 N13        -1.8030    1.5260   -0.5240 n4        1 SFF     -0.748000
      8 C8         -2.6580    2.6860   -0.1350 c2        1 SFF      0.881500
      9 O7         -3.8230    2.2170    0.4220 os        1 SFF     -0.449400
     10 C3         -4.8570    3.2470    0.6470 c3        1 SFF      0.200100
     11 C2         -5.8380    2.5980    1.6100 c3        1 SFF     -0.079400
     12 C1         -5.3180    2.5340    3.0290 c3        1 SFF     -0.081400
     13 C6         -4.8430    3.8890    3.5070 c3        1 SFF     -0.081400
     14 C5         -3.7830    4.4450    2.5820 c3        1 SFF     -0.051400
     15 C4         -4.2910    4.5670    1.1540 c3        1 SFF     -0.346900
     16 S10        -3.0840    5.3110    0.1140 sy        1 SFF      1.521400
     17 O11        -3.7400    5.8390   -0.9920 o         1 SFF     -0.583800
     18 O12        -2.2440    6.1170    0.8680 o         1 SFF     -0.583800
     19 N9         -2.3210    3.8960   -0.3030 ne        1 SFF     -0.820300
     20 H1         -0.0930   -0.6510   -0.2640 hc        1 SFF      0.065700
     21 H2          0.7190    0.6850   -1.1940 hc        1 SFF      0.065700
     22 H3          2.2970   -0.4910    0.3320 hc        1 SFF      0.071200
     23 H4          2.1240    1.2590    0.7580 hc        1 SFF      0.071200
     24 H5          0.7860   -1.1590    2.1610 hc        1 SFF      0.068200
     25 H6          2.0950   -0.0970    2.8140 hc        1 SFF      0.068200
     26 H7         -0.1860    0.4810    3.7240 hc        1 SFF      0.071200
     27 H8          0.5940    1.8580    2.8460 hc        1 SFF      0.071200
     28 H9         -1.5630   -0.0810    1.7500 hc        1 SFF      0.065700
     29 H10        -1.8060    1.6550    2.2260 hc        1 SFF      0.065700
     30 H11        -0.1220    2.3840    0.4750 hx        1 SFF      0.127700
     31 H12        -2.3790    0.6740   -0.4930 hn        1 SFF      0.475300
     32 H13        -5.3370    3.3990   -0.3640 h1        1 SFF      0.088700
     33 H14        -6.7820    3.2060    1.5730 hc        1 SFF      0.080700
     34 H15        -6.0790    1.5630    1.2470 hc        1 SFF      0.080700
     35 H16        -6.1340    2.1590    3.7020 hc        1 SFF      0.057700
     36 H17        -4.4720    1.7980    3.0830 hc        1 SFF      0.057700
     37 H18        -5.7100    4.5990    3.5610 hc        1 SFF      0.066200
     38 H19        -4.4200    3.7970    4.5420 hc        1 SFF      0.066200
     39 H20        -3.4540    5.4560    2.9480 hc        1 SFF      0.062200
     40 H21        -2.8860    3.7690    2.5970 hc        1 SFF      0.062200
     41 H22        -5.1840    5.2640    1.1870 h1        1 SFF      0.157700
     42 H132       -1.4560    1.6740   -1.4810 hn        1 SFF      0.475300
@<TRIPOS>BOND
     1    1    2 1   
     2    1    6 1   
     3    1   20 1   
     4    1   21 1   
     5    2    3 1   
     6    2   22 1   
     7    2   23 1   
     8    3    4 1   
     9    3   24 1   
    10    3   25 1   
    11    4    5 1   
    12    4   26 1   
    13    4   27 1   
    14    5    6 1   
    15    5   28 1   
    16    5   29 1   
    17    6    7 1   
    18    6   30 1   
    19    7    8 1   
    20    7   31 1   
    21    7   42 1   
    22    8    9 1   
    23    8   19 2   
    24    9   10 1   
    25   10   11 1   
    26   10   15 1   
    27   10   32 1   
    28   11   12 1   
    29   11   33 1   
    30   11   34 1   
    31   12   13 1   
    32   12   35 1   
    33   12   36 1   
    34   13   14 1   
    35   13   37 1   
    36   13   38 1   
    37   14   15 1   
    38   14   39 1   
    39   14   40 1   
    40   15   16 1   
    41   15   41 1   
    42   16   17 2   
    43   16   18 2   
    44   16   19 1   
@<TRIPOS>SUBSTRUCTURE
     1 SFF         1 TEMP              0 ****  ****    0 ROOT
