@<TRIPOS>MOLECULE
SFF
   42    44     1     0     0
SMALL
bcc


@<TRIPOS>ATOM
      1 C15         0.3770    0.3560   -0.1770 c3        1 SFF     -0.100900
      2 C16         1.5600    0.2150    0.7640 c3        1 SFF     -0.078900
      3 C17         1.1210   -0.2060    2.1510 c3        1 SFF     -0.092400
      4 C18         0.0880    0.7450    2.7170 c3        1 SFF     -0.078900
      5 C19        -1.1020    0.8850    1.7870 c3        1 SFF     -0.100900
      6 C14        -0.6140    1.3630    0.4170 c3        1 SFF      0.131500
      7 N13        -1.7770    1.5760   -0.5360 ny        1 SFF     -0.748000
      8 C8         -2.6170    2.7410   -0.1290 c2        1 SFF      0.881500
      9 O7         -3.8020    2.2790    0.3890 os        1 SFF     -0.449400
     10 C3         -4.8200    3.3220    0.6240 c3        1 SFF      0.200100
     11 C2         -5.8350    2.6630    1.5440 c3        1 SFF     -0.079400
     12 C1         -5.3480    2.5430    2.9710 c3        1 SFF     -0.081400
     13 C6         -4.8570    3.8720    3.5030 c3        1 SFF     -0.081400
     14 C5         -3.7650    4.4360    2.6190 c3        1 SFF     -0.051400
     15 C4         -4.2400    4.6130    1.1850 c3        1 SFF     -0.346900
     16 S10        -2.9960    5.3650    0.1960 sy        1 SFF      1.521400
     17 O11        -3.6160    5.9410   -0.9060 o         1 SFF     -0.583800
     18 O12        -2.1560    6.1290    0.9930 o         1 SFF     -0.583800
     19 N9         -2.2520    3.9480   -0.2500 ne        1 SFF     -0.820300
     20 H1         -0.1160   -0.6430   -0.3100 hc        1 SFF      0.065700
     21 H2          0.7430    0.7060   -1.1790 hc        1 SFF      0.065700
     22 H3          2.1160    1.1880    0.8190 hc        1 SFF      0.071200
     23 H4          2.2630   -0.5510    0.3410 hc        1 SFF      0.071200
     24 H5          0.6990   -1.2450    2.1150 hc        1 SFF      0.068200
     25 H6          2.0140   -0.2320    2.8300 hc        1 SFF      0.068200
     26 H7          0.5520    1.7510    2.8930 hc        1 SFF      0.071200
     27 H8         -0.2740    0.3630    3.7090 hc        1 SFF      0.071200
     28 H9         -1.8370    1.6180    2.2160 hc        1 SFF      0.065700
     29 H10        -1.6190   -0.1070    1.6890 hc        1 SFF      0.065700
     30 H11        -0.1010    2.3680    0.5250 hx        1 SFF      0.127700
     31 H12        -1.4050    1.7480   -1.4810 hn        1 SFF      0.475300
     32 H13        -5.2750    3.5160   -0.3920 h1        1 SFF      0.088700
     33 H14        -6.7660    3.2920    1.5060 hc        1 SFF      0.080700
     34 H15        -6.0890    1.6460    1.1430 hc        1 SFF      0.080700
     35 H16        -6.1860    2.1650    3.6150 hc        1 SFF      0.057700
     36 H17        -4.5180    1.7890    3.0190 hc        1 SFF      0.057700
     37 H18        -4.4580    3.7390    4.5430 hc        1 SFF      0.066200
     38 H19        -5.7100    4.5980    3.5610 hc        1 SFF      0.066200
     39 H20        -2.8830    3.7410    2.6310 hc        1 SFF      0.062200
     40 H21        -3.4250    5.4280    3.0240 hc        1 SFF      0.062200
     41 H22        -5.1200    5.3270    1.2220 h1        1 SFF      0.157700
     42 H132       -2.3700    0.7360   -0.5450 hn        1 SFF      0.475300
@<TRIPOS>BOND
     1    1    2 1   
     2    1    6 1   
     3    1   20 1   
     4    1   21 1   
     5    2    3 1   
     6    2   22 1   
     7    2   23 1   
     8    3    4 1   
     9    3   24 1   
    10    3   25 1   
    11    4    5 1   
    12    4   26 1   
    13    4   27 1   
    14    5    6 1   
    15    5   28 1   
    16    5   29 1   
    17    6    7 1   
    18    6   30 1   
    19    7    8 1   
    20    7   31 1   
    21    7   42 1   
    22    8    9 1   
    23    8   19 2   
    24    9   10 1   
    25   10   11 1   
    26   10   15 1   
    27   10   32 1   
    28   11   12 1   
    29   11   33 1   
    30   11   34 1   
    31   12   13 1   
    32   12   35 1   
    33   12   36 1   
    34   13   14 1   
    35   13   37 1   
    36   13   38 1   
    37   14   15 1   
    38   14   39 1   
    39   14   40 1   
    40   15   16 1   
    41   15   41 1   
    42   16   17 2   
    43   16   18 2   
    44   16   19 1   
@<TRIPOS>SUBSTRUCTURE
     1 SFF         1 TEMP              0 ****  ****    0 ROOT
