@<TRIPOS>MOLECULE
SFG
   51    53     1     0     0
SMALL
bcc


@<TRIPOS>ATOM
      1 N          -0.2400   -0.0370    0.3740 nz        1 SFG     -0.828600
      2 CA          0.8400    0.4610   -0.5320 c3        1 SFG     -0.078500
      3 C           2.2220    0.4700    0.2890 c         1 SFG      0.951600
      4 O           2.2180   -0.1830    1.3510 o         1 SFG     -0.766300
      5 OXT         3.1580    1.1110   -0.2440 o         1 SFG     -0.766300
      6 CB          0.5450    1.8350   -1.1230 c3        1 SFG     -0.087400
      7 CG          0.9040    1.9410   -2.5920 c3        1 SFG     -0.099400
      8 CD          2.3910    1.7710   -2.9170 c3        1 SFG      0.126500
      9 NE          3.2320    2.8560   -2.3140 nz        1 SFG     -0.832600
     10 C5'         2.6170    1.6740   -4.4290 c3        1 SFG     -0.123400
     11 C4'         2.4530    2.9940   -5.1630 c3        1 SFG      0.085100
     12 O4'         3.5880    3.8300   -4.8890 os        1 SFG     -0.471600
     13 C3'         2.3380    2.8080   -6.6940 c3        1 SFG      0.134100
     14 O3'         1.0020    2.8810   -7.1100 oh        1 SFG     -0.576800
     15 C2'         3.2640    3.8910   -7.2870 c3        1 SFG      0.085100
     16 O2'         2.4730    5.0110   -7.6190 oh        1 SFG     -0.600800
     17 C1'         4.2090    4.2910   -6.1050 c3        1 SFG      0.251800
     18 N9          5.5380    3.7500   -6.2220 na        1 SFG     -0.310000
     19 C8          6.2450    2.8850   -5.3460 cc        1 SFG      0.394700
     20 N7          7.5110    2.6680   -5.7180 nd        1 SFG     -0.512100
     21 C5          7.6860    3.4180   -6.8910 ca        1 SFG     -0.239200
     22 C6          8.8070    3.6140   -7.7720 ca        1 SFG      0.779200
     23 N6          9.9960    2.9940   -7.5300 nv        1 SFG     -0.942500
     24 N1          8.6440    4.4390   -8.8670 nb        1 SFG     -0.782000
     25 C2          7.4330    5.0170   -9.0530 ca        1 SFG      0.708900
     26 N3          6.2960    4.9230   -8.3140 nb        1 SFG     -0.769000
     27 C4          6.4520    4.1140   -7.2270 ca        1 SFG      0.466800
     28 HN1        -0.9260   -0.5940   -0.1300 hn        1 SFG      0.458800
     29 HN2        -0.7050    0.7430    0.8400 hn        1 SFG      0.458800
     30 HA          0.9660   -0.3070   -1.3470 hx        1 SFG      0.095700
     31 HB1        -0.5460    2.0950   -1.0360 hc        1 SFG      0.065700
     32 HB2         1.1060    2.6040   -0.5260 hc        1 SFG      0.065700
     33 HG1         0.3540    1.1470   -3.1670 hc        1 SFG      0.078700
     34 HG2         0.5380    2.9330   -2.9750 hc        1 SFG      0.078700
     35 HD          2.7540    0.8070   -2.4290 hx        1 SFG      0.140700
     36 HNE1        3.1880    2.7770   -1.2790 hn        1 SFG      0.468800
     37 HNE2        4.2020    2.7300   -2.6170 hn        1 SFG      0.468800
     38 H5'1        3.6450    1.2640   -4.6240 hc        1 SFG      0.093200
     39 H5'2        1.8740    0.9420   -4.8450 hc        1 SFG      0.093200
     40 H4'         1.5530    3.5560   -4.7850 h1        1 SFG      0.072700
     41 H3'         2.6890    1.7840   -7.0020 h1        1 SFG      0.099700
     42 HO3'        0.7600    3.8120   -7.2320 ho        1 SFG      0.438000
     43 H2'         3.8260    3.5050   -8.1780 h1        1 SFG      0.106700
     44 HO2'        2.9130    5.4730   -8.3460 ho        1 SFG      0.447000
     45 H1'         4.2690    5.4180   -6.0070 h2        1 SFG      0.115700
     46 H8          5.7570    2.4580   -4.4660 h5        1 SFG      0.049800
     47 HN61       10.7740    3.1330   -8.1290 hn        1 SFG      0.458800
     48 HN62       10.0890    2.4200   -6.7290 hn        1 SFG      0.458800
     49 H2          7.3630    5.6710   -9.9510 h5        1 SFG      0.063100
     50 HN3         0.2320   -0.6190    1.1040 hn        1 SFG      0.458800
     51 HE3         2.9120    3.7740   -2.6280 hn        1 SFG      0.468800
@<TRIPOS>BOND
     1    1    2 1   
     2    1   28 1   
     3    1   29 1   
     4    1   50 1   
     5    2    3 1   
     6    2    6 1   
     7    2   30 1   
     8    3    4 1   
     9    3    5 1   
    10    6    7 1   
    11    6   31 1   
    12    6   32 1   
    13    7    8 1   
    14    7   33 1   
    15    7   34 1   
    16    8    9 1   
    17    8   10 1   
    18    8   35 1   
    19    9   36 1   
    20    9   37 1   
    21    9   51 1   
    22   10   11 1   
    23   10   38 1   
    24   10   39 1   
    25   11   12 1   
    26   11   13 1   
    27   11   40 1   
    28   12   17 1   
    29   13   14 1   
    30   13   15 1   
    31   13   41 1   
    32   14   42 1   
    33   15   16 1   
    34   15   17 1   
    35   15   43 1   
    36   16   44 1   
    37   17   18 1   
    38   17   45 1   
    39   18   19 1   
    40   18   27 1   
    41   19   20 2   
    42   19   46 1   
    43   20   21 1   
    44   21   22 ar  
    45   21   27 ar  
    46   22   23 1   
    47   22   24 ar  
    48   23   47 1   
    49   23   48 1   
    50   24   25 ar  
    51   25   26 ar  
    52   25   49 1   
    53   26   27 ar  
@<TRIPOS>SUBSTRUCTURE
     1 SFG         1 TEMP              0 ****  ****    0 ROOT
