@<TRIPOS>MOLECULE
SFG
   52    54     1     0     0
SMALL
bcc


@<TRIPOS>ATOM
      1 N           2.7500   -0.7120   -0.4040 n4        1 SFG     -0.828600
      2 CA          2.5550    0.3300   -1.4620 c3        1 SFG     -0.053500
      3 C           3.8650    1.2360   -1.4920 c         1 SFG      0.935600
      4 O           4.9280    0.6410   -1.2190 o         1 SFG     -0.780800
      5 OXT         3.7290    2.4430   -1.8240 o         1 SFG     -0.780800
      6 CB          1.2680    1.1250   -1.2730 c3        1 SFG     -0.092400
      7 CG          0.6380    1.5560   -2.5850 c3        1 SFG     -0.098400
      8 CD          1.4230    2.6220   -3.3520 c3        1 SFG      0.126500
      9 NE          1.5240    3.8980   -2.5680 n4        1 SFG     -0.837600
     10 C5'         0.8380    2.8380   -4.7460 c3        1 SFG     -0.111400
     11 C4'         1.6130    3.8410   -5.5930 c3        1 SFG      0.089100
     12 O4'         2.9210    4.0600   -5.0270 os        1 SFG     -0.466600
     13 C3'         1.8110    3.3960   -7.0590 c3        1 SFG      0.130100
     14 O3'         0.7990    3.8860   -7.8910 oh        1 SFG     -0.558800
     15 C2'         3.2290    3.8920   -7.4280 c3        1 SFG      0.086100
     16 O2'         3.1050    5.0840   -8.1700 oh        1 SFG     -0.586800
     17 C1'         3.8920    4.2790   -6.0640 c3        1 SFG      0.242800
     18 N9          5.1020    3.5420   -5.7430 na        1 SFG     -0.284000
     19 C8          5.5180    3.0310   -4.4870 cc        1 SFG      0.512700
     20 N7          6.8010    2.6300   -4.4630 nd        1 SFG     -0.565100
     21 C5          7.2950    2.9020   -5.7430 ca        1 SFG     -0.131200
     22 C6          8.5460    2.7510   -6.3680 ca        1 SFG      0.530200
     23 N6          9.6660    2.1910   -5.5890 n4        1 SFG     -0.817300
     24 N1          8.7500    3.1160   -7.6590 nb        1 SFG     -0.667000
     25 C2          7.6850    3.6450   -8.3260 ca        1 SFG      0.682900
     26 N3          6.4220    3.8620   -7.8710 nb        1 SFG     -0.644000
     27 C4          6.2300    3.4940   -6.5820 ca        1 SFG      0.449800
     28 HN1         2.1960   -1.5460   -0.5940 hn        1 SFG      0.464133
     29 HN2         3.7640   -0.9480   -0.3960 hn        1 SFG      0.464133
     30 HA          2.5340   -0.2140   -2.4510 hx        1 SFG      0.097700
     31 HB1         0.4940    0.5090   -0.7320 hc        1 SFG      0.069200
     32 HB2         1.4890    2.0110   -0.6220 hc        1 SFG      0.069200
     33 HG1        -0.4050    1.9230   -2.3780 hc        1 SFG      0.084700
     34 HG2         0.5380    0.6660   -3.2650 hc        1 SFG      0.084700
     35 HD          2.4970    2.2650   -3.4840 hx        1 SFG      0.144700
     36 HNE1        2.1640    3.7250   -1.7680 hn        1 SFG      0.467800
     37 HNE2        0.6090    4.1980   -2.2330 hn        1 SFG      0.467800
     38 H5'1        0.8330    1.8350   -5.2550 hc        1 SFG      0.093700
     39 H5'2       -0.2310    3.1780   -4.6890 hc        1 SFG      0.093700
     40 H4'         1.0910    4.8410   -5.5780 h1        1 SFG      0.081700
     41 H3'         1.7520    2.2760   -7.1590 h1        1 SFG      0.100700
     42 HO3'        0.9800    4.8170   -8.0980 ho        1 SFG      0.440000
     43 H2'         3.7930    3.1010   -7.9840 h1        1 SFG      0.096700
     44 HO2'        3.6580    5.0080   -8.9600 ho        1 SFG      0.450000
     45 H1'         4.1370    5.3880   -6.0530 h2        1 SFG      0.118700
     46 H8          4.8280    2.9660   -3.6150 h5        1 SFG      0.141800
     47 HN61       10.0190    2.9180   -4.9520 hn        1 SFG      0.483133
     48 HN62        9.3190    1.3970   -5.0350 hn        1 SFG      0.483133
     49 H2          7.8860    3.9390   -9.3850 h5        1 SFG      0.107100
     50 HN3         2.4980   -0.3360    0.5130 hn        1 SFG      0.464133
     51 HE3         1.9350    4.6300   -3.1570 hn        1 SFG      0.467800
     52 H63        10.4300    1.8800   -6.2060 hn        1 SFG      0.483133
@<TRIPOS>BOND
     1    1    2 1   
     2    1   28 1   
     3    1   29 1   
     4    1   50 1   
     5    2    3 1   
     6    2    6 1   
     7    2   30 1   
     8    3    4 1   
     9    3    5 1   
    10    6    7 1   
    11    6   31 1   
    12    6   32 1   
    13    7    8 1   
    14    7   33 1   
    15    7   34 1   
    16    8    9 1   
    17    8   10 1   
    18    8   35 1   
    19    9   36 1   
    20    9   37 1   
    21    9   51 1   
    22   10   11 1   
    23   10   38 1   
    24   10   39 1   
    25   11   12 1   
    26   11   13 1   
    27   11   40 1   
    28   12   17 1   
    29   13   14 1   
    30   13   15 1   
    31   13   41 1   
    32   14   42 1   
    33   15   16 1   
    34   15   17 1   
    35   15   43 1   
    36   16   44 1   
    37   17   18 1   
    38   17   45 1   
    39   18   19 1   
    40   18   27 1   
    41   19   20 2   
    42   19   46 1   
    43   20   21 1   
    44   21   22 ar  
    45   21   27 ar  
    46   22   23 1   
    47   22   24 ar  
    48   23   47 1   
    49   23   48 1   
    50   23   52 1   
    51   24   25 ar  
    52   25   26 ar  
    53   25   49 1   
    54   26   27 ar  
@<TRIPOS>SUBSTRUCTURE
     1 SFG         1 TEMP              0 ****  ****    0 ROOT
