@<TRIPOS>MOLECULE
SFG
   51    53     1     0     0
SMALL
bcc


@<TRIPOS>ATOM
      1 N           1.1100    0.8560    0.8390 n4        1 SFG     -0.829600
      2 CA          1.8870    1.2190   -0.3850 c3        1 SFG     -0.078500
      3 C           3.4320    1.3890    0.0330 c         1 SFG      0.950600
      4 O           3.7370    0.9150    1.1470 o         1 SFG     -0.765800
      5 OXT         4.1580    1.9540   -0.8150 o         1 SFG     -0.765800
      6 CB          1.3650    2.4700   -1.0820 c3        1 SFG     -0.086400
      7 CG          1.3080    2.3280   -2.5900 c3        1 SFG     -0.100400
      8 CD          2.6710    2.1630   -3.2710 c3        1 SFG      0.131500
      9 NE          3.5430    3.3620   -3.1110 n4        1 SFG     -0.864600
     10 C5'         2.5090    1.7860   -4.7480 c3        1 SFG     -0.119400
     11 C4'         2.0200    2.9180   -5.6360 c3        1 SFG      0.093100
     12 O4'         3.0190    3.9450   -5.7400 os        1 SFG     -0.436600
     13 C3'         1.6770    2.4280   -7.0580 c3        1 SFG      0.096100
     14 O3'         0.3250    2.6510   -7.3720 oh        1 SFG     -0.575800
     15 C2'         2.6250    3.1980   -8.0020 c3        1 SFG      0.070100
     16 O2'         1.9020    4.1120   -8.8020 oh        1 SFG     -0.590800
     17 C1'         3.5260    4.0760   -7.0720 c3        1 SFG      0.270800
     18 N9          4.9270    3.7390   -7.1670 na        1 SFG     -0.310000
     19 C8          5.6520    3.8720   -8.3900 cc        1 SFG      0.405700
     20 N7          6.9480    3.5750   -8.2760 nd        1 SFG     -0.509100
     21 C5          7.1310    3.2340   -6.9280 ca        1 SFG     -0.240200
     22 C6          8.2980    2.8300   -6.1930 ca        1 SFG      0.786200
     23 N6          9.5040    2.7150   -6.8100 nh        1 SFG     -0.928500
     24 N1          8.1600    2.5590   -4.8420 nb        1 SFG     -0.775000
     25 C2          6.9350    2.6950   -4.2970 ca        1 SFG      0.714900
     26 N3          5.7580    3.0680   -4.8720 nb        1 SFG     -0.857000
     27 C4          5.8660    3.3370   -6.2060 ca        1 SFG      0.498800
     28 HN1         1.7910    0.4170    1.5010 hn        1 SFG      0.457133
     29 HN2         0.3570    0.2050    0.6280 hn        1 SFG      0.457133
     30 HA          1.8490    0.3300   -1.0750 hx        1 SFG      0.093700
     31 HB1         2.0240    3.3340   -0.7960 hc        1 SFG      0.063700
     32 HB2         0.3250    2.7290   -0.7370 hc        1 SFG      0.063700
     33 HG1         0.6930    1.4260   -2.8570 hc        1 SFG      0.070700
     34 HG2         0.7760    3.2250   -3.0100 hc        1 SFG      0.070700
     35 HD          3.2260    1.3160   -2.7490 hx        1 SFG      0.135700
     36 HNE1        4.3650    3.2730   -3.7710 hn        1 SFG      0.475800
     37 HNE2        3.8810    3.4110   -2.1380 hn        1 SFG      0.475800
     38 H5'1        1.7690    0.9430   -4.8070 hc        1 SFG      0.089700
     39 H5'2        3.4920    1.4060   -5.1370 hc        1 SFG      0.089700
     40 H4'         1.1270    3.4270   -5.1740 h1        1 SFG      0.079700
     41 H3'         1.8120    1.3160   -7.1580 h1        1 SFG      0.107700
     42 HO3'        0.1830    3.6090   -7.4390 ho        1 SFG      0.425000
     43 H2'         3.2170    2.4940   -8.6430 h1        1 SFG      0.086700
     44 HO2'        1.4060    3.5920   -9.4510 ho        1 SFG      0.437000
     45 H1'         3.4080    5.1760   -7.3290 h2        1 SFG      0.120700
     46 H8          5.1470    4.1990   -9.3090 h5        1 SFG      0.088800
     47 HN61       10.3130    2.4460   -6.3030 hn        1 SFG      0.464300
     48 HN62        9.5780    2.9280   -7.7760 hn        1 SFG      0.464300
     49 H2          6.8830    2.4630   -3.2080 h5        1 SFG      0.064100
     50 HN3         0.7280    1.6910    1.2820 hn        1 SFG      0.457133
     51 HE3         3.0330    4.2090   -3.3560 hn        1 SFG      0.475800
@<TRIPOS>BOND
     1    1    2 1   
     2    1   28 1   
     3    1   29 1   
     4    1   50 1   
     5    2    3 1   
     6    2    6 1   
     7    2   30 1   
     8    3    4 1   
     9    3    5 1   
    10    6    7 1   
    11    6   31 1   
    12    6   32 1   
    13    7    8 1   
    14    7   33 1   
    15    7   34 1   
    16    8    9 1   
    17    8   10 1   
    18    8   35 1   
    19    9   36 1   
    20    9   37 1   
    21    9   51 1   
    22   10   11 1   
    23   10   38 1   
    24   10   39 1   
    25   11   12 1   
    26   11   13 1   
    27   11   40 1   
    28   12   17 1   
    29   13   14 1   
    30   13   15 1   
    31   13   41 1   
    32   14   42 1   
    33   15   16 1   
    34   15   17 1   
    35   15   43 1   
    36   16   44 1   
    37   17   18 1   
    38   17   45 1   
    39   18   19 1   
    40   18   27 1   
    41   19   20 2   
    42   19   46 1   
    43   20   21 1   
    44   21   22 ar  
    45   21   27 ar  
    46   22   23 1   
    47   22   24 ar  
    48   23   47 1   
    49   23   48 1   
    50   24   25 ar  
    51   25   26 ar  
    52   25   49 1   
    53   26   27 ar  
@<TRIPOS>SUBSTRUCTURE
     1 SFG         1 TEMP              0 ****  ****    0 ROOT
