@<TRIPOS>MOLECULE
SFG
   49    51     1     0     0
SMALL
bcc


@<TRIPOS>ATOM
      1 N           6.3160   -0.2030    1.0260 n3        1 SFG     -0.894800
      2 CA          5.2170   -1.1420    0.8310 c3        1 SFG      0.015500
      3 C           5.6570   -2.5600    0.3360 c         1 SFG      0.889600
      4 O           6.8910   -2.7700    0.1560 o         1 SFG     -0.844300
      5 OXT         4.7530   -3.4250    0.1710 o         1 SFG     -0.844300
      6 CB          4.1330   -0.6150   -0.1130 c3        1 SFG     -0.062400
      7 CG          3.3810    0.5450    0.4970 c3        1 SFG     -0.068400
      8 CD          2.2190    1.0240   -0.3900 c3        1 SFG      0.175500
      9 NE          2.6680    1.6650   -1.6060 n3        1 SFG     -0.900800
     10 C5'         1.2850    1.8680    0.5040 c3        1 SFG     -0.140400
     11 C4'         0.2030    2.6180   -0.2490 c3        1 SFG      0.100100
     12 O4'        -0.4840    1.7460   -1.1650 os        1 SFG     -0.408600
     13 C3'        -0.8360    3.2450    0.7060 c3        1 SFG      0.125100
     14 O3'        -0.9230    4.6400    0.5390 oh        1 SFG     -0.578800
     15 C2'        -2.1580    2.5050    0.4170 c3        1 SFG      0.081100
     16 O2'        -3.1240    3.4510    0.0110 oh        1 SFG     -0.598800
     17 C1'        -1.8450    1.5490   -0.7800 c3        1 SFG      0.229800
     18 N9         -2.0960    0.1550   -0.4890 na        1 SFG     -0.290000
     19 C8         -1.2520   -0.9670   -0.6900 cc        1 SFG      0.444700
     20 N7         -1.8480   -2.1350   -0.4140 nd        1 SFG     -0.542100
     21 C5         -3.1510   -1.8010   -0.0150 ca        1 SFG     -0.219200
     22 C6         -4.2750   -2.5880    0.4050 ca        1 SFG      0.756200
     23 N6         -4.1850   -3.9560    0.4290 nh        1 SFG     -0.953500
     24 N1         -5.4430   -1.9450    0.7470 nb        1 SFG     -0.802000
     25 C2         -5.4660   -0.5890    0.6480 ca        1 SFG      0.680900
     26 N3         -4.4990    0.2770    0.2680 nb        1 SFG     -0.764000
     27 C4         -3.3300   -0.3560   -0.0620 ca        1 SFG      0.439800
     28 HN1         7.0730   -0.7170    1.4470 hn        1 SFG      0.330800
     29 HN2         6.6470    0.0890    0.1230 hn        1 SFG      0.330800
     30 HA          4.7520   -1.2980    1.8490 h1        1 SFG      0.036700
     31 HB1         4.5840   -0.3100   -1.0920 hc        1 SFG      0.055700
     32 HB2         3.4290   -1.4670   -0.3170 hc        1 SFG      0.055700
     33 HG1         2.9530    0.2260    1.4840 hc        1 SFG      0.038200
     34 HG2         4.0820    1.3960    0.6990 hc        1 SFG      0.038200
     35 HD          1.6290    0.1160   -0.7220 h1        1 SFG      0.056700
     36 HNE1        1.8910    2.0420   -2.1130 hn        1 SFG      0.342800
     37 HNE2        3.3270    2.3910   -1.4120 hn        1 SFG      0.342800
     38 H5'1        0.8150    1.1770    1.2510 hc        1 SFG      0.054700
     39 H5'2        1.8910    2.6240    1.0700 hc        1 SFG      0.054700
     40 H4'         0.6490    3.4210   -0.9010 h1        1 SFG      0.074700
     41 H3'        -0.5310    3.1100    1.7800 h1        1 SFG      0.097700
     42 HO3'       -1.4040    4.8140   -0.2810 ho        1 SFG      0.418000
     43 H2'        -2.5050    1.9500    1.3280 h1        1 SFG      0.081700
     44 HO2'       -3.9800    3.0020    0.0360 ho        1 SFG      0.433000
     45 H1'        -2.4670    1.8350   -1.6830 h2        1 SFG      0.090700
     46 H8         -0.2140   -0.8350   -1.0350 h5        1 SFG      0.104800
     47 HN61       -3.2930   -4.3680    0.2990 hn        1 SFG      0.445800
     48 HN62       -4.9110   -4.4950    0.8310 hn        1 SFG      0.445800
     49 H2         -6.4360   -0.1250    0.9300 h5        1 SFG      0.043100
@<TRIPOS>BOND
     1    1    2 1   
     2    1   28 1   
     3    1   29 1   
     4    2    3 1   
     5    2    6 1   
     6    2   30 1   
     7    3    4 1   
     8    3    5 1   
     9    6    7 1   
    10    6   31 1   
    11    6   32 1   
    12    7    8 1   
    13    7   33 1   
    14    7   34 1   
    15    8    9 1   
    16    8   10 1   
    17    8   35 1   
    18    9   36 1   
    19    9   37 1   
    20   10   11 1   
    21   10   38 1   
    22   10   39 1   
    23   11   12 1   
    24   11   13 1   
    25   11   40 1   
    26   12   17 1   
    27   13   14 1   
    28   13   15 1   
    29   13   41 1   
    30   14   42 1   
    31   15   16 1   
    32   15   17 1   
    33   15   43 1   
    34   16   44 1   
    35   17   18 1   
    36   17   45 1   
    37   18   19 1   
    38   18   27 1   
    39   19   20 2   
    40   19   46 1   
    41   20   21 1   
    42   21   22 ar  
    43   21   27 ar  
    44   22   23 1   
    45   22   24 ar  
    46   23   47 1   
    47   23   48 1   
    48   24   25 ar  
    49   25   26 ar  
    50   25   49 1   
    51   26   27 ar  
@<TRIPOS>SUBSTRUCTURE
     1 SFG         1 TEMP              0 ****  ****    0 ROOT
