@<TRIPOS>MOLECULE
SFI
   40    42     1     0     0
SMALL
bcc


@<TRIPOS>ATOM
      1 F          -0.0640   -0.0120    0.6850 f         1 SFI     -0.157900
      2 S           3.4750   -0.8940   -8.1700 ss        1 SFI     -0.194000
      3 C1          4.9120    0.0970    0.8420 cc        1 SFI      0.020600
      4 O1          4.8130    2.3130    3.2610 o         1 SFI     -0.828800
      5 C2          3.5470    0.0180    0.2840 ca        1 SFI     -0.012800
      6 O2          6.9090    1.8040    2.6590 o         1 SFI     -0.828800
      7 C3          5.8050    0.0830   -0.2020 cd        1 SFI     -0.131200
      8 C4          3.6500   -0.0860   -1.1460 ca        1 SFI     -0.095800
      9 C5          5.0830   -0.0580   -1.4950 cd        1 SFI      0.027800
     10 C6          5.1980    0.1450    2.2760 c3        1 SFI     -0.181200
     11 C7          2.3170    0.0510    0.9080 ca        1 SFI     -0.137000
     12 C8          2.5090   -0.1500   -1.9200 ca        1 SFI     -0.091000
     13 C9          5.6900   -0.1330   -2.6890 ce        1 SFI     -0.133200
     14 C10         7.2630    0.2020   -0.1010 c3        1 SFI     -0.057900
     15 C11         1.1590   -0.0320    0.0970 ca        1 SFI      0.116900
     16 C12         1.2530   -0.1300   -1.2980 ca        1 SFI     -0.196000
     17 C13         5.0840   -0.3370   -3.9930 ca        1 SFI     -0.033800
     18 C14         5.6770    1.5460    2.7590 c         1 SFI      0.926600
     19 C15         5.3550    0.5690   -5.0330 ca        1 SFI     -0.111000
     20 C16         4.2870   -1.4560   -4.2670 ca        1 SFI     -0.111000
     21 C17         4.8330    0.3630   -6.3040 ca        1 SFI     -0.134000
     22 C18         3.7710   -1.6650   -5.5440 ca        1 SFI     -0.134000
     23 C19         4.0370   -0.7600   -6.5740 ca        1 SFI     -0.012100
     24 C20         2.4790   -2.3320   -8.2070 c3        1 SFI     -0.063000
     25 H6          6.0150   -0.5840    2.5200 hc        1 SFI      0.042200
     26 H6A         4.2850   -0.1290    2.8650 hc        1 SFI      0.042200
     27 H7          2.2280    0.1650    1.9990 ha        1 SFI      0.169000
     28 H8          2.5700   -0.2090   -3.0170 ha        1 SFI      0.136000
     29 H9          6.7920   -0.0290   -2.7240 ha        1 SFI      0.136000
     30 H10         7.6590    0.8970   -0.8830 hc        1 SFI      0.052700
     31 H10A        7.5390    0.6130    0.9100 hc        1 SFI      0.052700
     32 H10B        7.7510   -0.7950   -0.2410 hc        1 SFI      0.052700
     33 H12         0.3380   -0.1820   -1.9020 ha        1 SFI      0.131000
     34 H15         5.9800    1.4520   -4.8310 ha        1 SFI      0.142000
     35 H16         4.0690   -2.1750   -3.4620 ha        1 SFI      0.142000
     36 H17         5.0440    1.0850   -7.1080 ha        1 SFI      0.129000
     37 H18         3.1510   -2.5540   -5.7320 ha        1 SFI      0.129000
     38 H20         1.6170   -2.2700   -7.5060 h1        1 SFI      0.065033
     39 H20A        2.0940   -2.4000   -9.2510 h1        1 SFI      0.065033
     40 H20B        3.0560   -3.2550   -7.9740 h1        1 SFI      0.065033
@<TRIPOS>BOND
     1    1   15 1   
     2    2   23 1   
     3    2   24 1   
     4    3    5 1   
     5    3    7 2   
     6    3   10 1   
     7    4   18 1   
     8    5    8 ar  
     9    5   11 ar  
    10    6   18 1   
    11    7    9 1   
    12    7   14 1   
    13    8    9 1   
    14    8   12 ar  
    15    9   13 2   
    16   10   18 1   
    17   10   25 1   
    18   10   26 1   
    19   11   15 ar  
    20   11   27 1   
    21   12   16 ar  
    22   12   28 1   
    23   13   17 1   
    24   13   29 1   
    25   14   30 1   
    26   14   31 1   
    27   14   32 1   
    28   15   16 ar  
    29   16   33 1   
    30   17   19 ar  
    31   17   20 ar  
    32   19   21 ar  
    33   19   34 1   
    34   20   22 ar  
    35   20   35 1   
    36   21   23 ar  
    37   21   36 1   
    38   22   23 ar  
    39   22   37 1   
    40   24   38 1   
    41   24   39 1   
    42   24   40 1   
@<TRIPOS>SUBSTRUCTURE
     1 SFI         1 TEMP              0 ****  ****    0 ROOT
