@<TRIPOS>MOLECULE
SFI
   40    42     1     0     0
SMALL
bcc


@<TRIPOS>ATOM
      1 F          -0.0710    0.0320    0.6700 f         1 SFI     -0.157900
      2 S           3.4880   -0.9100   -8.1700 ss        1 SFI     -0.194000
      3 C1          4.9050    0.1030    0.8420 cc        1 SFI      0.020600
      4 O1          4.8160    2.3300    3.2520 o         1 SFI     -0.828800
      5 C2          3.5410    0.0330    0.2810 ca        1 SFI     -0.012800
      6 O2          6.9100    1.8020    2.6590 o         1 SFI     -0.828800
      7 C3          5.8010    0.0790   -0.1990 cd        1 SFI     -0.131200
      8 C4          3.6480   -0.0770   -1.1480 ca        1 SFI     -0.095800
      9 C5          5.0830   -0.0620   -1.4930 cd        1 SFI      0.027800
     10 C6          5.1870    0.1550    2.2780 c3        1 SFI     -0.181200
     11 C7          2.3100    0.0780    0.9010 ca        1 SFI     -0.137000
     12 C8          2.5090   -0.1360   -1.9260 ca        1 SFI     -0.091000
     13 C9          5.6930   -0.1460   -2.6850 ce        1 SFI     -0.133200
     14 C10         7.2600    0.1860   -0.0940 c3        1 SFI     -0.057900
     15 C11         1.1540    0.0010    0.0860 ca        1 SFI      0.116900
     16 C12         1.2510   -0.1040   -1.3080 ca        1 SFI     -0.196000
     17 C13         5.0890   -0.3500   -3.9900 ca        1 SFI     -0.033800
     18 C14         5.6760    1.5540    2.7570 c         1 SFI      0.926600
     19 C15         5.3700    0.5500   -5.0320 ca        1 SFI     -0.111000
     20 C16         4.2850   -1.4650   -4.2630 ca        1 SFI     -0.111000
     21 C17         4.8500    0.3430   -6.3040 ca        1 SFI     -0.134000
     22 C18         3.7710   -1.6740   -5.5400 ca        1 SFI     -0.134000
     23 C19         4.0460   -0.7740   -6.5720 ca        1 SFI     -0.012100
     24 C20         2.4820   -2.3410   -8.2050 c3        1 SFI     -0.063000
     25 H6          5.9980   -0.5790    2.5270 hc        1 SFI      0.042200
     26 H6A         4.2710   -0.1090    2.8640 hc        1 SFI      0.042200
     27 H7          2.2180    0.1970    1.9900 ha        1 SFI      0.169000
     28 H8          2.5730   -0.2000   -3.0220 ha        1 SFI      0.136000
     29 H9          6.7960   -0.0500   -2.7160 ha        1 SFI      0.136000
     30 H10         7.6630    0.8760   -0.8770 hc        1 SFI      0.052700
     31 H10A        7.5360    0.5990    0.9170 hc        1 SFI      0.052700
     32 H10B        7.7400   -0.8150   -0.2280 hc        1 SFI      0.052700
     33 H12         0.3380   -0.1510   -1.9150 ha        1 SFI      0.131000
     34 H15         6.0010    1.4290   -4.8320 ha        1 SFI      0.142000
     35 H16         4.0590   -2.1790   -3.4560 ha        1 SFI      0.142000
     36 H17         5.0680    1.0610   -7.1100 ha        1 SFI      0.129000
     37 H18         3.1440   -2.5590   -5.7280 ha        1 SFI      0.129000
     38 H20         1.6180   -2.2700   -7.5070 h1        1 SFI      0.065033
     39 H20A        2.0990   -2.4100   -9.2500 h1        1 SFI      0.065033
     40 H20B        3.0520   -3.2670   -7.9670 h1        1 SFI      0.065033
@<TRIPOS>BOND
     1    1   15 1   
     2    2   23 1   
     3    2   24 1   
     4    3    5 1   
     5    3    7 2   
     6    3   10 1   
     7    4   18 1   
     8    5    8 ar  
     9    5   11 ar  
    10    6   18 1   
    11    7    9 1   
    12    7   14 1   
    13    8    9 1   
    14    8   12 ar  
    15    9   13 2   
    16   10   18 1   
    17   10   25 1   
    18   10   26 1   
    19   11   15 ar  
    20   11   27 1   
    21   12   16 ar  
    22   12   28 1   
    23   13   17 1   
    24   13   29 1   
    25   14   30 1   
    26   14   31 1   
    27   14   32 1   
    28   15   16 ar  
    29   16   33 1   
    30   17   19 ar  
    31   17   20 ar  
    32   19   21 ar  
    33   19   34 1   
    34   20   22 ar  
    35   20   35 1   
    36   21   23 ar  
    37   21   36 1   
    38   22   23 ar  
    39   22   37 1   
    40   24   38 1   
    41   24   39 1   
    42   24   40 1   
@<TRIPOS>SUBSTRUCTURE
     1 SFI         1 TEMP              0 ****  ****    0 ROOT
