@<TRIPOS>MOLECULE
SFI
   40    42     1     0     0
SMALL
bcc


@<TRIPOS>ATOM
      1 F          -2.3440    4.2350    0.3430 f         1 SFI     -0.154900
      2 S           6.1490   -0.2710    0.3390 ss        1 SFI     -0.196000
      3 C1         -2.9880   -0.6220   -0.5280 cc        1 SFI      0.050600
      4 O1         -5.5910    0.9160    0.5440 o         1 SFI     -0.828800
      5 C2         -2.2930    0.6530   -0.2500 ca        1 SFI     -0.030800
      6 O2         -5.7680   -1.2430    1.1080 o         1 SFI     -0.828800
      7 C3         -2.0550   -1.6290   -0.5150 cd        1 SFI     -0.173200
      8 C4         -0.8900    0.3840   -0.1200 ca        1 SFI     -0.098800
      9 C5         -0.6960   -1.0690   -0.2870 cd        1 SFI      0.040800
     10 C6         -4.4210   -0.6950   -0.8160 c3        1 SFI     -0.186200
     11 C7         -2.8040    1.9230   -0.0830 ca        1 SFI     -0.119000
     12 C8         -0.0140    1.4130    0.1640 ca        1 SFI     -0.097000
     13 C9          0.4210   -1.8120   -0.2520 ce        1 SFI     -0.145200
     14 C10        -2.2800   -3.0670   -0.6930 c3        1 SFI     -0.025900
     15 C11        -1.8860    2.9670    0.1900 ca        1 SFI      0.114900
     16 C12        -0.5110    2.7150    0.3090 ca        1 SFI     -0.195000
     17 C13         1.7960   -1.3630   -0.1170 ca        1 SFI     -0.029800
     18 C14        -5.3230   -0.3090    0.3920 c         1 SFI      0.926600
     19 C15         2.6180   -1.9330    0.8710 ca        1 SFI     -0.112000
     20 C16         2.3530   -0.4230   -0.9940 ca        1 SFI     -0.112000
     21 C17         3.9510   -1.5630    0.9810 ca        1 SFI     -0.133500
     22 C18         3.6930   -0.0590   -0.8860 ca        1 SFI     -0.133500
     23 C19         4.5050   -0.6220    0.1000 ca        1 SFI     -0.013100
     24 C20         6.5460    0.9710   -0.8280 c3        1 SFI     -0.062000
     25 H6         -4.6600    0.0220   -1.6470 hc        1 SFI      0.045700
     26 H6A        -4.7070   -1.7270   -1.1420 hc        1 SFI      0.045700
     27 H7         -3.9000    2.0970   -0.1080 ha        1 SFI      0.221000
     28 H8          1.0630    1.2260    0.2890 ha        1 SFI      0.132000
     29 H9          0.3210   -2.9120   -0.3330 ha        1 SFI      0.130000
     30 H10        -1.7600   -3.4370   -1.6130 hc        1 SFI      0.034700
     31 H10A       -1.8780   -3.6350    0.1850 hc        1 SFI      0.034700
     32 H10B       -3.3710   -3.2940   -0.7830 hc        1 SFI      0.034700
     33 H12         0.1750    3.5440    0.5310 ha        1 SFI      0.128000
     34 H15         2.1930   -2.6730    1.5660 ha        1 SFI      0.141000
     35 H16         1.7200    0.0310   -1.7730 ha        1 SFI      0.141000
     36 H17         4.5830   -2.0080    1.7660 ha        1 SFI      0.129000
     37 H18         4.1050    0.6810   -1.5890 ha        1 SFI      0.129000
     38 H20         7.6170    1.2220   -0.6420 h1        1 SFI      0.065033
     39 H20A        6.4340    0.6200   -1.8780 h1        1 SFI      0.065033
     40 H20B        5.9310    1.8890   -0.6970 h1        1 SFI      0.065033
@<TRIPOS>BOND
     1    1   15 1   
     2    2   23 1   
     3    2   24 1   
     4    3    5 1   
     5    3    7 2   
     6    3   10 1   
     7    4   18 1   
     8    5    8 ar  
     9    5   11 ar  
    10    6   18 1   
    11    7    9 1   
    12    7   14 1   
    13    8    9 1   
    14    8   12 ar  
    15    9   13 2   
    16   10   18 1   
    17   10   25 1   
    18   10   26 1   
    19   11   15 ar  
    20   11   27 1   
    21   12   16 ar  
    22   12   28 1   
    23   13   17 1   
    24   13   29 1   
    25   14   30 1   
    26   14   31 1   
    27   14   32 1   
    28   15   16 ar  
    29   16   33 1   
    30   17   19 ar  
    31   17   20 ar  
    32   19   21 ar  
    33   19   34 1   
    34   20   22 ar  
    35   20   35 1   
    36   21   23 ar  
    37   21   36 1   
    38   22   23 ar  
    39   22   37 1   
    40   24   38 1   
    41   24   39 1   
    42   24   40 1   
@<TRIPOS>SUBSTRUCTURE
     1 SFI         1 TEMP              0 ****  ****    0 ROOT
