@<TRIPOS>MOLECULE
SFJ
   39    35     1     0     0
SMALL
bcc


@<TRIPOS>ATOM
      1 CAA         0.3390    2.0420    0.4570 c2        1 SFJ     -0.454000
      2 CAK         1.7110    3.2370    4.4950 c1        1 SFJ     -0.086000
      3 CAN        -0.0470    2.6280   -0.6440 c1        1 SFJ      0.254000
      4 CAO         5.8420   -0.5070    4.3850 c2        1 SFJ      0.275000
      5 CAQ         3.8830    1.7110    2.6150 c3        1 SFJ     -0.055000
      6 CAR         5.5130   -3.0220    1.8710 c1        1 SFJ      0.299000
      7 CAS         6.3020   -2.3740    2.7340 c2        1 SFJ     -0.198000
      8 CAT         3.1010   -1.2090   -0.4000 c3        1 SFJ     -0.134000
      9 CAU         4.1160    0.2480    3.0310 c3        1 SFJ      0.123000
     10 CAV         6.1940   -0.8830    2.9280 c3        1 SFJ      0.295000
     11 NAL         2.1020   -0.8780    0.5730 n8        1 SFJ     -0.369000
     12 OAB        -0.3900    3.1570   -1.6580 o         1 SFJ     -0.172000
     13 OAD         2.4200    4.1950    5.0300 oh        1 SFJ     -0.216000
     14 OAE         6.3790   -0.6690    5.4620 o         1 SFJ     -0.211000
     15 OAF         5.0820    3.0900    4.2210 oh        1 SFJ     -0.338000
     16 OAG         3.5330    1.7540    1.2490 oh        1 SFJ     -0.317000
     17 OAH         4.7760   -3.5800    1.1350 o         1 SFJ     -0.071000
     18 OAM         5.1010   -0.3570    2.1720 os        1 SFJ     -0.322000
     19 FAI         7.2870   -3.0140    3.4130 f         1 SFJ     -0.058000
     20 OAC         4.6430    0.1760    4.3620 os        1 SFJ     -0.271000
     21 CAP         5.0980    2.6000    2.8960 c3        1 SFJ     -0.052000
     22 H1          1.2140   -1.2630    0.3230 hn        1 SFJ      0.151500
     23 H2          1.3350    2.2270    0.8850 ha        1 SFJ      0.186500
     24 H3         -0.3230    1.3690    1.0120 ha        1 SFJ      0.186500
     25 H6          2.9700    2.1080    3.1730 h1        1 SFJ      0.202000
     26 H7          3.2360   -2.3240   -0.4230 h1        1 SFJ      0.065667
     27 H8          6.0460    0.4080   -0.1010 ha        1 SFJ      0.002500
     28 H9          6.3190    0.7920    0.3880 ha        1 SFJ      0.002500
     29 H10         4.0760   -0.7400   -0.0890 h1        1 SFJ      0.065667
     30 H11         3.1760   -0.3670    2.9770 h2        1 SFJ      0.168000
     31 H12         3.3510    4.1150    4.7300 ho        1 SFJ      0.270000
     32 H13         5.1320    2.3280    4.8160 ho        1 SFJ      0.219000
     33 H14         4.2720    1.3840    0.7440 ho        1 SFJ      0.214000
     34 H15         2.8650   -0.8630   -1.4440 h1        1 SFJ      0.065667
     35 H17         6.0480    2.0350    2.6950 h1        1 SFJ      0.100500
     36 H5          5.0580    3.5170    2.2480 h1        1 SFJ      0.100500
     37 HAL2        2.0100    0.1170    0.6740 hn        1 SFJ      0.151500
     38 FAJ         7.2710   -0.1820    2.4470 f         1 SFJ     -0.116000
     39 H4          0.6520    3.3340    4.8420 ha        1 SFJ      0.042000
@<TRIPOS>BOND
     1    1    3 1   
     2    1   23 1   
     3    1   24 1   
     4    2   13 1   
     5    2   39 1   
     6    3   12 1   
     7    4   10 1   
     8    4   14 1   
     9    4   20 1   
    10    5    9 1   
    11    5   16 1   
    12    5   21 1   
    13    5   25 1   
    14    6    7 1   
    15    6   17 1   
    16    7   10 1   
    17    7   19 1   
    18    8   11 1   
    19    8   26 1   
    20    8   29 1   
    21    8   34 1   
    22    9   18 1   
    23    9   20 1   
    24    9   30 1   
    25   10   18 1   
    26   10   38 1   
    27   11   22 1   
    28   11   37 1   
    29   13   31 1   
    30   15   21 1   
    31   15   32 1   
    32   16   33 1   
    33   21   35 1   
    34   21   36 1   
    35   27   28 1   
@<TRIPOS>SUBSTRUCTURE
     1 SFJ         1 TEMP              0 ****  ****    0 ROOT
