@<TRIPOS>MOLECULE
SFJ
   39    39     1     0     0
SMALL
bcc


@<TRIPOS>ATOM
      1 CAA         0.6760   -1.4740    0.7160 c3        1 SFJ     -0.189100
      2 CAK         4.1140    4.5280    3.5500 c3        1 SFJ      0.098400
      3 CAN         1.0530   -0.0480    0.9310 c         1 SFJ      0.567100
      4 CAO         4.9270   -1.8620    3.3890 c         1 SFJ      0.921600
      5 CAQ         4.5930    2.3670    2.3460 c3        1 SFJ      0.144100
      6 CAR         3.8650   -1.0960    0.7090 c3        1 SFJ      0.101100
      7 CAS         5.3370   -1.5260    0.8560 c3        1 SFJ      0.107600
      8 CAT         3.5140    0.2900    1.3230 c3        1 SFJ      0.118500
      9 CAU         4.4640    0.8290    2.4350 c3        1 SFJ      0.117100
     10 CAV         5.8110   -1.1310    2.2900 c3        1 SFJ      0.230100
     11 NAL         2.1300    0.2320    1.9310 n4        1 SFJ     -0.687800
     12 OAB         0.5640    0.9310    0.3760 o         1 SFJ     -0.458100
     13 OAD         3.4780    5.0240    4.7180 oh        1 SFJ     -0.618800
     14 OAE         3.6740   -1.6520    3.3450 o         1 SFJ     -0.794300
     15 OAF         2.6230    2.6120    3.6640 oh        1 SFJ     -0.658800
     16 OAG         5.9190    2.8070    2.1740 oh        1 SFJ     -0.579800
     17 OAH         3.4450   -1.0870   -0.6400 oh        1 SFJ     -0.621800
     18 OAM         5.7690    0.3060    2.3390 os        1 SFJ     -0.428600
     19 FAI         6.1190   -0.9640   -0.1370 f         1 SFJ     -0.227300
     20 OAC         5.5160   -2.5990    4.1920 o         1 SFJ     -0.794300
     21 CAP         3.9910    3.0040    3.6170 c3        1 SFJ      0.109100
     22 H1          1.3210   -1.8850   -0.1100 hc        1 SFJ      0.110367
     23 H2         -0.3950   -1.5190    0.3930 hc        1 SFJ      0.110367
     24 H3          0.8170   -2.1040    1.6290 hc        1 SFJ      0.110367
     25 H6          4.0460    2.7690    1.4460 h1        1 SFJ      0.073700
     26 H7          3.2540   -1.9140    1.2050 h1        1 SFJ      0.125700
     27 H8          5.3960   -2.6480    0.7570 h1        1 SFJ      0.097700
     28 H9          3.4660    1.0330    0.4700 hx        1 SFJ      0.098700
     29 H10         4.0570    0.5420    3.4560 h1        1 SFJ      0.104700
     30 H11         2.1640   -0.5140    2.6590 hn        1 SFJ      0.493300
     31 H12         3.6730    5.9660    4.7660 ho        1 SFJ      0.417000
     32 H13         2.2110    3.1230    4.3740 ho        1 SFJ      0.447000
     33 H14         6.5010    2.2740    2.7350 ho        1 SFJ      0.438000
     34 H15         4.1690   -0.7440   -1.1850 ho        1 SFJ      0.434000
     35 H17         4.5160    2.6220    4.5370 h1        1 SFJ      0.072700
     36 H5          5.1970    4.8160    3.5210 h1        1 SFJ      0.050200
     37 HAL2        1.9480    1.1390    2.3880 hn        1 SFJ      0.493300
     38 FAJ         7.1520   -1.3230    2.4620 f         1 SFJ     -0.184300
     39 H4          3.5920    4.9250    2.6390 h1        1 SFJ      0.050200
@<TRIPOS>BOND
     1    1    3 1   
     2    1   22 1   
     3    1   23 1   
     4    1   24 1   
     5    2   13 1   
     6    2   21 1   
     7    2   36 1   
     8    2   39 1   
     9    3   11 1   
    10    3   12 2   
    11    4   10 1   
    12    4   14 1   
    13    4   20 1   
    14    5    9 1   
    15    5   16 1   
    16    5   21 1   
    17    5   25 1   
    18    6    7 1   
    19    6    8 1   
    20    6   17 1   
    21    6   26 1   
    22    7   10 1   
    23    7   19 1   
    24    7   27 1   
    25    8    9 1   
    26    8   11 1   
    27    8   28 1   
    28    9   18 1   
    29    9   29 1   
    30   10   18 1   
    31   10   38 1   
    32   11   30 1   
    33   11   37 1   
    34   13   31 1   
    35   15   21 1   
    36   15   32 1   
    37   16   33 1   
    38   17   34 1   
    39   21   35 1   
@<TRIPOS>SUBSTRUCTURE
     1 SFJ         1 TEMP              0 ****  ****    0 ROOT
