@<TRIPOS>MOLECULE
SFK
   39    37     1     0     0
SMALL
bcc


@<TRIPOS>ATOM
      1 CAR        -3.9260    2.2680    0.9380 c3        1 SFK     -0.207000
      2 CAQ        -3.9580    1.1140    1.9150 c3        1 SFK     -0.106000
      3 CAS        -4.5050    1.5910    3.2420 c3        1 SFK     -0.207000
      4 CAP        -2.5550    0.5800    2.1100 c3        1 SFK     -0.159000
      5 CAO        -2.3610   -0.6530    1.2550 c3        1 SFK     -0.186000
      6 CAM        -0.8810   -0.9230    1.0860 c2        1 SFK      0.284000
      7 OAN        -0.1710   -1.0450    2.0640 o         1 SFK     -0.404000
      8 N          -0.3330   -1.0790   -0.2120 n         1 SFK     -0.326000
      9 CA          1.0680   -0.9460   -0.4130 c3        1 SFK     -0.075000
     10 C           1.5550    0.3190    0.2550 c2        1 SFK      0.327000
     11 O           1.1710    1.4420   -0.1670 o         1 SFK     -0.566000
     12 OXT         2.3660    0.2520    1.2160 o         1 SFK     -0.566000
     13 CB          1.3610   -0.8790   -1.8950 c3        1 SFK     -0.114000
     14 CG          2.8580   -0.9080   -2.1150 c2        1 SFK     -0.047000
     15 CD1         3.5840    0.2730   -2.0850 c2        1 SFK     -0.120000
     16 CE1         4.9370    0.2630   -2.3880 c1        1 SFK     -0.141000
     17 CZ          5.5640   -0.9270   -2.7200 c1        1 SFK     -0.152000
     18 CE2         4.8380   -2.1080   -2.7500 c1        1 SFK     -0.152000
     19 CD2         3.4860   -2.0980   -2.4480 c1        1 SFK     -0.138000
     20 H1         -4.8370    2.5990    0.7920 hc        1 SFK      0.070167
     21 H2         -3.5480    1.9650    0.0860 hc        1 SFK      0.070167
     22 H3         -3.3720    2.9900    1.3030 hc        1 SFK      0.070167
     23 H4         -4.5300    0.4050    1.5620 hc        1 SFK      0.078000
     24 H5         -4.6060    0.8260    3.8470 hc        1 SFK      0.070167
     25 H6         -5.3780    2.0140    3.1020 hc        1 SFK      0.070167
     26 H7         -3.8870    2.2410    3.6360 hc        1 SFK      0.070167
     27 H8         -2.4230    0.3480    3.0510 hc        1 SFK      0.099000
     28 H9         -1.9070    1.2630    1.8490 hc        1 SFK      0.099000
     29 H10        -2.7690   -0.5080    0.3770 hc        1 SFK      0.093000
     30 H11        -2.7850   -1.4210    1.6880 hc        1 SFK      0.093000
     31 H12        -0.8810   -1.2440   -0.9220 hn        1 SFK      0.233000
     32 H13         1.5270   -1.7170   -0.0240 h1        1 SFK      0.115000
     33 H15         0.9930   -0.0520   -2.2630 hc        1 SFK      0.086500
     34 H16         0.9510   -1.6460   -2.3430 hc        1 SFK      0.086500
     35 H17         3.1420    1.1120   -1.8510 ha        1 SFK      0.202000
     36 H18         5.4480    1.0950   -2.3670 ha        1 SFK      0.118000
     37 H19         6.5090   -0.9280   -2.9660 ha        1 SFK      0.107500
     38 H20         5.2800   -2.9460   -2.9840 ha        1 SFK      0.107500
     39 H21         2.9770   -2.9310   -2.4630 ha        1 SFK      0.118000
@<TRIPOS>BOND
     1    1    2 1   
     2    1   20 1   
     3    1   21 1   
     4    1   22 1   
     5    2    3 1   
     6    2    4 1   
     7    2   23 1   
     8    3   24 1   
     9    3   25 1   
    10    3   26 1   
    11    4    5 1   
    12    4   27 1   
    13    4   28 1   
    14    5    6 1   
    15    5   29 1   
    16    5   30 1   
    17    6    7 1   
    18    6    8 1   
    19    8    9 1   
    20    8   31 1   
    21    9   10 1   
    22    9   13 1   
    23    9   32 1   
    24   10   11 1   
    25   10   12 1   
    26   13   14 1   
    27   13   33 1   
    28   13   34 1   
    29   14   15 1   
    30   14   19 1   
    31   15   16 1   
    32   15   35 1   
    33   16   36 1   
    34   17   18 1   
    35   17   37 1   
    36   18   38 1   
    37   19   39 1   
@<TRIPOS>SUBSTRUCTURE
     1 SFK         1 TEMP              0 ****  ****    0 ROOT
