@<TRIPOS>MOLECULE
SFK
   40    40     1     0     0
SMALL
bcc


@<TRIPOS>ATOM
      1 CAR         1.5770    0.8950    0.4020 c3        1 SFK     -0.093100
      2 CAQ         2.3300   -0.3690    0.0420 c3        1 SFK     -0.067700
      3 CAS         2.8830   -1.0220    1.2930 c3        1 SFK     -0.093100
      4 CAP         1.4400   -1.3550   -0.7010 c3        1 SFK     -0.074400
      5 CAO         1.2120   -0.9190   -2.1340 c3        1 SFK     -0.164400
      6 CAM         0.2660   -1.8540   -2.8280 c         1 SFK      0.559100
      7 OAN        -0.6840   -2.4570   -2.3380 o         1 SFK     -0.472100
      8 N           0.4750   -2.0430   -4.2970 ny        1 SFK     -0.667800
      9 CA          1.6670   -2.9130   -4.5890 c3        1 SFK     -0.048500
     10 C           2.9620   -1.9990   -4.8070 c         1 SFK      0.928600
     11 O           4.0390   -2.6160   -4.8590 o         1 SFK     -0.763800
     12 OXT         2.7340   -0.7610   -4.8850 o         1 SFK     -0.763800
     13 CB          1.4670   -3.7560   -5.8420 c3        1 SFK     -0.051100
     14 CG          0.2840   -4.6520   -5.7490 ca        1 SFK     -0.113300
     15 CD1         0.3620   -5.8520   -5.0320 ca        1 SFK     -0.135000
     16 CE1        -0.7460   -6.6930   -4.9460 ca        1 SFK     -0.122000
     17 CZ         -1.9400   -6.3450   -5.5770 ca        1 SFK     -0.123000
     18 CE2        -2.0230   -5.1540   -6.2990 ca        1 SFK     -0.122000
     19 CD2        -0.9160   -4.3110   -6.3860 ca        1 SFK     -0.135000
     20 H1          2.2470    1.5950    0.9570 hc        1 SFK      0.037533
     21 H2          1.2120    1.4140   -0.5160 hc        1 SFK      0.037533
     22 H3          0.6990    0.6590    1.0500 hc        1 SFK      0.037533
     23 H4          3.1950   -0.0930   -0.6260 hc        1 SFK      0.063700
     24 H5          2.0530   -1.3470    1.9660 hc        1 SFK      0.037533
     25 H6          3.5280   -0.3000    1.8500 hc        1 SFK      0.037533
     26 H7          3.4980   -1.9160    1.0290 hc        1 SFK      0.037533
     27 H8          1.9270   -2.3670   -0.6990 hc        1 SFK      0.057700
     28 H9          0.4560   -1.4550   -0.1710 hc        1 SFK      0.057700
     29 H10         0.7430    0.1040   -2.1630 hc        1 SFK      0.119700
     30 H11         2.1960   -0.8490   -2.6880 hc        1 SFK      0.119700
     31 H12         0.7050   -1.1180   -4.7210 hn        1 SFK      0.461300
     32 H13         1.8430   -3.5800   -3.7020 hx        1 SFK      0.090700
     33 H15         2.4130   -4.3560   -5.9620 hc        1 SFK      0.091700
     34 H16         1.3860   -3.0900   -6.7430 hc        1 SFK      0.091700
     35 H17         1.3080   -6.1310   -4.5410 ha        1 SFK      0.134500
     36 H18        -0.6760   -7.6360   -4.3830 ha        1 SFK      0.137000
     37 H19        -2.8140   -7.0100   -5.5100 ha        1 SFK      0.137000
     38 H20        -2.9600   -4.8820   -6.8070 ha        1 SFK      0.137000
     39 H21        -0.9790   -3.3870   -6.9810 ha        1 SFK      0.134500
     40 H22        -0.3640   -2.4420   -4.7300 hn        1 SFK      0.461300
@<TRIPOS>BOND
     1    1    2 1   
     2    1   20 1   
     3    1   21 1   
     4    1   22 1   
     5    2    3 1   
     6    2    4 1   
     7    2   23 1   
     8    3   24 1   
     9    3   25 1   
    10    3   26 1   
    11    4    5 1   
    12    4   27 1   
    13    4   28 1   
    14    5    6 1   
    15    5   29 1   
    16    5   30 1   
    17    6    7 2   
    18    6    8 1   
    19    8    9 1   
    20    8   31 1   
    21    8   40 1   
    22    9   10 1   
    23    9   13 1   
    24    9   32 1   
    25   10   11 1   
    26   10   12 1   
    27   13   14 1   
    28   13   33 1   
    29   13   34 1   
    30   14   15 ar  
    31   14   19 ar  
    32   15   16 ar  
    33   15   35 1   
    34   16   17 ar  
    35   16   36 1   
    36   17   18 ar  
    37   17   37 1   
    38   18   19 ar  
    39   18   38 1   
    40   19   39 1   
@<TRIPOS>SUBSTRUCTURE
     1 SFK         1 TEMP              0 ****  ****    0 ROOT
