@<TRIPOS>MOLECULE
SFK
   40    40     1     0     0
SMALL
bcc


@<TRIPOS>ATOM
      1 CAR         2.7390    0.7910   -0.2850 c3        1 SFK     -0.096100
      2 CAQ         2.3990   -0.5870    0.2410 c3        1 SFK     -0.064700
      3 CAS         2.1580   -0.5340    1.7360 c3        1 SFK     -0.096100
      4 CAP         1.1720   -1.1630   -0.4540 c3        1 SFK     -0.075400
      5 CAO         1.4810   -1.5480   -1.8850 c3        1 SFK     -0.166400
      6 CAM         0.3080   -2.2350   -2.5190 c         1 SFK      0.562100
      7 OAN        -0.6180   -2.8180   -1.9640 o         1 SFK     -0.476100
      8 N           0.2470   -2.2010   -4.0140 n4        1 SFK     -0.667800
      9 CA          1.4790   -2.7750   -4.6550 c3        1 SFK     -0.050500
     10 C           2.5540   -1.6110   -4.8880 c         1 SFK      0.928600
     11 O           3.6930   -2.0020   -5.1860 o         1 SFK     -0.764300
     12 OXT         2.1140   -0.4410   -4.7240 o         1 SFK     -0.764300
     13 CB          1.1750   -3.4180   -6.0030 c3        1 SFK     -0.051100
     14 CG          0.1880   -4.5260   -5.8980 ca        1 SFK     -0.114300
     15 CD1         0.5960   -5.7950   -5.4680 ca        1 SFK     -0.136000
     16 CE1        -0.3280   -6.8330   -5.3690 ca        1 SFK     -0.122000
     17 CZ         -1.6660   -6.6150   -5.7010 ca        1 SFK     -0.124000
     18 CE2        -2.0760   -5.3560   -6.1370 ca        1 SFK     -0.122000
     19 CD2        -1.1540   -4.3150   -6.2350 ca        1 SFK     -0.136000
     20 H1          1.8810    1.4900   -0.1430 hc        1 SFK      0.040367
     21 H2          3.6220    1.2020    0.2620 hc        1 SFK      0.040367
     22 H3          2.9890    0.7500   -1.3730 hc        1 SFK      0.040367
     23 H4          3.2740   -1.2700    0.0460 hc        1 SFK      0.052700
     24 H5          1.9610   -1.5570    2.1390 hc        1 SFK      0.040367
     25 H6          1.2800    0.1140    1.9690 hc        1 SFK      0.040367
     26 H7          3.0540   -0.1160    2.2550 hc        1 SFK      0.040367
     27 H8          0.3420   -0.4090   -0.4350 hc        1 SFK      0.055200
     28 H9          0.8150   -2.0680    0.1070 hc        1 SFK      0.055200
     29 H10         2.3510   -2.2630   -1.9250 hc        1 SFK      0.125700
     30 H11         1.7840   -0.6420   -2.4910 hc        1 SFK      0.125700
     31 H12        -0.5910   -2.6860   -4.3500 hn        1 SFK      0.462300
     32 H13         1.9180   -3.5390   -3.9580 hx        1 SFK      0.087700
     33 H15         0.8170   -2.6380   -6.7280 hc        1 SFK      0.091700
     34 H16         2.1620   -3.7990   -6.3910 hc        1 SFK      0.091700
     35 H17         1.6530   -5.9700   -5.2150 ha        1 SFK      0.135000
     36 H18         0.0000   -7.8290   -5.0340 ha        1 SFK      0.137500
     37 H19        -2.3940   -7.4360   -5.6250 ha        1 SFK      0.138000
     38 H20        -3.1280   -5.1830   -6.4090 ha        1 SFK      0.137500
     39 H21        -1.4790   -3.3310   -6.6070 ha        1 SFK      0.135000
     40 H22         0.2320   -1.2000   -4.3110 hn        1 SFK      0.462300
@<TRIPOS>BOND
     1    1    2 1   
     2    1   20 1   
     3    1   21 1   
     4    1   22 1   
     5    2    3 1   
     6    2    4 1   
     7    2   23 1   
     8    3   24 1   
     9    3   25 1   
    10    3   26 1   
    11    4    5 1   
    12    4   27 1   
    13    4   28 1   
    14    5    6 1   
    15    5   29 1   
    16    5   30 1   
    17    6    7 2   
    18    6    8 1   
    19    8    9 1   
    20    8   31 1   
    21    8   40 1   
    22    9   10 1   
    23    9   13 1   
    24    9   32 1   
    25   10   11 1   
    26   10   12 1   
    27   13   14 1   
    28   13   33 1   
    29   13   34 1   
    30   14   15 ar  
    31   14   19 ar  
    32   15   16 ar  
    33   15   35 1   
    34   16   17 ar  
    35   16   36 1   
    36   17   18 ar  
    37   17   37 1   
    38   18   19 ar  
    39   18   38 1   
    40   19   39 1   
@<TRIPOS>SUBSTRUCTURE
     1 SFK         1 TEMP              0 ****  ****    0 ROOT
