@<TRIPOS>MOLECULE
SFK
   39    39     1     0     0
SMALL
bcc


@<TRIPOS>ATOM
      1 CAR        -5.1130    0.0340    0.8690 c3        1 SFK     -0.089100
      2 CAQ        -4.3470    0.7940   -0.1940 c3        1 SFK     -0.068700
      3 CAS        -4.6660    2.2730   -0.1100 c3        1 SFK     -0.089100
      4 CAP        -2.8460    0.5770   -0.0600 c3        1 SFK     -0.072400
      5 CAO        -2.4350   -0.8190   -0.4720 c3        1 SFK     -0.158400
      6 CAM        -0.9200   -0.9720   -0.5390 c         1 SFK      0.643100
      7 OAN        -0.3810   -1.2460   -1.6370 o         1 SFK     -0.656100
      8 N          -0.2090   -0.7310    0.6140 n         1 SFK     -0.501900
      9 CA          1.1520   -1.1970    0.7960 c3        1 SFK     -0.060300
     10 C           1.2650   -2.2230    1.9920 c         1 SFK      0.906600
     11 O           0.3040   -2.3000    2.8070 o         1 SFK     -0.828300
     12 OXT         2.3300   -2.8900    2.0510 o         1 SFK     -0.828300
     13 CB          2.1370   -0.0690    1.1200 c3        1 SFK     -0.039100
     14 CG          2.3340    0.9850    0.0900 ca        1 SFK     -0.042300
     15 CD1         2.0580    0.7820   -1.2670 ca        1 SFK     -0.135000
     16 CE1         2.3060    1.7920   -2.1960 ca        1 SFK     -0.139500
     17 CZ          2.8300    3.0170   -1.7870 ca        1 SFK     -0.160000
     18 CE2         3.1040    3.2310   -0.4360 ca        1 SFK     -0.139500
     19 CD2         2.8570    2.2240    0.4930 ca        1 SFK     -0.135000
     20 H1         -6.2100    0.2090    0.7560 hc        1 SFK      0.030533
     21 H2         -4.9170   -1.0620    0.7820 hc        1 SFK      0.030533
     22 H3         -4.8040    0.3680    1.8890 hc        1 SFK      0.030533
     23 H4         -4.6730    0.4180   -1.2050 hc        1 SFK      0.041700
     24 H5         -4.3240    2.6910    0.8670 hc        1 SFK      0.030533
     25 H6         -4.1520    2.8300   -0.9310 hc        1 SFK      0.030533
     26 H7         -5.7660    2.4400   -0.2020 hc        1 SFK      0.030533
     27 H8         -2.3090    1.3220   -0.7050 hc        1 SFK      0.051200
     28 H9         -2.5380    0.7720    1.0010 hc        1 SFK      0.051200
     29 H10        -2.8440   -1.5760    0.2470 hc        1 SFK      0.059700
     30 H11        -2.8430   -1.0560   -1.4900 hc        1 SFK      0.059700
     31 H12        -0.7330   -0.7540    1.4700 hn        1 SFK      0.314500
     32 H13         1.4910   -1.7290   -0.1380 h1        1 SFK      0.071700
     33 H15         1.8270    0.4150    2.0860 hc        1 SFK      0.064200
     34 H16         3.1280   -0.5740    1.3050 hc        1 SFK      0.064200
     35 H17         1.6210   -0.1750   -1.6030 ha        1 SFK      0.147000
     36 H18         2.0800    1.6190   -3.2580 ha        1 SFK      0.114500
     37 H19         3.0250    3.8100   -2.5220 ha        1 SFK      0.109000
     38 H20         3.5140    4.1950   -0.1040 ha        1 SFK      0.114500
     39 H21         3.0740    2.3970    1.5580 ha        1 SFK      0.147000
@<TRIPOS>BOND
     1    1    2 1   
     2    1   20 1   
     3    1   21 1   
     4    1   22 1   
     5    2    3 1   
     6    2    4 1   
     7    2   23 1   
     8    3   24 1   
     9    3   25 1   
    10    3   26 1   
    11    4    5 1   
    12    4   27 1   
    13    4   28 1   
    14    5    6 1   
    15    5   29 1   
    16    5   30 1   
    17    6    7 2   
    18    6    8 1   
    19    8    9 1   
    20    8   31 1   
    21    9   10 1   
    22    9   13 1   
    23    9   32 1   
    24   10   11 1   
    25   10   12 1   
    26   13   14 1   
    27   13   33 1   
    28   13   34 1   
    29   14   15 ar  
    30   14   19 ar  
    31   15   16 ar  
    32   15   35 1   
    33   16   17 ar  
    34   16   36 1   
    35   17   18 ar  
    36   17   37 1   
    37   18   19 ar  
    38   18   38 1   
    39   19   39 1   
@<TRIPOS>SUBSTRUCTURE
     1 SFK         1 TEMP              0 ****  ****    0 ROOT
