@<TRIPOS>MOLECULE
SFK
   40    40     1     0     0
SMALL
bcc


@<TRIPOS>ATOM
      1 CAR         1.6370    0.9090    0.3800 c3        1 SFK     -0.093100
      2 CAQ         2.3610   -0.3790    0.0480 c3        1 SFK     -0.067700
      3 CAS         2.8820   -1.0280    1.3140 c3        1 SFK     -0.093100
      4 CAP         1.4530   -1.3530   -0.6910 c3        1 SFK     -0.074400
      5 CAO         1.2520   -0.9320   -2.1320 c3        1 SFK     -0.164400
      6 CAM         0.2910   -1.8530   -2.8250 c         1 SFK      0.559100
      7 OAN        -0.6680   -2.4410   -2.3330 o         1 SFK     -0.472100
      8 N           0.4970   -2.0480   -4.2940 n4        1 SFK     -0.667800
      9 CA          1.6700   -2.9440   -4.5850 c3        1 SFK     -0.048500
     10 C           2.9860   -2.0590   -4.7970 c         1 SFK      0.928600
     11 O           4.0480   -2.7000   -4.8460 o         1 SFK     -0.763800
     12 OXT         2.7850   -0.8160   -4.8750 o         1 SFK     -0.763800
     13 CB          1.4530   -3.7790   -5.8400 c3        1 SFK     -0.051100
     14 CG          0.2500   -4.6480   -5.7520 ca        1 SFK     -0.113300
     15 CD1         0.2990   -5.8520   -5.0380 ca        1 SFK     -0.135000
     16 CE1        -0.8280   -6.6680   -4.9570 ca        1 SFK     -0.121500
     17 CZ         -2.0130   -6.2900   -5.5890 ca        1 SFK     -0.123000
     18 CE2        -2.0670   -5.0950   -6.3080 ca        1 SFK     -0.121500
     19 CD2        -0.9410   -4.2770   -6.3890 ca        1 SFK     -0.135000
     20 H1          0.7460    0.7070    1.0220 hc        1 SFK      0.037533
     21 H2          1.2960    1.4240   -0.5500 hc        1 SFK      0.037533
     22 H3          2.3200    1.6000    0.9320 hc        1 SFK      0.037533
     23 H4          3.2400   -0.1360   -0.6150 hc        1 SFK      0.063700
     24 H5          3.5400   -0.3150    1.8670 hc        1 SFK      0.037533
     25 H6          3.4770   -1.9410    1.0700 hc        1 SFK      0.037533
     26 H7          2.0370   -1.3210    1.9820 hc        1 SFK      0.037533
     27 H8          1.9130   -2.3770   -0.6680 hc        1 SFK      0.057200
     28 H9          0.4610   -1.4190   -0.1700 hc        1 SFK      0.057200
     29 H10         2.2430   -0.8960   -2.6760 hc        1 SFK      0.120200
     30 H11         0.8100    0.1020   -2.1830 hc        1 SFK      0.120200
     31 H12        -0.3500   -2.4280   -4.7270 hn        1 SFK      0.461300
     32 H13         1.8270   -3.6170   -3.6980 hx        1 SFK      0.090700
     33 H15         1.3900   -3.1090   -6.7400 hc        1 SFK      0.091700
     34 H16         2.3860   -4.4010   -5.9590 hc        1 SFK      0.091700
     35 H17         1.2370   -6.1540   -4.5470 ha        1 SFK      0.134500
     36 H18        -0.7800   -7.6130   -4.3970 ha        1 SFK      0.137000
     37 H19        -2.9010   -6.9350   -5.5260 ha        1 SFK      0.137000
     38 H20        -2.9970   -4.8000   -6.8160 ha        1 SFK      0.137000
     39 H21        -0.9810   -3.3510   -6.9820 ha        1 SFK      0.134500
     40 H22         0.7480   -1.1280   -4.7170 hn        1 SFK      0.461300
@<TRIPOS>BOND
     1    1    2 1   
     2    1   20 1   
     3    1   21 1   
     4    1   22 1   
     5    2    3 1   
     6    2    4 1   
     7    2   23 1   
     8    3   24 1   
     9    3   25 1   
    10    3   26 1   
    11    4    5 1   
    12    4   27 1   
    13    4   28 1   
    14    5    6 1   
    15    5   29 1   
    16    5   30 1   
    17    6    7 2   
    18    6    8 1   
    19    8    9 1   
    20    8   31 1   
    21    8   40 1   
    22    9   10 1   
    23    9   13 1   
    24    9   32 1   
    25   10   11 1   
    26   10   12 1   
    27   13   14 1   
    28   13   33 1   
    29   13   34 1   
    30   14   15 ar  
    31   14   19 ar  
    32   15   16 ar  
    33   15   35 1   
    34   16   17 ar  
    35   16   36 1   
    36   17   18 ar  
    37   17   37 1   
    38   18   19 ar  
    39   18   38 1   
    40   19   39 1   
@<TRIPOS>SUBSTRUCTURE
     1 SFK         1 TEMP              0 ****  ****    0 ROOT
