@<TRIPOS>MOLECULE
SFN
    5     2     1     0     0
SMALL
bcc


@<TRIPOS>ATOM
      1 S          -0.0480    0.0550   -0.0590 ss        1 SFN      2.569000
      2 O1          1.4620    0.0550   -0.0590 o         1 SFN     -0.930000
      3 O2         -0.3420    0.0550    1.4220 o         1 SFN     -0.930000
      4 O3         -0.5960   -1.1840   -0.7260 os        1 SFN     -1.083000
      5 HS1        -0.4760    1.0210   -0.5790 DU        1 SFN     -0.626000
@<TRIPOS>BOND
     1    1    2 1   
     2    1    3 1   
@<TRIPOS>SUBSTRUCTURE
     1 SFN         1 TEMP              0 ****  ****    0 ROOT
