@<TRIPOS>MOLECULE
SFN
    5     4     1     0     0
SMALL
bcc


@<TRIPOS>ATOM
      1 S          -1.3040    0.3690    0.5690 s6        1 SFN      1.447800
      2 O1         -1.8900   -0.6250    1.3930 o         1 SFN     -0.760200
      3 O2         -2.2040    0.9590   -0.3540 o         1 SFN     -0.760200
      4 O3         -0.0600   -0.0080    0.0030 o         1 SFN     -0.760200
      5 HS1        -1.0140    1.3090    1.3690 hs        1 SFN     -0.167200
@<TRIPOS>BOND
     1    1    2 1   
     2    1    3 1   
     3    1    4 1   
     4    1    5 1   
@<TRIPOS>SUBSTRUCTURE
     1 SFN         1 TEMP              0 ****  ****    0 ROOT
