@<TRIPOS>MOLECULE
SFN
    5     4     1     0     0
SMALL
bcc


@<TRIPOS>ATOM
      1 S          -0.0120    0.0580   -0.0180 s6        1 SFN      1.447800
      2 O1          1.4030   -0.0390    0.0090 o         1 SFN     -0.760200
      3 O2         -0.6210   -0.0270    1.2590 o         1 SFN     -0.760200
      4 O3         -0.6270   -0.7500   -1.0080 o         1 SFN     -0.760200
      5 HS1        -0.2380    1.2460   -0.3970 hs        1 SFN     -0.167200
@<TRIPOS>BOND
     1    1    2 1   
     2    1    3 1   
     3    1    4 1   
     4    1    5 1   
@<TRIPOS>SUBSTRUCTURE
     1 SFN         1 TEMP              0 ****  ****    0 ROOT
