@<TRIPOS>MOLECULE
SFR
   35    36     1     0     0
SMALL
bcc


@<TRIPOS>ATOM
      1 O72         0.1330    0.5410    0.1480 o         1 SFR     -0.847800
      2 C7          1.3450    0.1840   -0.0070 c         1 SFR      0.912600
      3 C6          2.1800   -0.0560    1.2740 c3        1 SFR     -0.236700
      4 N4          4.1030   -1.2930    0.1750 nu        1 SFR     -0.718000
      5 C5          3.6730   -0.1710    0.9830 c3        1 SFR      0.378600
      6 C3          4.9600   -2.1750    0.8290 ce        1 SFR      0.090800
      7 C2          5.4110   -1.7720    2.0600 c2        1 SFR     -0.170600
      8 S1          4.6780   -0.2790    2.5500 ss        1 SFR     -0.450700
      9 C31         5.3630   -3.4760    0.1220 c         1 SFR      0.925800
     10 O71         1.8640    0.0110   -1.1410 o         1 SFR     -0.847800
     11 C61         1.9190    1.0480    2.3060 c3        1 SFR      0.172100
     12 O62         0.6150    0.9380    2.8580 oh        1 SFR     -0.656800
     13 C62         2.1120    2.4420    1.7270 c3        1 SFR     -0.122100
     14 C14         6.4310   -2.4740    2.8570 c3        1 SFR      0.231300
     15 C15         7.6630   -1.5950    3.1510 c3        1 SFR     -0.100400
     16 C16         7.6260   -1.3040    4.6450 c3        1 SFR     -0.105400
     17 C17         6.3880   -2.0350    5.1650 c3        1 SFR      0.130400
     18 O18         5.9340   -2.9150    4.1450 os        1 SFR     -0.424600
     19 O32         6.5730   -3.8370    0.1810 o         1 SFR     -0.828300
     20 O31         4.4610   -4.1210   -0.4770 o         1 SFR     -0.828300
     21 H6          1.8060   -1.0210    1.7140 hc        1 SFR      0.070700
     22 HN4         3.4360   -1.6610   -0.4720 hn        1 SFR      0.464800
     23 H5          4.0130    0.7720    0.4730 h2        1 SFR      0.061700
     24 H61         2.6040    0.9030    3.1930 h1        1 SFR      0.053700
     25 HO62       -0.0010    0.8430    2.1110 ho        1 SFR      0.442000
     26 H62         1.8430    3.2100    2.4900 hc        1 SFR      0.030700
     27 H62A        1.4530    2.5710    0.8340 hc        1 SFR      0.030700
     28 H62B        3.1750    2.5890    1.4230 hc        1 SFR      0.030700
     29 H14         6.7240   -3.4300    2.3260 h1        1 SFR      0.120700
     30 H15         8.5950   -2.1450    2.8740 hc        1 SFR      0.048200
     31 H15A        7.6220   -0.6550    2.5510 hc        1 SFR      0.048200
     32 H16         7.5480   -0.2070    4.8430 hc        1 SFR      0.023200
     33 H16A        8.5490   -1.6770    5.1530 hc        1 SFR      0.023200
     34 H17         6.6110   -2.6750    6.0560 h1        1 SFR      0.023700
     35 H17A        5.5650   -1.3150    5.4140 h1        1 SFR      0.023700
@<TRIPOS>BOND
     1    1    2 1   
     2    2    3 1   
     3    2   10 1   
     4    3    5 1   
     5    3   11 1   
     6    3   21 1   
     7    4    5 1   
     8    4    6 1   
     9    4   22 1   
    10    5    8 1   
    11    5   23 1   
    12    6    7 2   
    13    6    9 1   
    14    7    8 1   
    15    7   14 1   
    16    9   19 1   
    17    9   20 1   
    18   11   12 1   
    19   11   13 1   
    20   11   24 1   
    21   12   25 1   
    22   13   26 1   
    23   13   27 1   
    24   13   28 1   
    25   14   15 1   
    26   14   18 1   
    27   14   29 1   
    28   15   16 1   
    29   15   30 1   
    30   15   31 1   
    31   16   17 1   
    32   16   32 1   
    33   16   33 1   
    34   17   18 1   
    35   17   34 1   
    36   17   35 1   
@<TRIPOS>SUBSTRUCTURE
     1 SFR         1 TEMP              0 ****  ****    0 ROOT
