@<TRIPOS>MOLECULE
SFR
   35    36     1     0     0
SMALL
bcc


@<TRIPOS>ATOM
      1 O72         0.1190    0.5540    0.1700 o         1 SFR     -0.847800
      2 C7          1.3300    0.1970    0.0080 c         1 SFR      0.912600
      3 C6          2.1720   -0.0460    1.2830 c3        1 SFR     -0.236700
      4 N4          4.0880   -1.2830    0.1710 nh        1 SFR     -0.718000
      5 C5          3.6630   -0.1630    0.9840 c3        1 SFR      0.378600
      6 C3          4.9480   -2.1670    0.8180 ce        1 SFR      0.090800
      7 C2          5.4060   -1.7680    2.0470 c2        1 SFR     -0.170600
      8 S1          4.6760   -0.2760    2.5450 ss        1 SFR     -0.450700
      9 C31         5.3460   -3.4670    0.1040 c         1 SFR      0.925800
     10 O71         1.8430    0.0270   -1.1300 o         1 SFR     -0.847800
     11 C61         1.9170    1.0550    2.3190 c3        1 SFR      0.172100
     12 O62         0.6170    0.9440    2.8780 oh        1 SFR     -0.656800
     13 C62         2.1090    2.4500    1.7430 c3        1 SFR     -0.122100
     14 C14         6.4290   -2.4740    2.8370 c3        1 SFR      0.231300
     15 C15         7.6640   -1.5970    3.1270 c3        1 SFR     -0.100400
     16 C16         7.6350   -1.3080    4.6220 c3        1 SFR     -0.105400
     17 C17         6.3990   -2.0400    5.1460 c3        1 SFR      0.130400
     18 O18         5.9390   -2.9170    4.1260 os        1 SFR     -0.424600
     19 O32         6.5550   -3.8290    0.1570 o         1 SFR     -0.828300
     20 O31         4.4400   -4.1090   -0.4910 o         1 SFR     -0.828300
     21 H6          1.8000   -1.0130    1.7220 hc        1 SFR      0.070700
     22 HN4         3.4170   -1.6480   -0.4740 hn        1 SFR      0.464800
     23 H5          4.0010    0.7810    0.4740 h2        1 SFR      0.061700
     24 H61         2.6070    0.9070    3.2030 h1        1 SFR      0.053700
     25 HO62       -0.0030    0.8510    2.1340 ho        1 SFR      0.442000
     26 H62         1.8440    3.2160    2.5090 hc        1 SFR      0.030700
     27 H62A        1.4450    2.5820    0.8540 hc        1 SFR      0.030700
     28 H62B        3.1700    2.5970    1.4330 hc        1 SFR      0.030700
     29 H14         6.7180   -3.4280    2.3020 h1        1 SFR      0.120700
     30 H15         7.6200   -0.6540    2.5290 hc        1 SFR      0.048200
     31 H15A        8.5940   -2.1460    2.8430 hc        1 SFR      0.048200
     32 H16         8.5600   -1.6840    5.1230 hc        1 SFR      0.023200
     33 H16A        7.5590   -0.2120    4.8220 hc        1 SFR      0.023200
     34 H17         6.6260   -2.6830    6.0340 h1        1 SFR      0.023700
     35 H17A        5.5790   -1.3200    5.4020 h1        1 SFR      0.023700
@<TRIPOS>BOND
     1    1    2 1   
     2    2    3 1   
     3    2   10 1   
     4    3    5 1   
     5    3   11 1   
     6    3   21 1   
     7    4    5 1   
     8    4    6 1   
     9    4   22 1   
    10    5    8 1   
    11    5   23 1   
    12    6    7 2   
    13    6    9 1   
    14    7    8 1   
    15    7   14 1   
    16    9   19 1   
    17    9   20 1   
    18   11   12 1   
    19   11   13 1   
    20   11   24 1   
    21   12   25 1   
    22   13   26 1   
    23   13   27 1   
    24   13   28 1   
    25   14   15 1   
    26   14   18 1   
    27   14   29 1   
    28   15   16 1   
    29   15   30 1   
    30   15   31 1   
    31   16   17 1   
    32   16   32 1   
    33   16   33 1   
    34   17   18 1   
    35   17   34 1   
    36   17   35 1   
@<TRIPOS>SUBSTRUCTURE
     1 SFR         1 TEMP              0 ****  ****    0 ROOT
