@<TRIPOS>MOLECULE
SFR
   35    36     1     0     0
SMALL
bcc


@<TRIPOS>ATOM
      1 O72         4.5110   -0.2900   -0.5780 o         1 SFR     -0.847800
      2 C7          3.4250   -0.6580   -0.0260 c         1 SFR      0.912600
      3 C6          2.1740    0.2180   -0.2730 c3        1 SFR     -0.236700
      4 N4          0.4460   -1.4510    0.5420 nh        1 SFR     -0.718000
      5 C5          1.0240   -0.1300    0.6670 c3        1 SFR      0.378600
      6 C3         -0.8950   -1.4580    0.1660 ce        1 SFR      0.090800
      7 C2         -1.5180   -0.2360    0.1410 c2        1 SFR     -0.170600
      8 S1         -0.4060    1.0520    0.4780 ss        1 SFR     -0.450700
      9 C31        -1.5710   -2.8020   -0.1390 c         1 SFR      0.925800
     10 O71         3.3390   -1.6970    0.6820 o         1 SFR     -0.847800
     11 C61         2.5250    1.7070   -0.1630 c3        1 SFR      0.172100
     12 O62         3.3220    2.1300   -1.2590 oh        1 SFR     -0.656800
     13 C62         3.2320    2.0410    1.1420 c3        1 SFR     -0.122100
     14 C14        -2.9580   -0.0280   -0.0840 c3        1 SFR      0.231300
     15 C15        -3.6460    0.6870    1.0970 c3        1 SFR     -0.100400
     16 C16        -4.0230    2.0720    0.5890 c3        1 SFR     -0.105400
     17 C17        -3.5580    2.1050   -0.8660 c3        1 SFR      0.130400
     18 O18        -3.2330    0.7770   -1.2570 os        1 SFR     -0.424600
     19 O32        -2.7350   -2.9990    0.3100 o         1 SFR     -0.828300
     20 O31        -0.9280   -3.6380   -0.8300 o         1 SFR     -0.828300
     21 H6          1.8630    0.0250   -1.3370 hc        1 SFR      0.070700
     22 HN4         1.0480   -2.1720    0.1970 hn        1 SFR      0.464800
     23 H5          1.3770   -0.0050    1.7270 h2        1 SFR      0.061700
     24 H61         1.5820    2.3240   -0.2560 h1        1 SFR      0.053700
     25 HO62        4.0450    1.4860   -1.3480 ho        1 SFR      0.442000
     26 H62         4.1490    1.4100    1.2440 hc        1 SFR      0.030700
     27 H62A        3.5320    3.1160    1.1470 hc        1 SFR      0.030700
     28 H62B        2.5570    1.8480    2.0080 hc        1 SFR      0.030700
     29 H14        -3.4470   -1.0240   -0.3040 h1        1 SFR      0.120700
     30 H15        -4.5520    0.1150    1.4090 hc        1 SFR      0.048200
     31 H15A       -2.9530    0.7480    1.9710 hc        1 SFR      0.048200
     32 H16        -5.1250    2.2400    0.6570 hc        1 SFR      0.023200
     33 H16A       -3.5190    2.8730    1.1830 hc        1 SFR      0.023200
     34 H17        -4.3620    2.4500   -1.5660 h1        1 SFR      0.023700
     35 H17A       -2.6500    2.7510   -0.9890 h1        1 SFR      0.023700
@<TRIPOS>BOND
     1    1    2 1   
     2    2    3 1   
     3    2   10 1   
     4    3    5 1   
     5    3   11 1   
     6    3   21 1   
     7    4    5 1   
     8    4    6 1   
     9    4   22 1   
    10    5    8 1   
    11    5   23 1   
    12    6    7 2   
    13    6    9 1   
    14    7    8 1   
    15    7   14 1   
    16    9   19 1   
    17    9   20 1   
    18   11   12 1   
    19   11   13 1   
    20   11   24 1   
    21   12   25 1   
    22   13   26 1   
    23   13   27 1   
    24   13   28 1   
    25   14   15 1   
    26   14   18 1   
    27   14   29 1   
    28   15   16 1   
    29   15   30 1   
    30   15   31 1   
    31   16   17 1   
    32   16   32 1   
    33   16   33 1   
    34   17   18 1   
    35   17   34 1   
    36   17   35 1   
@<TRIPOS>SUBSTRUCTURE
     1 SFR         1 TEMP              0 ****  ****    0 ROOT
