@<TRIPOS>MOLECULE
SFR
   35    36     1     0     0
SMALL
bcc


@<TRIPOS>ATOM
      1 O72         0.1110    0.5230    0.1820 o         1 SFR     -0.847800
      2 C7          1.3180    0.1570    0.0170 c         1 SFR      0.912600
      3 C6          2.1720   -0.0590    1.2900 c3        1 SFR     -0.236700
      4 N4          4.0720   -1.3320    0.1920 nh        1 SFR     -0.718000
      5 C5          3.6590   -0.1890    0.9800 c3        1 SFR      0.378600
      6 C3          4.9330   -2.2040    0.8530 ce        1 SFR      0.090800
      7 C2          5.4040   -1.7760    2.0670 c2        1 SFR     -0.170600
      8 S1          4.6870   -0.2690    2.5340 ss        1 SFR     -0.451700
      9 C31         5.3190   -3.5230    0.1680 c         1 SFR      0.925800
     10 O71         1.8200   -0.0440   -1.1210 o         1 SFR     -0.847800
     11 C61         1.9320    1.0690    2.3010 c3        1 SFR      0.172100
     12 O62         0.6360    0.9790    2.8740 oh        1 SFR     -0.656800
     13 C62         2.1240    2.4480    1.6880 c3        1 SFR     -0.122100
     14 C14         6.4320   -2.4670    2.8640 c3        1 SFR      0.231300
     15 C15         7.6730   -1.5890    3.1230 c3        1 SFR     -0.100400
     16 C16         7.6580   -1.2640    4.6100 c3        1 SFR     -0.105400
     17 C17         6.4250   -1.9780    5.1630 c3        1 SFR      0.130400
     18 O18         5.9510   -2.8770    4.1680 os        1 SFR     -0.424600
     19 O32         6.5270   -3.8890    0.2180 o         1 SFR     -0.828300
     20 O31         4.4040   -4.1750   -0.4030 o         1 SFR     -0.828300
     21 H6          1.7990   -1.0120    1.7570 hc        1 SFR      0.070700
     22 HN4         3.3920   -1.7090   -0.4380 hn        1 SFR      0.464800
     23 H5          3.9970    0.7400    0.4440 h2        1 SFR      0.061700
     24 H61         2.6300    0.9410    3.1810 h1        1 SFR      0.053700
     25 HO62        0.0090    0.8700    2.1390 ho        1 SFR      0.442000
     26 H62         3.1830    2.5830    1.3640 hc        1 SFR      0.030700
     27 H62A        1.8700    3.2360    2.4370 hc        1 SFR      0.030700
     28 H62B        1.4520    2.5610    0.8010 hc        1 SFR      0.030700
     29 H14         6.7120   -3.4350    2.3500 h1        1 SFR      0.120700
     30 H15         7.6280   -0.6610    2.5020 hc        1 SFR      0.048200
     31 H15A        8.5980   -2.1490    2.8440 hc        1 SFR      0.048200
     32 H16         8.5860   -1.6320    5.1120 hc        1 SFR      0.023200
     33 H16A        7.5890   -0.1640    4.7850 hc        1 SFR      0.023200
     34 H17         6.6570   -2.6000    6.0640 h1        1 SFR      0.023700
     35 H17A        5.6090   -1.2490    5.4090 h1        1 SFR      0.023700
@<TRIPOS>BOND
     1    1    2 1   
     2    2    3 1   
     3    2   10 1   
     4    3    5 1   
     5    3   11 1   
     6    3   21 1   
     7    4    5 1   
     8    4    6 1   
     9    4   22 1   
    10    5    8 1   
    11    5   23 1   
    12    6    7 2   
    13    6    9 1   
    14    7    8 1   
    15    7   14 1   
    16    9   19 1   
    17    9   20 1   
    18   11   12 1   
    19   11   13 1   
    20   11   24 1   
    21   12   25 1   
    22   13   26 1   
    23   13   27 1   
    24   13   28 1   
    25   14   15 1   
    26   14   18 1   
    27   14   29 1   
    28   15   16 1   
    29   15   30 1   
    30   15   31 1   
    31   16   17 1   
    32   16   32 1   
    33   16   33 1   
    34   17   18 1   
    35   17   34 1   
    36   17   35 1   
@<TRIPOS>SUBSTRUCTURE
     1 SFR         1 TEMP              0 ****  ****    0 ROOT
