@<TRIPOS>MOLECULE
SFU
   26    25     1     0     0
SMALL
bcc


@<TRIPOS>ATOM
      1 C1          0.0930   -0.4580    1.4450 cx        1 SFU      0.067100
      2 C2          1.3730   -0.0790    0.7310 c3        1 SFU      0.205300
      3 C3          2.5330   -0.1210    1.6890 c2        1 SFU     -0.002100
      4 C4          3.1210    0.9740    2.2160 c2        1 SFU     -0.091900
      5 C5         -1.0220    0.5090    1.6560 cx        1 SFU      0.083100
      6 C6         -1.9780    0.3500    2.7880 c3        1 SFU     -0.095100
      7 O2          1.2130    1.2220    0.1830 oh        1 SFU     -0.599800
      8 O3          2.9470   -1.4120    1.9270 oh        1 SFU     -0.501100
      9 O4          4.2380    0.7960    3.0110 oh        1 SFU     -0.524100
     10 O5         -1.0850   -0.4970    0.6250 os        1 SFU     -0.416600
     11 SE         -0.9860    0.8910   -2.6720 sh        1 SFU     -0.415900
     12 H1         -0.5460    1.0220   -1.4200 hs        1 SFU      0.231800
     13 H2          0.2190   -1.3390    2.1060 h1        1 SFU      0.108700
     14 H3          1.5560   -0.8260   -0.0970 h1        1 SFU      0.079700
     15 HA          1.9670    1.3730   -0.4010 ho        1 SFU      0.416000
     16 H4          2.7830    1.9990    2.0210 h4        1 SFU      0.156000
     17 HB          3.6630   -1.3800    2.5810 ho        1 SFU      0.436000
     18 H5         -0.9220    1.5410    1.2580 h1        1 SFU      0.105700
     19 HC          4.2600    1.5400    3.6290 ho        1 SFU      0.422000
     20 H61C       -1.6260    0.9510    3.6620 hc        1 SFU      0.051033
     21 H62C       -2.0670   -0.7200    3.0960 hc        1 SFU      0.051033
     22 H63C       -2.9910    0.7140    2.4860 hc        1 SFU      0.051033
     23 HM1        -3.2250    0.2720   -2.0920 h1        1 SFU      0.064033
     24 HM2        -2.4710   -0.7770   -3.3640 h1        1 SFU      0.064033
     25 HM3        -2.0300   -0.9990   -1.6130 h1        1 SFU      0.064033
     26 CM         -2.2930   -0.2540   -2.3980 c3        1 SFU     -0.010000
@<TRIPOS>BOND
     1    1    2 1   
     2    1    5 1   
     3    1   10 1   
     4    1   13 1   
     5    2    3 1   
     6    2    7 1   
     7    2   14 1   
     8    3    4 2   
     9    3    8 1   
    10    4    9 1   
    11    4   16 1   
    12    5    6 1   
    13    5   10 1   
    14    5   18 1   
    15    6   20 1   
    16    6   21 1   
    17    6   22 1   
    18    7   15 1   
    19    8   17 1   
    20    9   19 1   
    21   11   12 1   
    22   11   26 1   
    23   23   26 1   
    24   24   26 1   
    25   25   26 1   
@<TRIPOS>SUBSTRUCTURE
     1 SFU         1 TEMP              0 ****  ****    0 ROOT
