@<TRIPOS>MOLECULE
SFU
   26    26     1     0     0
SMALL
bcc


@<TRIPOS>ATOM
      1 C1         -0.4600   -0.0530   -0.9100 c3        1 SFU      0.162200
      2 C2          1.0440   -0.0680   -0.9280 c3        1 SFU      0.139100
      3 C3          1.6250   -0.0850    0.4430 c3        1 SFU      0.080100
      4 C4          1.0630    1.0010    1.3100 c3        1 SFU      0.073100
      5 C5         -0.4420    1.0100    1.3140 c3        1 SFU      0.143100
      6 C6         -0.9340   -0.2260    2.0390 c3        1 SFU     -0.122100
      7 O2          1.5160    1.1120   -1.6230 oh        1 SFU     -0.582800
      8 O3          1.3450   -1.3710    1.0580 oh        1 SFU     -0.597800
      9 O4          1.5310    0.8070    2.6600 oh        1 SFU     -0.595800
     10 O5         -1.0100    1.0230   -0.0400 os        1 SFU     -0.414600
     11 CM         -2.6210   -0.9230   -2.9730 c3        1 SFU     -0.049000
     12 SE         -1.0960    0.2010   -2.6730 ss        1 SFU     -0.230200
     13 H1         -0.7680   -0.8870   -0.5940 h2        1 SFU      0.084700
     14 H2          1.3500   -0.8710   -1.4170 h1        1 SFU      0.108700
     15 H3          2.6160    0.0340    0.3770 h1        1 SFU      0.054700
     16 HA          2.1390    0.8910   -2.1750 ho        1 SFU      0.415000
     17 H4          1.3900    1.8800    0.9780 h1        1 SFU      0.054700
     18 HB          2.0540   -1.8700    1.0200 ho        1 SFU      0.420000
     19 H5         -0.7530    1.8050    1.7950 h1        1 SFU      0.082700
     20 HC          2.1370    1.4460    2.8640 ho        1 SFU      0.409000
     21 H61C       -0.7250   -1.0420    1.4880 hc        1 SFU      0.053367
     22 H62C       -1.8790   -0.1640    2.1720 hc        1 SFU      0.053367
     23 H63C       -0.4970   -0.2930    2.8860 hc        1 SFU      0.053367
     24 HM1        -3.3560   -0.6160   -2.4350 h1        1 SFU      0.068367
     25 HM2        -2.8700   -0.8880   -3.9120 h1        1 SFU      0.068367
     26 HM3        -2.3970   -1.8550   -2.7260 h1        1 SFU      0.068367
@<TRIPOS>BOND
     1    1    2 1   
     2    1   10 1   
     3    1   12 1   
     4    1   13 1   
     5    2    3 1   
     6    2    7 1   
     7    2   14 1   
     8    3    4 1   
     9    3    8 1   
    10    3   15 1   
    11    4    5 1   
    12    4    9 1   
    13    4   17 1   
    14    5    6 1   
    15    5   10 1   
    16    5   19 1   
    17    6   21 1   
    18    6   22 1   
    19    6   23 1   
    20    7   16 1   
    21    8   18 1   
    22    9   20 1   
    23   11   12 1   
    24   11   24 1   
    25   11   25 1   
    26   11   26 1   
@<TRIPOS>SUBSTRUCTURE
     1 SFU         1 TEMP              0 ****  ****    0 ROOT
