@<TRIPOS>MOLECULE
SFU
   26    25     1     0     0
SMALL
bcc


@<TRIPOS>ATOM
      1 C1          0.1180   -0.5190    1.3720 cx        1 SFU      0.067100
      2 C2          1.3970    0.0130    0.7620 c3        1 SFU      0.205300
      3 C3          2.5140   -0.0400    1.7690 c2        1 SFU     -0.002100
      4 C4          2.9970    1.0380    2.4240 c2        1 SFU     -0.091900
      5 C5         -1.0720    0.3450    1.6150 cx        1 SFU      0.083100
      6 C6         -2.0630    0.0140    2.6790 c3        1 SFU     -0.095100
      7 O2          1.1670    1.3460    0.3280 oh        1 SFU     -0.599800
      8 O3          3.0110   -1.3160    1.9080 oh        1 SFU     -0.501100
      9 O4          4.0880    0.8630    3.2540 oh        1 SFU     -0.524100
     10 O5         -1.0170   -0.5600    0.4940 os        1 SFU     -0.416600
     11 SE         -0.8790    1.1430   -2.6510 sh        1 SFU     -0.415900
     12 H1         -0.5030    1.1820   -1.3710 hs        1 SFU      0.231800
     13 H2          0.2800   -1.4480    1.9560 h1        1 SFU      0.108700
     14 H3          1.6700   -0.6380   -0.1210 h1        1 SFU      0.079700
     15 HA          1.9330    1.6030   -0.2010 ho        1 SFU      0.416000
     16 H4          2.5940    2.0510    2.3060 h4        1 SFU      0.156000
     17 HB          3.6930   -1.2970    2.5980 ho        1 SFU      0.436000
     18 H5         -1.0300    1.4140    1.3190 h1        1 SFU      0.105700
     19 HC          4.0280    1.5440    3.9380 ho        1 SFU      0.422000
     20 H61C       -1.7940    0.5510    3.6200 hc        1 SFU      0.051033
     21 H62C       -3.0850    0.3340    2.3600 hc        1 SFU      0.051033
     22 H63C       -2.0870   -1.0850    2.8820 hc        1 SFU      0.051033
     23 HM1        -3.0890    0.3190   -2.2410 h1        1 SFU      0.064033
     24 HM2        -2.2080   -0.5480   -3.5670 h1        1 SFU      0.064033
     25 HM3        -1.8270   -0.9070   -1.8250 h1        1 SFU      0.064033
     26 CM         -2.1100   -0.1100   -2.5480 c3        1 SFU     -0.010000
@<TRIPOS>BOND
     1    1    2 1   
     2    1    5 1   
     3    1   10 1   
     4    1   13 1   
     5    2    3 1   
     6    2    7 1   
     7    2   14 1   
     8    3    4 2   
     9    3    8 1   
    10    4    9 1   
    11    4   16 1   
    12    5    6 1   
    13    5   10 1   
    14    5   18 1   
    15    6   20 1   
    16    6   21 1   
    17    6   22 1   
    18    7   15 1   
    19    8   17 1   
    20    9   19 1   
    21   11   12 1   
    22   11   26 1   
    23   23   26 1   
    24   24   26 1   
    25   25   26 1   
@<TRIPOS>SUBSTRUCTURE
     1 SFU         1 TEMP              0 ****  ****    0 ROOT
