@<TRIPOS>MOLECULE
SFU
   26    26     1     0     0
SMALL
bcc


@<TRIPOS>ATOM
      1 C1         -0.4140    0.0630    0.2420 c3        1 SFU      0.160200
      2 C2          0.2110   -1.3310    0.3270 c3        1 SFU      0.138100
      3 C3          1.7320   -1.1760    0.5400 c3        1 SFU      0.119100
      4 C4          2.3330   -0.2430   -0.5290 c3        1 SFU      0.075100
      5 C5          1.5410    1.0620   -0.7230 c3        1 SFU      0.103100
      6 C6          1.8210    2.0840    0.3600 c3        1 SFU     -0.127100
      7 O2         -0.0160   -2.1240   -0.8180 oh        1 SFU     -0.580800
      8 O3          1.9200   -0.6790    1.8530 oh        1 SFU     -0.599800
      9 O4          3.6680    0.0080   -0.1160 oh        1 SFU     -0.600800
     10 O5          0.1460    0.7870   -0.8520 os        1 SFU     -0.408600
     11 SE         -2.1640   -0.0320   -0.0520 ss        1 SFU     -0.226200
     12 H1         -0.2080    0.6090    1.2020 h2        1 SFU      0.085700
     13 H2         -0.2330   -1.9100    1.1850 h1        1 SFU      0.109700
     14 H3          2.2240   -2.1850    0.4460 h1        1 SFU      0.066700
     15 HA          0.0730   -1.5490   -1.5910 ho        1 SFU      0.414000
     16 H4          2.3430   -0.8010   -1.5090 h1        1 SFU      0.051700
     17 HB          2.8680   -0.5140    1.9520 ho        1 SFU      0.426000
     18 H5          1.7960    1.5010   -1.7320 h1        1 SFU      0.071700
     19 HC          4.0340    0.6620   -0.7240 ho        1 SFU      0.411000
     20 H61C        2.8500    2.4940    0.2310 hc        1 SFU      0.052700
     21 H62C        1.0830    2.9190    0.2940 hc        1 SFU      0.052700
     22 H63C        1.7540    1.6170    1.3730 hc        1 SFU      0.052700
     23 HM1        -2.5040    1.9760    1.2200 h1        1 SFU      0.067700
     24 HM2        -2.1390    2.3210   -0.5170 h1        1 SFU      0.067700
     25 HM3        -3.7600    1.6510   -0.0490 h1        1 SFU      0.067700
     26 CM         -2.6680    1.6290    0.1760 c3        1 SFU     -0.051000
@<TRIPOS>BOND
     1    1    2 1   
     2    1   10 1   
     3    1   11 1   
     4    1   12 1   
     5    2    3 1   
     6    2    7 1   
     7    2   13 1   
     8    3    4 1   
     9    3    8 1   
    10    3   14 1   
    11    4    5 1   
    12    4    9 1   
    13    4   16 1   
    14    5    6 1   
    15    5   10 1   
    16    5   18 1   
    17    6   20 1   
    18    6   21 1   
    19    6   22 1   
    20    7   15 1   
    21    8   17 1   
    22    9   19 1   
    23   11   26 1   
    24   23   26 1   
    25   24   26 1   
    26   25   26 1   
@<TRIPOS>SUBSTRUCTURE
     1 SFU         1 TEMP              0 ****  ****    0 ROOT
