@<TRIPOS>MOLECULE
SFX
   41    42     1     0     0
SMALL
bcc


@<TRIPOS>ATOM
      1 F15         2.1410   -0.1900    1.4160 f         1 SFX     -0.229300
      2 C12         3.2760    0.3740    0.8850 c3        1 SFX      0.689200
      3 F13         3.9280    0.9120    1.9670 f         1 SFX     -0.229300
      4 F14         4.0490   -0.6990    0.5160 f         1 SFX     -0.229300
      5 C9          3.0010    1.3660   -0.2410 ca        1 SFX     -0.171300
      6 C8          2.8160    2.7180    0.0580 ca        1 SFX     -0.056000
      7 C7          2.5520    3.6260   -0.9650 ca        1 SFX     -0.155500
      8 C6          2.4650    3.1580   -2.2860 ca        1 SFX      0.120100
      9 C11         2.6510    1.8040   -2.5910 ca        1 SFX     -0.155500
     10 C10         2.9220    0.9080   -1.5580 ca        1 SFX     -0.056000
     11 O5          2.0750    4.0870   -3.2440 os        1 SFX     -0.372900
     12 C3          2.8970    4.1500   -4.4250 c3        1 SFX      0.212400
     13 C2          2.1330    5.0870   -5.3710 c3        1 SFX     -0.112400
     14 C1          0.7500    4.5140   -5.6470 c3        1 SFX      0.097800
     15 N4         -0.1340    5.4830   -6.3690 n4        1 SFX     -0.757000
     16 C22        -1.4780    4.9190   -6.6310 c3        1 SFX      0.078100
     17 C16         4.2600    4.7060   -4.1540 ca        1 SFX     -0.154300
     18 C17         4.4270    5.7960   -3.2930 ca        1 SFX     -0.108500
     19 C18         5.7000    6.3120   -3.0580 ca        1 SFX     -0.122500
     20 C19         6.8110    5.7430   -3.6820 ca        1 SFX     -0.099000
     21 C20         6.6480    4.6540   -4.5390 ca        1 SFX     -0.122500
     22 C21         5.3760    4.1330   -4.7740 ca        1 SFX     -0.108500
     23 H8          2.8900    3.0660    1.1010 ha        1 SFX      0.164500
     24 H7          2.4080    4.6940   -0.7500 ha        1 SFX      0.147500
     25 H11         2.5860    1.4420   -3.6260 ha        1 SFX      0.147500
     26 H10         3.0780   -0.1610   -1.7780 ha        1 SFX      0.164500
     27 H3          2.9720    3.1210   -4.8780 h1        1 SFX      0.060700
     28 H2          2.7250    5.1910   -6.3170 hc        1 SFX      0.081700
     29 H2A         2.0610    6.0950   -4.8810 hc        1 SFX      0.081700
     30 H1          0.2480    4.2480   -4.6690 hx        1 SFX      0.117700
     31 H1A         0.8300    3.5830   -6.2780 hx        1 SFX      0.117700
     32 H22        -1.3820    3.9990   -7.2700 hx        1 SFX      0.111033
     33 H22A       -2.1030    5.6850   -7.1650 hx        1 SFX      0.111033
     34 H17         3.5490    6.2280   -2.7890 ha        1 SFX      0.134000
     35 H18         5.8290    7.1650   -2.3750 ha        1 SFX      0.148500
     36 H19         7.8170    6.1500   -3.4940 ha        1 SFX      0.151000
     37 H20         7.5240    4.1990   -5.0250 ha        1 SFX      0.148500
     38 H21         5.2570    3.2670   -5.4420 ha        1 SFX      0.134000
     39 H171       -0.2240    6.3340   -5.8000 hn        1 SFX      0.453800
     40 H181       -1.9670    4.6460   -5.6570 hx        1 SFX      0.111033
     41 H42         0.3090    5.7450   -7.2580 hn        1 SFX      0.453800
@<TRIPOS>BOND
     1    1    2 1   
     2    2    3 1   
     3    2    4 1   
     4    2    5 1   
     5    5    6 ar  
     6    5   10 ar  
     7    6    7 ar  
     8    6   23 1   
     9    7    8 ar  
    10    7   24 1   
    11    8    9 ar  
    12    8   11 1   
    13    9   10 ar  
    14    9   25 1   
    15   10   26 1   
    16   11   12 1   
    17   12   13 1   
    18   12   17 1   
    19   12   27 1   
    20   13   14 1   
    21   13   28 1   
    22   13   29 1   
    23   14   15 1   
    24   14   30 1   
    25   14   31 1   
    26   15   16 1   
    27   15   39 1   
    28   15   41 1   
    29   16   32 1   
    30   16   33 1   
    31   16   40 1   
    32   17   18 ar  
    33   17   22 ar  
    34   18   19 ar  
    35   18   34 1   
    36   19   20 ar  
    37   19   35 1   
    38   20   21 ar  
    39   20   36 1   
    40   21   22 ar  
    41   21   37 1   
    42   22   38 1   
@<TRIPOS>SUBSTRUCTURE
     1 SFX         1 TEMP              0 ****  ****    0 ROOT
