@<TRIPOS>MOLECULE
SFX
   40    37     1     0     0
SMALL
bcc


@<TRIPOS>ATOM
      1 F15         0.8580   -2.4180    6.0320 f         1 SFX     -0.168333
      2 C12         0.6410   -3.1400    4.9430 c3        1 SFX      0.471000
      3 F13         1.7500   -3.7810    4.6110 f         1 SFX     -0.168333
      4 F14        -0.3320   -4.0280    5.1830 f         1 SFX     -0.168333
      5 C9          0.2270   -2.2430    3.8260 c2        1 SFX     -0.202000
      6 C8          1.1910   -1.5590    3.0870 c1        1 SFX     -0.045000
      7 C7          0.7960   -0.6120    2.1260 c1        1 SFX     -0.207000
      8 C6         -0.5570   -0.3570    1.9140 c1        1 SFX      0.115000
      9 C11        -1.5240   -1.0460    2.6590 c2        1 SFX     -0.166000
     10 C10        -1.1320   -1.9860    3.6120 c2        1 SFX     -0.052000
     11 O5         -0.9720    0.6930    0.9470 o         1 SFX     -0.210000
     12 C3         -0.5350    0.4430   -0.4170 c3        1 SFX      0.072000
     13 C2         -1.5660    0.9600   -1.3800 c3        1 SFX     -0.163000
     14 C1         -1.6130    0.0640   -2.6070 c3        1 SFX     -0.074000
     15 N4         -2.5200    0.6420   -3.5910 n3        1 SFX     -0.303000
     16 C22        -2.0530    0.3450   -4.9100 c3        1 SFX     -0.123000
     17 C16         0.7770    1.1440   -0.6640 c2        1 SFX     -0.117000
     18 C17         0.9900    2.4130   -0.1580 c2        1 SFX     -0.100000
     19 C18         2.2130    3.0500   -0.3620 c1        1 SFX     -0.128000
     20 C19         3.2150    2.4120   -1.0710 c1        1 SFX     -0.124500
     21 C20         3.0020    1.1360   -1.5800 c1        1 SFX     -0.124500
     22 C21         1.7840    0.5020   -1.3770 c1        1 SFX     -0.125000
     23 H8          2.1390   -1.7380    3.2360 ha        1 SFX      0.151000
     24 H7          1.4510   -0.1460    1.6230 ha        1 SFX      0.154000
     25 H11        -2.4770   -0.8680    2.5100 ha        1 SFX      0.157000
     26 H10        -1.7940   -2.4570    4.1200 ha        1 SFX      0.152000
     27 H3         -0.4200   -0.5190   -0.5500 h1        1 SFX      0.097000
     28 H2         -2.4250    0.9670   -0.9540 hc        1 SFX      0.106500
     29 H2A        -1.3300    1.8670   -1.6510 hc        1 SFX      0.106500
     30 H1         -1.9350   -0.8350   -2.3480 h1        1 SFX      0.071000
     31 H1A        -0.7260   -0.0080   -2.9880 h1        1 SFX      0.071000
     32 H22        -2.1950   -0.6100   -5.1020 h1        1 SFX      0.070000
     33 H22A       -1.1010    0.5540   -4.9740 h1        1 SFX      0.070000
     34 H17         0.2790    2.8660    0.3450 ha        1 SFX      0.146000
     35 H18         2.3630    3.9480   -0.0040 ha        1 SFX      0.136000
     36 H19         4.0950    2.8700   -1.2170 ha        1 SFX      0.134500
     37 H20         3.7030    0.6890   -2.0760 ha        1 SFX      0.134500
     38 H21         1.6320   -0.4050   -1.7400 ha        1 SFX      0.130000
     39 H171       -3.3420    0.2970   -3.4790 hn        1 SFX      0.154000
     40 H181       -2.5600    0.8970   -5.5740 h1        1 SFX      0.070000
@<TRIPOS>BOND
     1    1    2 1   
     2    2    3 1   
     3    2    4 1   
     4    2    5 1   
     5    5    6 1   
     6    5   10 1   
     7    6   23 1   
     8    7    8 1   
     9    7   24 1   
    10    8    9 1   
    11    9   10 1   
    12    9   25 1   
    13   10   26 1   
    14   11   12 1   
    15   12   13 1   
    16   12   17 1   
    17   12   27 1   
    18   13   14 1   
    19   13   28 1   
    20   13   29 1   
    21   14   15 1   
    22   14   30 1   
    23   14   31 1   
    24   15   16 1   
    25   15   39 1   
    26   16   32 1   
    27   16   33 1   
    28   16   40 1   
    29   17   18 1   
    30   17   22 1   
    31   18   19 1   
    32   18   34 1   
    33   19   35 1   
    34   20   21 1   
    35   20   36 1   
    36   21   37 1   
    37   22   38 1   
@<TRIPOS>SUBSTRUCTURE
     1 SFX         1 TEMP              0 ****  ****    0 ROOT
