@<TRIPOS>MOLECULE
SFX
   40    41     1     0     0
SMALL
bcc


@<TRIPOS>ATOM
      1 F15         5.2200    1.2930    0.5490 f         1 SFX     -0.238300
      2 C12         4.2080    1.8690   -0.1830 c3        1 SFX      0.690200
      3 F13         4.3180    3.2090    0.0980 f         1 SFX     -0.238300
      4 F14         4.6400    1.7630   -1.4840 f         1 SFX     -0.238300
      5 C9          2.8320    1.2750    0.0780 ca        1 SFX     -0.193300
      6 C8          2.0250    1.8140    1.0850 ca        1 SFX     -0.059500
      7 C7          0.7690    1.2710    1.3350 ca        1 SFX     -0.168000
      8 C6          0.3300    0.1750    0.5720 ca        1 SFX      0.146100
      9 C11         1.1420   -0.3720   -0.4330 ca        1 SFX     -0.168000
     10 C10         2.3930    0.1860   -0.6780 ca        1 SFX     -0.059500
     11 O5         -0.8760   -0.3900    0.9380 os        1 SFX     -0.340900
     12 C3         -1.8000   -0.6560   -0.1430 c3        1 SFX      0.192400
     13 C2         -2.3700   -2.0510    0.1110 c3        1 SFX     -0.089400
     14 C1         -1.3280   -3.1170   -0.2190 c3        1 SFX      0.158800
     15 N4         -1.8110   -4.4670   -0.0080 n3        1 SFX     -0.824200
     16 C22        -0.7860   -5.4690   -0.1330 c3        1 SFX      0.151100
     17 C16        -2.8870    0.3790   -0.1210 ca        1 SFX     -0.115300
     18 C17        -3.4220    0.8260    1.0910 ca        1 SFX     -0.110000
     19 C18        -4.4430    1.7750    1.0980 ca        1 SFX     -0.132000
     20 C19        -4.9360    2.2800   -0.1050 ca        1 SFX     -0.121000
     21 C20        -4.4040    1.8370   -1.3160 ca        1 SFX     -0.132000
     22 C21        -3.3800    0.8910   -1.3260 ca        1 SFX     -0.110000
     23 H8          2.3830    2.6750    1.6720 ha        1 SFX      0.153000
     24 H7          0.1210    1.6800    2.1230 ha        1 SFX      0.153000
     25 H11         0.7990   -1.2420   -1.0120 ha        1 SFX      0.153000
     26 H10         3.0410   -0.2300   -1.4670 ha        1 SFX      0.153000
     27 H3         -1.2680   -0.6290   -1.1340 h1        1 SFX      0.061700
     28 H2         -2.6810   -2.1260    1.1860 hc        1 SFX      0.067200
     29 H2A        -3.2820   -2.1850   -0.5260 hc        1 SFX      0.067200
     30 H1         -1.0460   -3.0310   -1.3080 h1        1 SFX      0.031200
     31 H1A        -0.3960   -2.8930    0.3830 h1        1 SFX      0.031200
     32 H22         0.0680   -5.3390    0.5890 h1        1 SFX      0.030367
     33 H22A       -1.2490   -6.4760    0.0400 h1        1 SFX      0.030367
     34 H17        -3.0230    0.4260    2.0360 ha        1 SFX      0.138000
     35 H18        -4.8590    2.1250    2.0540 ha        1 SFX      0.134000
     36 H19        -5.7420    3.0280   -0.0990 ha        1 SFX      0.133000
     37 H20        -4.7900    2.2350   -2.2660 ha        1 SFX      0.134000
     38 H21        -2.9620    0.5470   -2.2840 ha        1 SFX      0.138000
     39 H171       -2.2720   -4.5390    0.8800 hn        1 SFX      0.359800
     40 H181       -0.3690   -5.4390   -1.1730 h1        1 SFX      0.030367
@<TRIPOS>BOND
     1    1    2 1   
     2    2    3 1   
     3    2    4 1   
     4    2    5 1   
     5    5    6 ar  
     6    5   10 ar  
     7    6    7 ar  
     8    6   23 1   
     9    7    8 ar  
    10    7   24 1   
    11    8    9 ar  
    12    8   11 1   
    13    9   10 ar  
    14    9   25 1   
    15   10   26 1   
    16   11   12 1   
    17   12   13 1   
    18   12   17 1   
    19   12   27 1   
    20   13   14 1   
    21   13   28 1   
    22   13   29 1   
    23   14   15 1   
    24   14   30 1   
    25   14   31 1   
    26   15   16 1   
    27   15   39 1   
    28   16   32 1   
    29   16   33 1   
    30   16   40 1   
    31   17   18 ar  
    32   17   22 ar  
    33   18   19 ar  
    34   18   34 1   
    35   19   20 ar  
    36   19   35 1   
    37   20   21 ar  
    38   20   36 1   
    39   21   22 ar  
    40   21   37 1   
    41   22   38 1   
@<TRIPOS>SUBSTRUCTURE
     1 SFX         1 TEMP              0 ****  ****    0 ROOT
