@<TRIPOS>MOLECULE
SFX
   41    42     1     0     0
SMALL
bcc


@<TRIPOS>ATOM
      1 F15         2.1600   -0.1780    1.4280 f         1 SFX     -0.229300
      2 C12         3.2930    0.3850    0.8920 c3        1 SFX      0.689200
      3 F13         3.9480    0.9260    1.9700 f         1 SFX     -0.229300
      4 F14         4.0650   -0.6890    0.5230 f         1 SFX     -0.229300
      5 C9          3.0130    1.3740   -0.2360 ca        1 SFX     -0.171300
      6 C8          2.8280    2.7270    0.0600 ca        1 SFX     -0.056000
      7 C7          2.5600    3.6310   -0.9640 ca        1 SFX     -0.155500
      8 C6          2.4690    3.1600   -2.2830 ca        1 SFX      0.120100
      9 C11         2.6550    1.8060   -2.5860 ca        1 SFX     -0.155500
     10 C10         2.9310    0.9130   -1.5520 ca        1 SFX     -0.056000
     11 O5          2.0750    4.0860   -3.2430 os        1 SFX     -0.372900
     12 C3          2.8960    4.1480   -4.4250 c3        1 SFX      0.212400
     13 C2          2.1260    5.0800   -5.3730 c3        1 SFX     -0.112400
     14 C1          0.7460    4.5010   -5.6460 c3        1 SFX      0.097800
     15 N4         -0.1440    5.4640   -6.3700 ny        1 SFX     -0.757000
     16 C22        -1.4850    4.8940   -6.6280 c3        1 SFX      0.078100
     17 C16         4.2560    4.7110   -4.1580 ca        1 SFX     -0.154300
     18 C17         4.4200    5.8040   -3.3010 ca        1 SFX     -0.108500
     19 C18         5.6910    6.3260   -3.0680 ca        1 SFX     -0.122500
     20 C19         6.8040    5.7590   -3.6920 ca        1 SFX     -0.099000
     21 C20         6.6440    4.6660   -4.5450 ca        1 SFX     -0.122500
     22 C21         5.3740    4.1400   -4.7770 ca        1 SFX     -0.108500
     23 H8          2.9050    3.0770    1.1030 ha        1 SFX      0.164500
     24 H7          2.4150    4.7000   -0.7510 ha        1 SFX      0.147500
     25 H11         2.5880    1.4410   -3.6190 ha        1 SFX      0.147500
     26 H10         3.0870   -0.1570   -1.7700 ha        1 SFX      0.164500
     27 H3          2.9740    3.1190   -4.8750 h1        1 SFX      0.060700
     28 H2          2.7170    5.1830   -6.3200 hc        1 SFX      0.081700
     29 H2A         2.0510    6.0890   -4.8850 hc        1 SFX      0.081700
     30 H1          0.8280    3.5690   -6.2740 hx        1 SFX      0.117700
     31 H1A         0.2460    4.2360   -4.6660 hx        1 SFX      0.117700
     32 H22        -1.9720    4.6220   -5.6530 hx        1 SFX      0.111033
     33 H22A       -2.1140    5.6560   -7.1640 hx        1 SFX      0.111033
     34 H17         3.5420    6.2350   -2.7960 ha        1 SFX      0.134000
     35 H18         5.8180    7.1820   -2.3880 ha        1 SFX      0.148500
     36 H19         7.8090    6.1700   -3.5060 ha        1 SFX      0.151000
     37 H20         7.5220    4.2140   -5.0300 ha        1 SFX      0.148500
     38 H21         5.2570    3.2710   -5.4420 ha        1 SFX      0.134000
     39 H171        0.2980    5.7250   -7.2590 hn        1 SFX      0.453800
     40 H181       -1.3860    3.9730   -7.2640 hx        1 SFX      0.111033
     41 H42        -0.2360    6.3170   -5.8030 hn        1 SFX      0.453800
@<TRIPOS>BOND
     1    1    2 1   
     2    2    3 1   
     3    2    4 1   
     4    2    5 1   
     5    5    6 ar  
     6    5   10 ar  
     7    6    7 ar  
     8    6   23 1   
     9    7    8 ar  
    10    7   24 1   
    11    8    9 ar  
    12    8   11 1   
    13    9   10 ar  
    14    9   25 1   
    15   10   26 1   
    16   11   12 1   
    17   12   13 1   
    18   12   17 1   
    19   12   27 1   
    20   13   14 1   
    21   13   28 1   
    22   13   29 1   
    23   14   15 1   
    24   14   30 1   
    25   14   31 1   
    26   15   16 1   
    27   15   39 1   
    28   15   41 1   
    29   16   32 1   
    30   16   33 1   
    31   16   40 1   
    32   17   18 ar  
    33   17   22 ar  
    34   18   19 ar  
    35   18   34 1   
    36   19   20 ar  
    37   19   35 1   
    38   20   21 ar  
    39   20   36 1   
    40   21   22 ar  
    41   21   37 1   
    42   22   38 1   
@<TRIPOS>SUBSTRUCTURE
     1 SFX         1 TEMP              0 ****  ****    0 ROOT
