@<TRIPOS>MOLECULE
SFX
   41    42     1     0     0
SMALL
bcc


@<TRIPOS>ATOM
      1 F15         2.1090   -0.1360    1.4560 f         1 SFX     -0.229300
      2 C12         3.2480    0.4150    0.9210 c3        1 SFX      0.689200
      3 F13         3.9020    0.9600    1.9980 f         1 SFX     -0.229300
      4 F14         4.0150   -0.6660    0.5640 f         1 SFX     -0.229300
      5 C9          2.9810    1.3970   -0.2160 ca        1 SFX     -0.171300
      6 C8          2.8050    2.7540    0.0690 ca        1 SFX     -0.056000
      7 C7          2.5480    3.6530   -0.9640 ca        1 SFX     -0.155500
      8 C6          2.4590    3.1720   -2.2790 ca        1 SFX      0.120100
      9 C11         2.6350    1.8140   -2.5700 ca        1 SFX     -0.155500
     10 C10         2.9000    0.9270   -1.5280 ca        1 SFX     -0.056000
     11 O5          2.0760    4.0940   -3.2480 os        1 SFX     -0.372900
     12 C3          2.9010    4.1400   -4.4270 c3        1 SFX      0.212400
     13 C2          2.1430    5.0710   -5.3850 c3        1 SFX     -0.112400
     14 C1          0.7590    4.5010   -5.6590 c3        1 SFX      0.097800
     15 N4         -0.1200    5.4660   -6.3920 n4        1 SFX     -0.757000
     16 C22        -1.4650    4.9060   -6.6520 c3        1 SFX      0.078100
     17 C16         4.2660    4.6920   -4.1590 ca        1 SFX     -0.154300
     18 C17         4.4360    5.7910   -3.3100 ca        1 SFX     -0.108500
     19 C18         5.7110    6.3030   -3.0770 ca        1 SFX     -0.122500
     20 C19         6.8210    5.7220   -3.6920 ca        1 SFX     -0.099000
     21 C20         6.6540    4.6240   -4.5370 ca        1 SFX     -0.122500
     22 C21         5.3810    4.1070   -4.7700 ca        1 SFX     -0.108500
     23 H8          2.8810    3.1120    1.1090 ha        1 SFX      0.164500
     24 H7          2.4110    4.7240   -0.7590 ha        1 SFX      0.147500
     25 H11         2.5680    1.4410   -3.6010 ha        1 SFX      0.147500
     26 H10         3.0480   -0.1460   -1.7370 ha        1 SFX      0.164500
     27 H3          2.9720    3.1060   -4.8690 h1        1 SFX      0.060700
     28 H2          2.7380    5.1620   -6.3300 hc        1 SFX      0.081700
     29 H2A         2.0750    6.0840   -4.9050 hc        1 SFX      0.081700
     30 H1          0.2540    4.2470   -4.6790 hx        1 SFX      0.117700
     31 H1A         0.8360    3.5640   -6.2800 hx        1 SFX      0.117700
     32 H22        -1.9580    4.6440   -5.6760 hx        1 SFX      0.111033
     33 H22A       -2.0860    5.6700   -7.1940 hx        1 SFX      0.111033
     34 H17         3.5590    6.2330   -2.8120 ha        1 SFX      0.134000
     35 H18         5.8420    7.1640   -2.4030 ha        1 SFX      0.148500
     36 H19         7.8280    6.1260   -3.5050 ha        1 SFX      0.151000
     37 H20         7.5300    4.1600   -5.0160 ha        1 SFX      0.148500
     38 H21         5.2590    3.2340   -5.4290 ha        1 SFX      0.134000
     39 H171        0.3270    5.7180   -7.2820 hn        1 SFX      0.453800
     40 H181       -1.3720    3.9800   -7.2810 hx        1 SFX      0.111033
     41 H42        -0.2070    6.3240   -5.8320 hn        1 SFX      0.453800
@<TRIPOS>BOND
     1    1    2 1   
     2    2    3 1   
     3    2    4 1   
     4    2    5 1   
     5    5    6 ar  
     6    5   10 ar  
     7    6    7 ar  
     8    6   23 1   
     9    7    8 ar  
    10    7   24 1   
    11    8    9 ar  
    12    8   11 1   
    13    9   10 ar  
    14    9   25 1   
    15   10   26 1   
    16   11   12 1   
    17   12   13 1   
    18   12   17 1   
    19   12   27 1   
    20   13   14 1   
    21   13   28 1   
    22   13   29 1   
    23   14   15 1   
    24   14   30 1   
    25   14   31 1   
    26   15   16 1   
    27   15   39 1   
    28   15   41 1   
    29   16   32 1   
    30   16   33 1   
    31   16   40 1   
    32   17   18 ar  
    33   17   22 ar  
    34   18   19 ar  
    35   18   34 1   
    36   19   20 ar  
    37   19   35 1   
    38   20   21 ar  
    39   20   36 1   
    40   21   22 ar  
    41   21   37 1   
    42   22   38 1   
@<TRIPOS>SUBSTRUCTURE
     1 SFX         1 TEMP              0 ****  ****    0 ROOT
