@<TRIPOS>MOLECULE
SFY
   28    29     1     0     0
SMALL
bcc


@<TRIPOS>ATOM
      1 OAB         0.0320   -0.1380    0.2200 o         1 SFY     -0.652300
      2 SAQ         1.4150   -0.1010   -0.0110 sy        1 SFY      1.534200
      3 OAC         2.2310    0.0270    1.1400 o         1 SFY     -0.652300
      4 CAP         1.8980   -1.4260   -0.8830 ca        1 SFY     -0.467500
      5 CAJ         3.2270   -1.8760   -0.8350 ca        1 SFY      0.049500
      6 CAH         3.6440   -2.9970   -1.5260 ca        1 SFY     -0.247500
      7 CAN         2.7160   -3.7390   -2.3090 ca        1 SFY      0.251600
      8 NAA         3.1020   -4.8860   -2.9610 nv        1 SFY     -0.860200
      9 CAI         1.3690   -3.2890   -2.3580 ca        1 SFY     -0.247500
     10 CAK         0.9850   -2.1620   -1.6550 ca        1 SFY      0.049500
     11 NAM         1.8370    1.1940   -0.9520 nu        1 SFY     -0.858800
     12 CAO         1.2970    1.5610   -2.1880 ca        1 SFY      0.678200
     13 CAG         1.6990    2.7780   -2.8160 ca        1 SFY     -0.290300
     14 CAE         1.1330    3.1180   -4.0400 ca        1 SFY     -0.058000
     15 CAD         0.1930    2.2690   -4.6250 ca        1 SFY     -0.287300
     16 CAF        -0.1430    1.0870   -3.9430 ca        1 SFY      0.440200
     17 NAL         0.3800    0.7190   -2.7640 nb        1 SFY     -0.728000
     18 H1          3.9540   -1.3240   -0.2120 ha        1 SFY      0.155500
     19 H2          4.6920   -3.3220   -1.4600 ha        1 SFY      0.138000
     20 H3          4.0670   -5.0820   -3.0480 hn        1 SFY      0.425300
     21 H4          2.4870   -5.2860   -3.6250 hn        1 SFY      0.425300
     22 H5          0.6230   -3.8420   -2.9480 ha        1 SFY      0.138000
     23 H6         -0.0700   -1.8280   -1.6920 ha        1 SFY      0.155500
     24 H7          2.5370    1.8230   -0.6250 hn        1 SFY      0.455800
     25 H8          2.4370    3.4370   -2.3400 ha        1 SFY      0.144000
     26 H9          1.4260    4.0540   -4.5400 ha        1 SFY      0.139000
     27 H10        -0.2750    2.5100   -5.5870 ha        1 SFY      0.146000
     28 H11        -0.8830    0.3810   -4.3630 h4        1 SFY      0.023100
@<TRIPOS>BOND
     1    1    2 2   
     2    2    3 2   
     3    2    4 1   
     4    2   11 1   
     5    4    5 ar  
     6    4   10 ar  
     7    5    6 ar  
     8    5   18 1   
     9    6    7 ar  
    10    6   19 1   
    11    7    8 1   
    12    7    9 ar  
    13    8   20 1   
    14    8   21 1   
    15    9   10 ar  
    16    9   22 1   
    17   10   23 1   
    18   11   12 1   
    19   11   24 1   
    20   12   13 ar  
    21   12   17 ar  
    22   13   14 ar  
    23   13   25 1   
    24   14   15 ar  
    25   14   26 1   
    26   15   16 ar  
    27   15   27 1   
    28   16   17 ar  
    29   16   28 1   
@<TRIPOS>SUBSTRUCTURE
     1 SFY         1 TEMP              0 ****  ****    0 ROOT
