@<TRIPOS>MOLECULE
SFY
   28    29     1     0     0
SMALL
bcc


@<TRIPOS>ATOM
      1 OAB         0.0380   -0.1290    0.2230 o         1 SFY     -0.652300
      2 SAQ         1.4210   -0.0960   -0.0120 sy        1 SFY      1.534200
      3 OAC         2.2400    0.0320    1.1380 o         1 SFY     -0.652300
      4 CAP         1.8980   -1.4240   -0.8820 ca        1 SFY     -0.467500
      5 CAJ         3.2260   -1.8780   -0.8360 ca        1 SFY      0.049500
      6 CAH         3.6380   -3.0010   -1.5260 ca        1 SFY     -0.247500
      7 CAN         2.7070   -3.7410   -2.3060 ca        1 SFY      0.251600
      8 NAA         3.0880   -4.8900   -2.9570 nh        1 SFY     -0.860200
      9 CAI         1.3610   -3.2880   -2.3520 ca        1 SFY     -0.247500
     10 CAK         0.9820   -2.1590   -1.6500 ca        1 SFY      0.049500
     11 NAM         1.8450    1.1960   -0.9550 nh        1 SFY     -0.858800
     12 CAO         1.3030    1.5620   -2.1910 ca        1 SFY      0.678200
     13 CAG         1.7070    2.7770   -2.8220 ca        1 SFY     -0.290300
     14 CAE         1.1390    3.1160   -4.0450 ca        1 SFY     -0.058000
     15 CAD         0.1960    2.2680   -4.6270 ca        1 SFY     -0.287300
     16 CAF        -0.1420    1.0890   -3.9420 ca        1 SFY      0.440200
     17 NAL         0.3820    0.7210   -2.7630 nb        1 SFY     -0.728000
     18 H1          3.9560   -1.3260   -0.2150 ha        1 SFY      0.155500
     19 H2          4.6860   -3.3280   -1.4620 ha        1 SFY      0.138000
     20 H3          2.4710   -5.2900   -3.6190 hn        1 SFY      0.425300
     21 H4          4.0530   -5.0890   -3.0460 hn        1 SFY      0.425300
     22 H5          0.6130   -3.8400   -2.9400 ha        1 SFY      0.138000
     23 H6         -0.0720   -1.8230   -1.6870 ha        1 SFY      0.155500
     24 H7          2.5460    1.8240   -0.6310 hn        1 SFY      0.455800
     25 H8          2.4480    3.4350   -2.3480 ha        1 SFY      0.144000
     26 H9          1.4340    4.0500   -4.5470 ha        1 SFY      0.139000
     27 H10        -0.2740    2.5090   -5.5880 ha        1 SFY      0.146000
     28 H11        -0.8850    0.3850   -4.3590 h4        1 SFY      0.023100
@<TRIPOS>BOND
     1    1    2 2   
     2    2    3 2   
     3    2    4 1   
     4    2   11 1   
     5    4    5 ar  
     6    4   10 ar  
     7    5    6 ar  
     8    5   18 1   
     9    6    7 ar  
    10    6   19 1   
    11    7    8 1   
    12    7    9 ar  
    13    8   20 1   
    14    8   21 1   
    15    9   10 ar  
    16    9   22 1   
    17   10   23 1   
    18   11   12 1   
    19   11   24 1   
    20   12   13 ar  
    21   12   17 ar  
    22   13   14 ar  
    23   13   25 1   
    24   14   15 ar  
    25   14   26 1   
    26   15   16 ar  
    27   15   27 1   
    28   16   17 ar  
    29   16   28 1   
@<TRIPOS>SUBSTRUCTURE
     1 SFY         1 TEMP              0 ****  ****    0 ROOT
