@<TRIPOS>MOLECULE
SFY
   30    31     1     0     0
SMALL
bcc


@<TRIPOS>ATOM
      1 OAB         0.1260    0.1500   -0.5880 o         1 SFY     -0.531800
      2 SAQ         1.4650   -0.0740   -0.4100 sy        1 SFY      1.451200
      3 OAC         2.1190    0.1670    0.7820 o         1 SFY     -0.531800
      4 CAP         1.9850   -1.4940   -1.0970 ca        1 SFY     -0.421500
      5 CAJ         3.1170   -2.1540   -0.5870 ca        1 SFY      0.034000
      6 CAH         3.4950   -3.4120   -1.0500 ca        1 SFY     -0.122500
      7 CAN         2.7200   -4.0300   -2.0490 ca        1 SFY      0.042600
      8 NAA         3.0850   -5.3720   -2.5160 n4        1 SFY     -0.722000
      9 CAI         1.5950   -3.3880   -2.5860 ca        1 SFY     -0.122500
     10 CAK         1.2380   -2.1270   -2.1020 ca        1 SFY      0.034000
     11 NAM         2.3690    1.1670   -1.5020 n4        1 SFY     -0.687600
     12 CAO         1.4920    1.7810   -2.5110 ca        1 SFY      0.433200
     13 CAG         1.3410    3.1790   -2.5650 ca        1 SFY     -0.174300
     14 CAE         0.4790    3.7030   -3.5430 ca        1 SFY     -0.058000
     15 CAD        -0.1760    2.8370   -4.4100 ca        1 SFY     -0.169300
     16 CAF         0.0490    1.4440   -4.2770 ca        1 SFY      0.444200
     17 NAL         0.8610    0.9090   -3.3590 nb        1 SFY     -0.708000
     18 H1          3.7140   -1.6850    0.2250 ha        1 SFY      0.206500
     19 H2          4.3860   -3.9000   -0.6150 ha        1 SFY      0.191500
     20 H3          4.1080   -5.4870   -2.5090 hn        1 SFY      0.484467
     21 H4          2.6660   -6.0780   -1.8910 hn        1 SFY      0.484467
     22 H5          0.9740   -3.8530   -3.3740 ha        1 SFY      0.191500
     23 H6          0.3320   -1.6340   -2.5160 ha        1 SFY      0.206500
     24 H7          3.1620    0.7410   -1.9860 hn        1 SFY      0.467300
     25 H8          1.8670    3.8580   -1.8750 ha        1 SFY      0.177000
     26 H9          0.3320    4.7960   -3.6110 ha        1 SFY      0.194000
     27 H10        -0.8610    3.2120   -5.1900 ha        1 SFY      0.196000
     28 H11        -0.4580    0.7220   -4.9490 h4        1 SFY      0.060100
     29 HAA3        2.7360   -5.5260   -3.4720 hn        1 SFY      0.484467
     30 HAM2        2.7500    1.9210   -0.9190 hn        1 SFY      0.467300
@<TRIPOS>BOND
     1    1    2 2   
     2    2    3 2   
     3    2    4 1   
     4    2   11 1   
     5    4    5 ar  
     6    4   10 ar  
     7    5    6 ar  
     8    5   18 1   
     9    6    7 ar  
    10    6   19 1   
    11    7    8 1   
    12    7    9 ar  
    13    8   20 1   
    14    8   21 1   
    15    8   29 1   
    16    9   10 ar  
    17    9   22 1   
    18   10   23 1   
    19   11   12 1   
    20   11   24 1   
    21   11   30 1   
    22   12   13 ar  
    23   12   17 ar  
    24   13   14 ar  
    25   13   25 1   
    26   14   15 ar  
    27   14   26 1   
    28   15   16 ar  
    29   15   27 1   
    30   16   17 ar  
    31   16   28 1   
@<TRIPOS>SUBSTRUCTURE
     1 SFY         1 TEMP              0 ****  ****    0 ROOT
