@<TRIPOS>MOLECULE
SFY
   28    29     1     0     0
SMALL
bcc


@<TRIPOS>ATOM
      1 OAB         0.4050    1.7900   -1.6910 o         1 SFY     -0.652300
      2 SAQ         0.0320    1.7040   -0.3410 sy        1 SFY      1.534200
      3 OAC        -0.3410    2.9240    0.2750 o         1 SFY     -0.652300
      4 CAP        -1.1880    0.5970   -0.1430 ca        1 SFY     -0.463500
      5 CAJ        -2.0530    0.6650    0.9610 ca        1 SFY      0.048000
      6 CAH        -3.0980   -0.2230    1.1250 ca        1 SFY     -0.244500
      7 CAN        -3.3210   -1.2480    0.1650 ca        1 SFY      0.243600
      8 NAA        -4.3170   -2.1830    0.3480 nh        1 SFY     -0.852200
      9 CAI        -2.4570   -1.3130   -0.9600 ca        1 SFY     -0.244500
     10 CAK        -1.4190   -0.4090   -1.0950 ca        1 SFY      0.048000
     11 NAM         1.2690    1.1360    0.5970 nh        1 SFY     -0.859800
     12 CAO         2.0220   -0.0260    0.4020 ca        1 SFY      0.677200
     13 CAG         3.1320   -0.3150    1.2510 ca        1 SFY     -0.290300
     14 CAE         3.8650   -1.4750    1.0200 ca        1 SFY     -0.058000
     15 CAD         3.5030   -2.3240   -0.0260 ca        1 SFY     -0.286300
     16 CAF         2.3940   -1.9660   -0.8110 ca        1 SFY      0.441200
     17 NAL         1.6570   -0.8620   -0.6240 nb        1 SFY     -0.728000
     18 H1         -1.9010    1.4670    1.7060 ha        1 SFY      0.156000
     19 H2         -3.7560   -0.1370    2.0020 ha        1 SFY      0.138000
     20 H3         -5.0200   -1.9880    1.0190 hn        1 SFY      0.420800
     21 H4         -4.5740   -2.7460   -0.4240 hn        1 SFY      0.420800
     22 H5         -2.6070   -2.0870   -1.7270 ha        1 SFY      0.138000
     23 H6         -0.7550   -0.4690   -1.9780 ha        1 SFY      0.156000
     24 H7          1.5560    1.6620    1.3930 hn        1 SFY      0.455800
     25 H8          3.4050    0.3650    2.0680 ha        1 SFY      0.144000
     26 H9          4.7260   -1.7160    1.6620 ha        1 SFY      0.139000
     27 H10         4.0620   -3.2430   -0.2360 ha        1 SFY      0.146000
     28 H11         2.0670   -2.6050   -1.6530 h4        1 SFY      0.023100
@<TRIPOS>BOND
     1    1    2 2   
     2    2    3 2   
     3    2    4 1   
     4    2   11 1   
     5    4    5 ar  
     6    4   10 ar  
     7    5    6 ar  
     8    5   18 1   
     9    6    7 ar  
    10    6   19 1   
    11    7    8 1   
    12    7    9 ar  
    13    8   20 1   
    14    8   21 1   
    15    9   10 ar  
    16    9   22 1   
    17   10   23 1   
    18   11   12 1   
    19   11   24 1   
    20   12   13 ar  
    21   12   17 ar  
    22   13   14 ar  
    23   13   25 1   
    24   14   15 ar  
    25   14   26 1   
    26   15   16 ar  
    27   15   27 1   
    28   16   17 ar  
    29   16   28 1   
@<TRIPOS>SUBSTRUCTURE
     1 SFY         1 TEMP              0 ****  ****    0 ROOT
