@<TRIPOS>MOLECULE
SG1
   31    32     1     0     0
SMALL
bcc


@<TRIPOS>ATOM
      1 S1          0.0750   -0.2090   -0.2160 sy        1 SG1      1.510200
      2 C2          1.6570   -0.1950   -0.2010 ca        1 SG1     -0.639500
      3 C3          2.3900   -0.6830    0.9180 ca        1 SG1      0.055000
      4 C4          3.7550   -0.6860    0.9500 ca        1 SG1     -0.224000
      5 C5          4.5410   -0.1480   -0.1340 ca        1 SG1      0.282600
      6 N6          5.8810    0.0170    0.0210 n         1 SG1     -0.366000
      7 C7          6.7560    0.9740   -0.6260 c         1 SG1      0.728500
      8 O8          6.3320    1.9580   -1.2210 o         1 SG1     -0.529500
      9 C9          8.1930    0.6060   -0.3290 c3        1 SG1     -0.146400
     10 C10         8.1460   -0.5360    0.6780 c3        1 SG1     -0.093400
     11 C11         6.6550   -0.8000    0.9630 c3        1 SG1      0.069000
     12 C12         3.8000    0.1860   -1.3260 ca        1 SG1     -0.261200
     13 N13         4.4760    0.4570   -2.6320 no        1 SG1      0.337200
     14 O14         3.8590    1.0660   -3.4590 o         1 SG1     -0.177000
     15 O15         5.5750    0.0210   -2.8180 o         1 SG1     -0.177000
     16 C16         2.4130    0.1900   -1.3280 ca        1 SG1      0.103000
     17 N17        -0.2170    1.6370    0.2910 n4        1 SG1     -0.785500
     18 O18        -0.5200   -0.8350    0.8590 o         1 SG1     -0.570800
     19 O19        -0.5130   -0.1840   -1.4620 o         1 SG1     -0.570800
     20 H31         1.8250   -1.0770    1.7880 ha        1 SG1      0.176000
     21 H41         4.2710   -1.0890    1.8390 ha        1 SG1      0.177000
     22 H91         8.6880    0.3020   -1.2890 hc        1 SG1      0.114200
     23 H92         8.7260    1.5050    0.0730 hc        1 SG1      0.114200
     24 H101        8.6750   -0.2650    1.6250 hc        1 SG1      0.084200
     25 H102        8.6290   -1.4560    0.2640 hc        1 SG1      0.084200
     26 H111        6.3990   -0.5030    2.0180 h1        1 SG1      0.074200
     27 H112        6.4020   -1.8850    0.8160 h1        1 SG1      0.074200
     28 H161        1.8750    0.4750   -2.2610 ha        1 SG1      0.197000
     29 H171       -0.7480    2.1190   -0.4320 hn        1 SG1      0.453133
     30 H172       -0.7530    1.6850    1.1550 hn        1 SG1      0.453133
     31 H173        0.6510    2.1420    0.4320 hn        1 SG1      0.453133
@<TRIPOS>BOND
     1    1    2 1   
     2    1   17 1   
     3    1   18 2   
     4    1   19 2   
     5    2    3 ar  
     6    2   16 ar  
     7    3    4 ar  
     8    3   20 1   
     9    4    5 ar  
    10    4   21 1   
    11    5    6 1   
    12    5   12 ar  
    13    6    7 1   
    14    6   11 1   
    15    7    8 2   
    16    7    9 1   
    17    9   10 1   
    18    9   22 1   
    19    9   23 1   
    20   10   11 1   
    21   10   24 1   
    22   10   25 1   
    23   11   26 1   
    24   11   27 1   
    25   12   13 1   
    26   12   16 ar  
    27   13   14 1   
    28   13   15 1   
    29   16   28 1   
    30   17   29 1   
    31   17   30 1   
    32   17   31 1   
@<TRIPOS>SUBSTRUCTURE
     1 SG1         1 TEMP              0 ****  ****    0 ROOT
