@<TRIPOS>MOLECULE
SG1
   30    31     1     0     0
SMALL
bcc


@<TRIPOS>ATOM
      1 S1         -3.5980    0.3780    0.0530 sy        1 SG1      1.531200
      2 C2         -1.8990    0.3830    0.0560 ca        1 SG1     -0.401500
      3 C3         -1.1870    1.5430   -0.2780 ca        1 SG1      0.025000
      4 C4          0.1960    1.5680   -0.2750 ca        1 SG1     -0.187000
      5 C5          0.9620    0.4210    0.0710 ca        1 SG1      0.194600
      6 N6          2.3540    0.4600   -0.0100 n         1 SG1     -0.399000
      7 C7          3.0610    1.3880   -0.8230 c         1 SG1      0.701500
      8 O8          2.5720    1.9990   -1.7780 o         1 SG1     -0.585500
      9 C9          4.5070    1.4790   -0.3620 c3        1 SG1     -0.157400
     10 C10         4.5840    0.6570    0.9160 c3        1 SG1     -0.097400
     11 C11         3.2480   -0.1100    0.9970 c3        1 SG1      0.077000
     12 C12         0.2240   -0.7430    0.4330 ca        1 SG1     -0.223200
     13 N13         0.8870   -2.0190    0.8220 no        1 SG1      0.314200
     14 O14         0.6920   -2.9930    0.1490 o         1 SG1     -0.200500
     15 O15         1.5660   -2.0530    1.8130 o         1 SG1     -0.200500
     16 C16        -1.1780   -0.7510    0.4130 ca        1 SG1      0.049000
     17 N17        -3.9590   -0.1140   -1.4220 n3        1 SG1     -1.027700
     18 O18        -4.0300    1.7090    0.2240 o         1 SG1     -0.653300
     19 O19        -4.0230   -0.5860    0.9880 o         1 SG1     -0.653300
     20 H31        -1.7450    2.4650   -0.5300 ha        1 SG1      0.167000
     21 H41         0.7130    2.5000   -0.5640 ha        1 SG1      0.174000
     22 H91         4.7700    2.5530   -0.1960 hc        1 SG1      0.090700
     23 H92         5.1720    1.0720   -1.1650 hc        1 SG1      0.090700
     24 H101        4.7090    1.3160    1.8100 hc        1 SG1      0.066700
     25 H102        5.4390   -0.0610    0.8930 hc        1 SG1      0.066700
     26 H111        2.7930   -0.0400    2.0210 h1        1 SG1      0.078700
     27 H112        3.4350   -1.1930    0.7540 h1        1 SG1      0.078700
     28 H161       -1.7260   -1.6710    0.6970 ha        1 SG1      0.177000
     29 H171       -4.0880   -1.0640   -1.6680 hn        1 SG1      0.452300
     30 H172       -4.0970    0.4980   -2.1870 hn        1 SG1      0.452300
@<TRIPOS>BOND
     1    1    2 1   
     2    1   17 1   
     3    1   18 2   
     4    1   19 2   
     5    2    3 ar  
     6    2   16 ar  
     7    3    4 ar  
     8    3   20 1   
     9    4    5 ar  
    10    4   21 1   
    11    5    6 1   
    12    5   12 ar  
    13    6    7 1   
    14    6   11 1   
    15    7    8 2   
    16    7    9 1   
    17    9   10 1   
    18    9   22 1   
    19    9   23 1   
    20   10   11 1   
    21   10   24 1   
    22   10   25 1   
    23   11   26 1   
    24   11   27 1   
    25   12   13 1   
    26   12   16 ar  
    27   13   14 1   
    28   13   15 1   
    29   16   28 1   
    30   17   29 1   
    31   17   30 1   
@<TRIPOS>SUBSTRUCTURE
     1 SG1         1 TEMP              0 ****  ****    0 ROOT
