@<TRIPOS>MOLECULE
SG1
   30    31     1     0     0
SMALL
bcc


@<TRIPOS>ATOM
      1 S1          0.0210    0.0350    0.1890 sy        1 SG1      1.531200
      2 C2          1.7160    0.0670    0.0830 ca        1 SG1     -0.401500
      3 C3          2.4940    0.4680    1.1780 ca        1 SG1      0.025000
      4 C4          3.8740    0.4940    1.1130 ca        1 SG1     -0.187000
      5 C5          4.5730    0.1120   -0.0660 ca        1 SG1      0.194600
      6 N6          5.9620    0.2220   -0.1220 n         1 SG1     -0.399000
      7 C7          6.7080    1.0910    0.7210 c         1 SG1      0.701500
      8 O8          6.2380    2.0630    1.3200 o         1 SG1     -0.585500
      9 C9          8.1680    0.6650    0.7380 c3        1 SG1     -0.157400
     10 C10         8.2210   -0.6480   -0.0300 c3        1 SG1     -0.097400
     11 C11         6.8410   -0.7910   -0.7040 c3        1 SG1      0.077000
     12 C12         3.7700   -0.3180   -1.1620 ca        1 SG1     -0.223200
     13 N13         4.3580   -0.7520   -2.4610 no        1 SG1      0.314200
     14 O14         4.0850   -0.1280   -3.4480 o         1 SG1     -0.200500
     15 O15         5.0560   -1.7300   -2.4940 o         1 SG1     -0.200500
     16 C16         2.3710   -0.3270   -1.0790 ca        1 SG1      0.049000
     17 N17        -0.4060    1.4790   -0.3430 n3        1 SG1     -1.027700
     18 O18        -0.3210   -0.0830    1.5520 o         1 SG1     -0.653300
     19 O19        -0.4440   -0.9520   -0.7030 o         1 SG1     -0.653300
     20 H31         1.9900    0.7500    2.1220 ha        1 SG1      0.167000
     21 H41         4.4440    0.8360    1.9950 ha        1 SG1      0.174000
     22 H91         8.5040    0.5520    1.7980 hc        1 SG1      0.090700
     23 H92         8.7860    1.4610    0.2530 hc        1 SG1      0.090700
     24 H101        9.0270   -0.6410   -0.8030 hc        1 SG1      0.066700
     25 H102        8.4090   -1.5080    0.6580 hc        1 SG1      0.066700
     26 H111        6.9520   -0.5950   -1.8070 h1        1 SG1      0.078700
     27 H112        6.4150   -1.8200   -0.5590 h1        1 SG1      0.078700
     28 H161        1.7700   -0.6640   -1.9480 ha        1 SG1      0.177000
     29 H171       -0.6010    1.6780   -1.2930 hn        1 SG1      0.452300
     30 H172       -0.5210    2.2680    0.2420 hn        1 SG1      0.452300
@<TRIPOS>BOND
     1    1    2 1   
     2    1   17 1   
     3    1   18 2   
     4    1   19 2   
     5    2    3 ar  
     6    2   16 ar  
     7    3    4 ar  
     8    3   20 1   
     9    4    5 ar  
    10    4   21 1   
    11    5    6 1   
    12    5   12 ar  
    13    6    7 1   
    14    6   11 1   
    15    7    8 2   
    16    7    9 1   
    17    9   10 1   
    18    9   22 1   
    19    9   23 1   
    20   10   11 1   
    21   10   24 1   
    22   10   25 1   
    23   11   26 1   
    24   11   27 1   
    25   12   13 1   
    26   12   16 ar  
    27   13   14 1   
    28   13   15 1   
    29   16   28 1   
    30   17   29 1   
    31   17   30 1   
@<TRIPOS>SUBSTRUCTURE
     1 SG1         1 TEMP              0 ****  ****    0 ROOT
