@<TRIPOS>MOLECULE
SG1
   31    32     1     0     0
SMALL
bcc


@<TRIPOS>ATOM
      1 S1          0.0710   -0.1690   -0.1500 sy        1 SG1      1.510200
      2 C2          1.6530   -0.1700   -0.1580 ca        1 SG1     -0.639500
      3 C3          2.3970   -0.6410    0.9610 ca        1 SG1      0.055000
      4 C4          3.7630   -0.6580    0.9730 ca        1 SG1     -0.224000
      5 C5          4.5390   -0.1520   -0.1330 ca        1 SG1      0.282600
      6 N6          5.8820    0.0030   -0.0020 n         1 SG1     -0.366000
      7 C7          6.7570    0.9360   -0.6810 c         1 SG1      0.728500
      8 O8          6.3350    1.9120   -1.2920 o         1 SG1     -0.529500
      9 C9          8.1950    0.5590   -0.3970 c3        1 SG1     -0.146400
     10 C10         8.1510   -0.5590    0.6350 c3        1 SG1     -0.093400
     11 C11         6.6610   -0.8010    0.9470 c3        1 SG1      0.069000
     12 C12         3.7830    0.1650   -1.3220 ca        1 SG1     -0.261200
     13 N13         4.4420    0.4000   -2.6430 no        1 SG1      0.337200
     14 O14         3.8200    0.9980   -3.4740 o         1 SG1     -0.176500
     15 O15         5.5350   -0.0510   -2.8350 o         1 SG1     -0.176500
     16 C16         2.3960    0.1820   -1.3040 ca        1 SG1      0.103000
     17 N17        -0.1950    1.6910    0.3210 nz        1 SG1     -0.785500
     18 O18        -0.5140   -0.7640    0.9470 o         1 SG1     -0.570800
     19 O19        -0.5340   -0.1640   -1.3870 o         1 SG1     -0.570800
     20 H31         1.8420   -1.0100    1.8470 ha        1 SG1      0.176000
     21 H41         4.2880   -1.0470    1.8640 ha        1 SG1      0.177000
     22 H91         8.6730    0.2300   -1.3570 hc        1 SG1      0.114200
     23 H92         8.7430    1.4620   -0.0230 hc        1 SG1      0.114200
     24 H101        8.6960   -0.2730    1.5690 hc        1 SG1      0.084200
     25 H102        8.6180   -1.4930    0.2350 hc        1 SG1      0.084200
     26 H111        6.4240   -0.4790    1.9980 h1        1 SG1      0.074200
     27 H112        6.3960   -1.8870    0.8280 h1        1 SG1      0.074200
     28 H161        1.8480    0.4530   -2.2350 ha        1 SG1      0.197000
     29 H171       -0.7180    1.7630    1.1910 hn        1 SG1      0.453133
     30 H172        0.6800    2.1910    0.4380 hn        1 SG1      0.453133
     31 H173       -0.7320    2.1630   -0.4040 hn        1 SG1      0.453133
@<TRIPOS>BOND
     1    1    2 1   
     2    1   17 1   
     3    1   18 2   
     4    1   19 2   
     5    2    3 ar  
     6    2   16 ar  
     7    3    4 ar  
     8    3   20 1   
     9    4    5 ar  
    10    4   21 1   
    11    5    6 1   
    12    5   12 ar  
    13    6    7 1   
    14    6   11 1   
    15    7    8 2   
    16    7    9 1   
    17    9   10 1   
    18    9   22 1   
    19    9   23 1   
    20   10   11 1   
    21   10   24 1   
    22   10   25 1   
    23   11   26 1   
    24   11   27 1   
    25   12   13 1   
    26   12   16 ar  
    27   13   14 1   
    28   13   15 1   
    29   16   28 1   
    30   17   29 1   
    31   17   30 1   
    32   17   31 1   
@<TRIPOS>SUBSTRUCTURE
     1 SG1         1 TEMP              0 ****  ****    0 ROOT
