@<TRIPOS>MOLECULE
SG2
   23    18     1     0     0
SMALL
bcc


@<TRIPOS>ATOM
      1 S1         -3.3200    0.1880    0.0970 ss        1 SG2      2.873000
      2 C2         -1.5460    0.1880    0.0970 c1        1 SG2     -0.892000
      3 C3         -0.8540    0.1880    1.3750 c2        1 SG2      0.041000
      4 C4          0.5660    0.1880    1.4170 c1        1 SG2     -0.208000
      5 C5          1.2870    0.1880    0.2500 c1        1 SG2      0.151000
      6 N           2.7270    0.1880   -0.0060 n1        1 SG2     -0.361000
      7 C6          4.0040    0.0960    0.6160 c2        1 SG2     -0.063000
      8 S7          2.9280    0.1880   -1.4620 ss        1 SG2      0.287000
      9 C8          1.5430    0.1880   -2.1210 c2        1 SG2      0.159000
     10 O9          1.3200    0.2720   -3.3120 o         1 SG2     -0.251000
     11 C10         0.5650    0.1880   -1.0820 c1        1 SG2     -0.272000
     12 C11        -0.8070    0.1880   -1.1150 c1        1 SG2      0.103000
     13 N12        -3.8880   -1.3530    0.0880 n2        1 SG2     -0.954000
     14 O13        -3.8410    0.9290    1.2120 o         1 SG2     -0.938000
     15 O14        -3.8410    0.9430   -1.0090 o         1 SG2     -0.938000
     16 H31        -1.3650    0.1880    2.2070 ha        1 SG2      0.163000
     17 H41         1.0290    0.1880    2.2760 ha        1 SG2      0.150000
     18 H61         4.3540   -0.8090    0.5090 ha        1 SG2      0.098667
     19 H62         3.9190    0.3010    1.5670 ha        1 SG2      0.098667
     20 H63         4.6150    0.7330    0.1990 ha        1 SG2      0.098667
     21 H111       -1.2740    0.1870   -1.9720 ha        1 SG2      0.170000
     22 H121       -4.0680   -1.7770    0.8750 hn        1 SG2      0.243000
     23 H122       -4.0530   -1.7730   -0.7050 hn        1 SG2      0.243000
@<TRIPOS>BOND
     1    1   14 1   
     2    1   15 1   
     3    2    3 1   
     4    2   12 1   
     5    3    4 1   
     6    3   16 1   
     7    4   17 1   
     8    5   11 1   
     9    6    8 1   
    10    7   18 1   
    11    7   19 1   
    12    7   20 1   
    13    8    9 1   
    14    9   10 1   
    15    9   11 1   
    16   12   21 1   
    17   13   22 1   
    18   13   23 1   
@<TRIPOS>SUBSTRUCTURE
     1 SG2         1 TEMP              0 ****  ****    0 ROOT
