@<TRIPOS>MOLECULE
SG2
   24    25     1     0     0
SMALL
bcc


@<TRIPOS>ATOM
      1 S1          0.1180    0.2470    0.0860 sy        1 SG2      1.512200
      2 C2          1.6840    0.0900    0.0500 ca        1 SG2     -0.655500
      3 C3          2.4420    0.0440    1.2620 ca        1 SG2      0.047000
      4 C4          3.8090   -0.0100    1.2880 ca        1 SG2     -0.190000
      5 C5          4.5250   -0.0210    0.0540 ca        1 SG2      0.138800
      6 N           5.8670   -0.0610   -0.1330 na        1 SG2     -0.046100
      7 C6          6.8650   -0.0800    0.8960 c3        1 SG2      0.012600
      8 S7          6.2890   -0.0530   -1.7500 ss        1 SG2      0.016000
      9 C8          4.6380    0.0010   -2.3760 c         1 SG2      0.572300
     10 O9          4.2780    0.0120   -3.5460 o         1 SG2     -0.446100
     11 C10         3.7760    0.0180   -1.1830 ca        1 SG2     -0.298600
     12 C11         2.4050    0.0830   -1.1710 ca        1 SG2      0.139000
     13 N12        -0.3490   -1.6450   -0.0090 nz        1 SG2     -0.782500
     14 O13        -0.4290    0.5380    1.3190 o         1 SG2     -0.575300
     15 O14        -0.4740    0.6660   -1.0860 o         1 SG2     -0.575300
     16 H31         1.8880    0.0740    2.2220 ha        1 SG2      0.170000
     17 H41         4.3620   -0.0340    2.2410 ha        1 SG2      0.177000
     18 H61         7.8840   -0.0960    0.4200 h1        1 SG2      0.084033
     19 H62         6.7390   -0.9980    1.5330 h1        1 SG2      0.084033
     20 H63         6.7700    0.8370    1.5400 h1        1 SG2      0.084033
     21 H111        1.8600    0.1480   -2.1360 ha        1 SG2      0.184000
     22 H121       -0.8940   -1.9120    0.8060 hn        1 SG2      0.449467
     23 H122        0.4690   -2.2400   -0.0530 hn        1 SG2      0.449467
     24 H123       -0.9150   -1.8230   -0.8350 hn        1 SG2      0.449467
@<TRIPOS>BOND
     1    1    2 1   
     2    1   13 1   
     3    1   14 2   
     4    1   15 2   
     5    2    3 ar  
     6    2   12 ar  
     7    3    4 ar  
     8    3   16 1   
     9    4    5 ar  
    10    4   17 1   
    11    5    6 1   
    12    5   11 ar  
    13    6    7 1   
    14    6    8 1   
    15    7   18 1   
    16    7   19 1   
    17    7   20 1   
    18    8    9 1   
    19    9   10 2   
    20    9   11 1   
    21   11   12 ar  
    22   12   21 1   
    23   13   22 1   
    24   13   23 1   
    25   13   24 1   
@<TRIPOS>SUBSTRUCTURE
     1 SG2         1 TEMP              0 ****  ****    0 ROOT
