@<TRIPOS>MOLECULE
SG2
   24    25     1     0     0
SMALL
bcc


@<TRIPOS>ATOM
      1 S1          0.1140    0.2390   -0.0360 sy        1 SG2      1.512200
      2 C2          1.6810    0.0870   -0.0120 ca        1 SG2     -0.655500
      3 C3          2.3970    0.0930    1.2260 ca        1 SG2      0.047000
      4 C4          3.7630    0.0450    1.3020 ca        1 SG2     -0.190000
      5 C5          4.5210   -0.0120    0.0950 ca        1 SG2      0.138800
      6 N           5.8690   -0.0530   -0.0440 na        1 SG2     -0.046100
      7 C6          6.8300   -0.0270    1.0180 c3        1 SG2      0.012600
      8 S7          6.3470   -0.1090   -1.6440 ss        1 SG2      0.016000
      9 C8          4.7180   -0.0880   -2.3290 c         1 SG2      0.572300
     10 O9          4.3990   -0.1250   -3.5100 o         1 SG2     -0.446100
     11 C10         3.8150   -0.0260   -1.1680 ca        1 SG2     -0.298600
     12 C11         2.4450    0.0340   -1.2060 ca        1 SG2      0.139000
     13 N12        -0.3440   -1.6570   -0.0710 n4        1 SG2     -0.782500
     14 O13        -0.4760    0.5770    1.1640 o         1 SG2     -0.575300
     15 O14        -0.4380    0.6080   -1.2440 o         1 SG2     -0.575300
     16 H31         1.8100    0.1590    2.1640 ha        1 SG2      0.170000
     17 H41         4.2820    0.0620    2.2730 ha        1 SG2      0.177000
     18 H61         7.8650   -0.0540    0.5790 h1        1 SG2      0.084033
     19 H62         6.6870   -0.9210    1.6860 h1        1 SG2      0.084033
     20 H63         6.7080    0.9130    1.6240 h1        1 SG2      0.084033
     21 H111        1.9330    0.0570   -2.1910 ha        1 SG2      0.184000
     22 H121        0.4770   -2.2510   -0.0620 hn        1 SG2      0.449467
     23 H122       -0.8800   -1.8710   -0.9080 hn        1 SG2      0.449467
     24 H123       -0.9150   -1.8940    0.7350 hn        1 SG2      0.449467
@<TRIPOS>BOND
     1    1    2 1   
     2    1   13 1   
     3    1   14 2   
     4    1   15 2   
     5    2    3 ar  
     6    2   12 ar  
     7    3    4 ar  
     8    3   16 1   
     9    4    5 ar  
    10    4   17 1   
    11    5    6 1   
    12    5   11 ar  
    13    6    7 1   
    14    6    8 1   
    15    7   18 1   
    16    7   19 1   
    17    7   20 1   
    18    8    9 1   
    19    9   10 2   
    20    9   11 1   
    21   11   12 ar  
    22   12   21 1   
    23   13   22 1   
    24   13   23 1   
    25   13   24 1   
@<TRIPOS>SUBSTRUCTURE
     1 SG2         1 TEMP              0 ****  ****    0 ROOT
