@<TRIPOS>MOLECULE
SG2
   23    24     1     0     0
SMALL
bcc


@<TRIPOS>ATOM
      1 S1          0.0210   -0.1030   -3.0190 sy        1 SG2      1.534200
      2 C2          0.3110   -0.0220   -1.3600 ca        1 SG2     -0.447500
      3 C3          1.6320    0.0150   -0.8740 ca        1 SG2      0.041000
      4 C4          1.9250    0.0600    0.4780 ca        1 SG2     -0.208000
      5 C5          0.8570    0.0750    1.4020 ca        1 SG2      0.105800
      6 N           0.9470    0.1680    2.7760 na        1 SG2     -0.094100
      7 C6          2.1350   -0.0340    3.5360 c3        1 SG2      0.035600
      8 S7         -0.5570    0.0870    3.4950 ss        1 SG2     -0.098000
      9 C8         -1.4910    0.0140    1.9880 c         1 SG2      0.601300
     10 O9         -2.7140   -0.0220    1.8890 o         1 SG2     -0.490100
     11 C10        -0.4910    0.0200    0.9200 ca        1 SG2     -0.292600
     12 C11        -0.7440   -0.0310   -0.4440 ca        1 SG2      0.103000
     13 N12        -0.2850    1.4180   -3.4170 n3        1 SG2     -1.027700
     14 O13         1.2150   -0.5170   -3.6510 o         1 SG2     -0.658800
     15 O14        -1.1390   -0.8750   -3.2320 o         1 SG2     -0.658800
     16 H31         2.4640   -0.0100   -1.6040 ha        1 SG2      0.163000
     17 H41         2.9660    0.0810    0.8290 ha        1 SG2      0.150000
     18 H61         1.9340    0.2320    4.6090 h1        1 SG2      0.059367
     19 H62         2.4810   -1.1030    3.4800 h1        1 SG2      0.059367
     20 H63         2.9470    0.6330    3.1370 h1        1 SG2      0.059367
     21 H111       -1.7910   -0.0970   -0.7970 ha        1 SG2      0.170000
     22 H121       -1.1960    1.8020   -3.4490 hn        1 SG2      0.447800
     23 H122        0.4120    2.0670   -3.6840 hn        1 SG2      0.447800
@<TRIPOS>BOND
     1    1    2 1   
     2    1   13 1   
     3    1   14 2   
     4    1   15 2   
     5    2    3 ar  
     6    2   12 ar  
     7    3    4 ar  
     8    3   16 1   
     9    4    5 ar  
    10    4   17 1   
    11    5    6 1   
    12    5   11 ar  
    13    6    7 1   
    14    6    8 1   
    15    7   18 1   
    16    7   19 1   
    17    7   20 1   
    18    8    9 1   
    19    9   10 2   
    20    9   11 1   
    21   11   12 ar  
    22   12   21 1   
    23   13   22 1   
    24   13   23 1   
@<TRIPOS>SUBSTRUCTURE
     1 SG2         1 TEMP              0 ****  ****    0 ROOT
