@<TRIPOS>MOLECULE
SG3
   23    22     1     0     0
SMALL
bcc


@<TRIPOS>ATOM
      1 O3          2.4420    1.4920    0.0910 o         1 SG3     -0.950833
      2 P           2.7850    0.0240    0.2030 p5        1 SG3      1.205100
      3 O4          3.7480   -0.4970   -0.8390 o         1 SG3     -0.950833
      4 O2          3.0340   -0.4690    1.6120 o         1 SG3     -0.950833
      5 C5          1.2670   -0.8370   -0.1840 c2        1 SG3     -0.186600
      6 C6          0.1840   -0.1230   -0.4460 c2        1 SG3     -0.290200
      7 C7         -1.1830   -0.6640   -0.6970 c3        1 SG3      0.174300
      8 O13        -1.3970   -1.9660   -0.1630 oh        1 SG3     -0.654800
      9 C8         -2.2970    0.2800   -0.1140 c3        1 SG3      0.165300
     10 C12        -1.9480    0.6910    1.3140 c3        1 SG3     -0.112100
     11 F11        -2.4310    1.3980   -0.9310 f         1 SG3     -0.246300
     12 C9         -3.6250   -0.5160   -0.1170 c3        1 SG3      0.097400
     13 O10        -4.6720    0.3240    0.3490 oh        1 SG3     -0.602800
     14 H5C2        1.3050   -1.9270   -0.1380 ha        1 SG3      0.081000
     15 H6C2        0.2850    0.9780   -0.4930 ha        1 SG3      0.171000
     16 H7         -1.3830   -0.7660   -1.8030 h1        1 SG3      0.033700
     17 H13        -0.7000   -2.1240    0.4890 ho        1 SG3      0.424000
     18 H121       -1.0140    1.3070    1.3120 hc        1 SG3      0.053367
     19 H122       -2.7860    1.2770    1.7580 hc        1 SG3      0.053367
     20 H123       -1.7680   -0.2270    1.9200 hc        1 SG3      0.053367
     21 H9C1       -3.8550   -0.8560   -1.1610 h1        1 SG3      0.030700
     22 H9C2       -3.5140   -1.4080    0.5540 h1        1 SG3      0.030700
     23 H10        -5.4500   -0.2400    0.4180 ho        1 SG3      0.370000
@<TRIPOS>BOND
     1    1    2 1   
     2    2    3 1   
     3    2    4 1   
     4    2    5 1   
     5    5    6 2   
     6    5   14 1   
     7    6    7 1   
     8    6   15 1   
     9    7    8 1   
    10    7    9 1   
    11    7   16 1   
    12    8   17 1   
    13    9   10 1   
    14    9   11 1   
    15    9   12 1   
    16   10   18 1   
    17   10   19 1   
    18   10   20 1   
    19   12   13 1   
    20   12   21 1   
    21   12   22 1   
    22   13   23 1   
@<TRIPOS>SUBSTRUCTURE
     1 SG3         1 TEMP              0 ****  ****    0 ROOT
