@<TRIPOS>MOLECULE
SG3
   23    22     1     0     0
SMALL
bcc


@<TRIPOS>ATOM
      1 O3          1.0630    1.3820    1.1680 o         1 SG3     -0.905500
      2 P           1.9890    0.6280    0.2770 p5        1 SG3      1.385000
      3 O4          3.3950    1.4660    0.2200 oh        1 SG3     -0.819400
      4 O2          2.3540   -0.7690    0.6570 o         1 SG3     -0.905500
      5 C5          1.4450    0.6040   -1.2990 c2        1 SG3     -0.443600
      6 C6          1.3500    1.5060   -2.2690 c2        1 SG3     -0.083200
      7 C7          1.7210    2.9780   -2.3030 c3        1 SG3      0.427000
      8 O13         2.9960    3.2640   -2.1670 o         1 SG3     -0.870500
      9 C8          1.1890    3.5870   -3.7280 c3        1 SG3      0.022300
     10 C12         2.0810    3.0540   -4.8430 c3        1 SG3     -0.097100
     11 F11        -0.1440    3.2670   -3.9740 f         1 SG3     -0.282300
     12 C9          1.3500    5.1110   -3.5810 c3        1 SG3      0.107400
     13 O10         1.2200    5.8520   -4.7890 oh        1 SG3     -0.648800
     14 H5C2        1.0890   -0.4140   -1.5560 ha        1 SG3      0.091000
     15 H6C2        0.9120    1.1670   -3.2320 ha        1 SG3      0.042000
     16 H7          1.0350    3.5000   -1.5560 h1        1 SG3     -0.051300
     17 H13         3.3970    2.1820   -0.4150 ho        1 SG3      0.455000
     18 H121        1.8070    3.4800   -5.8390 hc        1 SG3      0.024367
     19 H122        1.9860    1.9450   -4.9030 hc        1 SG3      0.024367
     20 H123        3.1370    3.3100   -4.5870 hc        1 SG3      0.024367
     21 H9C1        0.5370    5.5160   -2.9230 h1        1 SG3      0.060700
     22 H9C2        2.3570    5.3050   -3.1220 h1        1 SG3      0.060700
     23 H10         1.8370    5.4640   -5.4180 ho        1 SG3      0.382000
@<TRIPOS>BOND
     1    1    2 1   
     2    2    3 1   
     3    2    4 1   
     4    2    5 1   
     5    3   17 1   
     6    5    6 2   
     7    5   14 1   
     8    6    7 1   
     9    6   15 1   
    10    7    8 1   
    11    7    9 1   
    12    7   16 1   
    13    9   10 1   
    14    9   11 1   
    15    9   12 1   
    16   10   18 1   
    17   10   19 1   
    18   10   20 1   
    19   12   13 1   
    20   12   21 1   
    21   12   22 1   
    22   13   23 1   
@<TRIPOS>SUBSTRUCTURE
     1 SG3         1 TEMP              0 ****  ****    0 ROOT
