@<TRIPOS>MOLECULE
SG3
   23    22     1     0     0
SMALL
bcc


@<TRIPOS>ATOM
      1 O3          0.8440    1.5600    1.1480 o         1 SG3     -0.905500
      2 P           1.8210    0.7500    0.3670 p5        1 SG3      1.386000
      3 O4          3.2440    1.5630    0.3810 oh        1 SG3     -0.819400
      4 O2          2.1280   -0.6340    0.8380 o         1 SG3     -0.905500
      5 C5          1.4050    0.6640   -1.2440 c2        1 SG3     -0.445600
      6 C6          1.4160    1.5250   -2.2560 c2        1 SG3     -0.082200
      7 C7          1.8370    2.9830   -2.3210 c3        1 SG3      0.429000
      8 O13         3.1200    3.2200   -2.1680 o         1 SG3     -0.868500
      9 C8          1.3530    3.5610   -3.7660 c3        1 SG3      0.022300
     10 C12         2.1950    2.9460   -4.8770 c3        1 SG3     -0.098100
     11 F11        -0.0050    3.3380   -4.0020 f         1 SG3     -0.293300
     12 C9          1.6090    5.0790   -3.7140 c3        1 SG3      0.116400
     13 O10         1.1690    5.7640   -4.8830 oh        1 SG3     -0.651800
     14 H5C2        1.0460   -0.3570   -1.4860 ha        1 SG3      0.091000
     15 H6C2        1.0590    1.1540   -3.2410 ha        1 SG3      0.041000
     16 H7          1.1600    3.5530   -1.6010 h1        1 SG3     -0.050300
     17 H13         3.3220    2.2260   -0.3040 ho        1 SG3      0.454000
     18 H121        1.8260    1.9250   -5.1300 hc        1 SG3      0.028033
     19 H122        2.1630    3.5760   -5.7980 hc        1 SG3      0.028033
     20 H123        3.2460    2.8770   -4.5000 hc        1 SG3      0.028033
     21 H9C1        2.7110    5.2600   -3.6380 h1        1 SG3      0.054700
     22 H9C2        1.0830    5.5200   -2.8270 h1        1 SG3      0.054700
     23 H10         0.3530    5.3310   -5.1600 ho        1 SG3      0.388000
@<TRIPOS>BOND
     1    1    2 1   
     2    2    3 1   
     3    2    4 1   
     4    2    5 1   
     5    3   17 1   
     6    5    6 2   
     7    5   14 1   
     8    6    7 1   
     9    6   15 1   
    10    7    8 1   
    11    7    9 1   
    12    7   16 1   
    13    9   10 1   
    14    9   11 1   
    15    9   12 1   
    16   10   18 1   
    17   10   19 1   
    18   10   20 1   
    19   12   13 1   
    20   12   21 1   
    21   12   22 1   
    22   13   23 1   
@<TRIPOS>SUBSTRUCTURE
     1 SG3         1 TEMP              0 ****  ****    0 ROOT
