@<TRIPOS>MOLECULE
SG3
   23    21     1     0     0
SMALL
bcc


@<TRIPOS>ATOM
      1 O3         -0.8080   -3.1060   -0.7440 o         1 SG3     -0.781167
      2 P           0.7020   -3.1060   -0.7440 p5        1 SG3      1.715500
      3 O4          1.2050   -3.1060    0.6790 o         1 SG3     -0.781167
      4 O2          1.2050   -4.3390   -1.4560 o         1 SG3     -0.781167
      5 C5          1.3070   -1.6240   -1.6000 c2        1 SG3     -0.861000
      6 C6          1.0080   -0.4000   -1.1220 c1        1 SG3     -0.080000
      7 C7          0.1680   -0.2620    0.1280 c2        1 SG3      0.223000
      8 O13         1.0100   -0.1850    1.2530 oh        1 SG3     -0.709000
      9 C8         -0.6670    0.9960    0.0370 c3        1 SG3     -0.048000
     10 C12        -1.9440    0.8110    0.8280 c3        1 SG3     -0.214000
     11 F11        -0.9680    1.2410   -1.2450 f         1 SG3     -0.221000
     12 C9          0.1130    2.1620    0.6040 c3        1 SG3     -0.033000
     13 O10        -0.3550    3.3630    0.0320 oh        1 SG3     -0.380000
     14 H5C2        1.8490   -1.7130   -2.4070 ha        1 SG3      0.092000
     15 H6C2        1.3330    0.3970   -1.5820 ha        1 SG3      0.040000
     16 H7         -0.4190   -1.0370    0.2130 h4        1 SG3     -0.009000
     17 H13         0.6730   -0.6800    1.9090 ho        1 SG3      0.253000
     18 H121       -2.4280    1.6580    0.8660 hc        1 SG3      0.065000
     19 H122       -2.5010    0.1370    0.3950 hc        1 SG3      0.065000
     20 H123       -1.7260    0.5200    1.7340 hc        1 SG3      0.065000
     21 H9C1       -0.0070    2.1940    1.5720 h1        1 SG3      0.097000
     22 H9C2        1.0610    2.0500    0.3970 h1        1 SG3      0.097000
     23 H10         0.1900    4.0280    0.2530 ho        1 SG3      0.185000
@<TRIPOS>BOND
     1    1    2 1   
     2    2    3 1   
     3    2    4 1   
     4    2    5 1   
     5    5    6 1   
     6    5   14 1   
     7    6   15 1   
     8    7    8 1   
     9    7    9 1   
    10    7   16 1   
    11    8   17 1   
    12    9   10 1   
    13    9   11 1   
    14    9   12 1   
    15   10   18 1   
    16   10   19 1   
    17   10   20 1   
    18   12   13 1   
    19   12   21 1   
    20   12   22 1   
    21   13   23 1   
@<TRIPOS>SUBSTRUCTURE
     1 SG3         1 TEMP              0 ****  ****    0 ROOT
