@<TRIPOS>MOLECULE
SG4
   39    39     1     0     0
SMALL
bcc


@<TRIPOS>ATOM
      1 C1          1.3420   -2.6600   -0.5560 c3        1 SG4      0.300900
      2 O1          1.2170   -2.9870    0.8060 oh        1 SG4     -0.625800
      3 C2          2.5060   -1.6640   -0.7100 c3        1 SG4      0.117100
      4 O2          3.7060   -2.2220   -0.2310 oh        1 SG4     -0.582800
      5 C3          2.1540   -0.3490    0.0010 c3        1 SG4      0.108100
      6 O3          3.1340    0.6430   -0.3320 os        1 SG4     -0.431900
      7 C4          0.8050    0.1780   -0.5140 c3        1 SG4      0.120100
      8 O4          0.4700    1.2940    0.3190 os        1 SG4     -0.433900
      9 C5         -0.2740   -0.9040   -0.3130 c3        1 SG4      0.115100
     10 O5          0.1010   -2.1200   -0.9650 os        1 SG4     -0.443600
     11 C6         -1.6100   -0.5000   -0.9540 c3        1 SG4      0.185400
     12 O6         -2.6450   -0.7420   -0.0330 os        1 SG4     -0.573500
     13 OAB        -2.9560    1.5910    0.5660 o         1 SG4     -0.657300
     14 NAH        -4.7560    0.5580   -0.7420 n3        1 SG4     -1.041700
     15 SAI        -3.7330    0.4380    0.4630 s6        1 SG4      1.723400
     16 OAQ        -4.3110   -0.1440    1.5810 o         1 SG4     -0.657300
     17 OAW        -0.1630    2.4550   -1.4920 o         1 SG4     -0.562000
     18 CAX        -0.0350    2.4290   -0.2660 c         1 SG4      0.660100
     19 CAY         4.2470    0.7270    0.4660 c         1 SG4      0.647100
     20 OAZ         4.3490   -0.0460    1.4200 o         1 SG4     -0.545000
     21 CBA        -0.3900    3.4680    0.7360 c3        1 SG4     -0.154100
     22 CBB         5.1900    1.7890    0.0200 c3        1 SG4     -0.149100
     23 H1          1.4880   -3.5700   -1.2030 h2        1 SG4      0.087700
     24 HO1         0.4740   -3.5990    0.8930 ho        1 SG4      0.426000
     25 H2          2.6870   -1.4820   -1.8070 h1        1 SG4      0.096700
     26 HO2         3.6520   -2.2480    0.7370 ho        1 SG4      0.433000
     27 H3          2.1150   -0.5040    1.1150 h1        1 SG4      0.105700
     28 H4          0.8860    0.4840   -1.5920 h1        1 SG4      0.101700
     29 H5         -0.4090   -1.1010    0.7870 h1        1 SG4      0.089700
     30 H6         -1.5830    0.5880   -1.2400 h1        1 SG4      0.065200
     31 H6A        -1.8120   -1.1390   -1.8570 h1        1 SG4      0.065200
     32 HNAH       -5.5450   -0.0310   -0.8550 hn        1 SG4      0.458300
     33 HNAA       -4.6730    1.2160   -1.4770 hn        1 SG4      0.458300
     34 HBA        -0.2940    4.4780    0.2720 hc        1 SG4      0.085700
     35 HBAA       -1.4550    3.2920    1.0430 hc        1 SG4      0.085700
     36 HBAB        0.2660    3.3950    1.6360 hc        1 SG4      0.085700
     37 HBB         4.7320    2.4240   -0.7760 hc        1 SG4      0.078367
     38 HBBA        5.4630    2.4240    0.8980 hc        1 SG4      0.078367
     39 HBBB        6.1120    1.3000   -0.3810 hc        1 SG4      0.078367
@<TRIPOS>BOND
     1    1    2 1   
     2    1    3 1   
     3    1   10 1   
     4    1   23 1   
     5    2   24 1   
     6    3    4 1   
     7    3    5 1   
     8    3   25 1   
     9    4   26 1   
    10    5    6 1   
    11    5    7 1   
    12    5   27 1   
    13    6   19 1   
    14    7    8 1   
    15    7    9 1   
    16    7   28 1   
    17    8   18 1   
    18    9   10 1   
    19    9   11 1   
    20    9   29 1   
    21   11   12 1   
    22   11   30 1   
    23   11   31 1   
    24   12   15 1   
    25   13   15 2   
    26   14   15 1   
    27   14   32 1   
    28   14   33 1   
    29   15   16 2   
    30   17   18 2   
    31   18   21 1   
    32   19   20 2   
    33   19   22 1   
    34   21   34 1   
    35   21   35 1   
    36   21   36 1   
    37   22   37 1   
    38   22   38 1   
    39   22   39 1   
@<TRIPOS>SUBSTRUCTURE
     1 SG4         1 TEMP              0 ****  ****    0 ROOT
