@<TRIPOS>MOLECULE
SG4
   39    39     1     0     0
SMALL
bcc


@<TRIPOS>ATOM
      1 C1         -0.2420    0.1000   -2.6780 c3        1 SG4      0.306900
      2 O1          1.3550   -0.4980   -3.0500 oh        1 SG4     -0.620800
      3 C2         -0.1990    0.5870   -2.4520 c3        1 SG4      0.094100
      4 O2          0.7210    1.6770   -3.5720 oh        1 SG4     -0.575800
      5 C3          0.7610    0.4470   -0.7910 c3        1 SG4      0.116100
      6 O3          0.6610    1.2750   -0.2960 os        1 SG4     -0.432900
      7 C4          0.1350   -1.0850    0.3550 c3        1 SG4      0.102100
      8 O4          0.7080   -2.6150   -0.3630 os        1 SG4     -0.452900
      9 C5         -0.4590   -1.0930    0.3760 c3        1 SG4      0.090100
     10 O5         -1.1610   -1.2040   -1.3500 os        1 SG4     -0.423600
     11 C6         -1.0610    0.5000    1.1750 c3        1 SG4      0.167400
     12 O6         -1.9820    0.1950    2.1960 os        1 SG4     -0.573500
     13 OAB        -3.7830    1.7400    1.4390 o         1 SG4     -0.650800
     14 NAH        -3.8260    0.8500    3.8850 n3        1 SG4     -1.045700
     15 SAI        -2.9150    1.3080    2.5970 s6        1 SG4      1.720400
     16 OAQ        -2.1570    2.5820    2.8870 o         1 SG4     -0.650800
     17 OAW         1.8190   -2.9590    1.5880 o         1 SG4     -0.568000
     18 CAX         1.4630   -3.4090    0.5170 c         1 SG4      0.660100
     19 CAY         1.8240    2.0680   -0.2680 c         1 SG4      0.643100
     20 OAZ         2.9180    1.5430   -0.3390 o         1 SG4     -0.542000
     21 CBA         1.8260   -4.8260    0.1340 c3        1 SG4     -0.152100
     22 CBB         1.7140    3.5650   -0.0770 c3        1 SG4     -0.150100
     23 H1         -0.7740    0.1630   -3.5040 h2        1 SG4      0.118700
     24 HO1         1.3020   -1.0940   -3.7070 ho        1 SG4      0.424000
     25 H2         -1.0960    0.9590   -2.2870 h1        1 SG4      0.109700
     26 HO2         0.1690    2.0080   -4.1830 ho        1 SG4      0.417000
     27 H3          1.7110    0.3180   -0.9910 h1        1 SG4      0.103700
     28 H4          0.4980   -0.9890    1.2640 h1        1 SG4      0.115700
     29 H5         -0.7620   -1.8640    0.9070 h1        1 SG4      0.079700
     30 H6         -0.2980    0.9820    1.5570 h1        1 SG4      0.071200
     31 H6A        -1.4960    1.0600    0.4990 h1        1 SG4      0.071200
     32 HNAH       -4.5760    0.3440    3.7580 hn        1 SG4      0.466300
     33 HNAA       -3.5800    1.0980    4.7290 hn        1 SG4      0.466300
     34 HBA         2.3280   -5.2430    0.8650 hc        1 SG4      0.083367
     35 HBAA        2.3770   -4.8140   -0.6760 hc        1 SG4      0.083367
     36 HBAB        1.0080   -5.3380   -0.0350 hc        1 SG4      0.083367
     37 HBB         2.5340    3.9960   -0.3950 hc        1 SG4      0.082033
     38 HBBA        1.5880    3.7640    0.8750 hc        1 SG4      0.082033
     39 HBBB        0.9480    3.9030   -0.5860 hc        1 SG4      0.082033
@<TRIPOS>BOND
     1    1    2 1   
     2    1    3 1   
     3    1   10 1   
     4    1   23 1   
     5    2   24 1   
     6    3    4 1   
     7    3    5 1   
     8    3   25 1   
     9    4   26 1   
    10    5    6 1   
    11    5    7 1   
    12    5   27 1   
    13    6   19 1   
    14    7    8 1   
    15    7    9 1   
    16    7   28 1   
    17    8   18 1   
    18    9   10 1   
    19    9   11 1   
    20    9   29 1   
    21   11   12 1   
    22   11   30 1   
    23   11   31 1   
    24   12   15 1   
    25   13   15 2   
    26   14   15 1   
    27   14   32 1   
    28   14   33 1   
    29   15   16 2   
    30   17   18 2   
    31   18   21 1   
    32   19   20 2   
    33   19   22 1   
    34   21   34 1   
    35   21   35 1   
    36   21   36 1   
    37   22   37 1   
    38   22   38 1   
    39   22   39 1   
@<TRIPOS>SUBSTRUCTURE
     1 SG4         1 TEMP              0 ****  ****    0 ROOT
