@<TRIPOS>MOLECULE
SG5
   53    53     1     0     0
SMALL
bcc


@<TRIPOS>ATOM
      1 C1          0.9530   -2.2560   -0.2140 c3        1 SG5      0.308900
      2 O5         -0.3490   -1.9810   -0.6910 os        1 SG5     -0.438600
      3 C2          1.9290   -1.0960   -0.4730 c3        1 SG5      0.128100
      4 C3          1.3610    0.2490    0.0040 c3        1 SG5      0.143100
      5 C4         -0.0770    0.4290   -0.5220 c3        1 SG5      0.108100
      6 C5         -0.9380   -0.7930   -0.1560 c3        1 SG5      0.120100
      7 O1A         0.8380   -2.4740    1.1690 oh        1 SG5     -0.612800
      8 O2A         3.1410   -1.2840    0.2660 os        1 SG5     -0.416900
      9 C2B         4.0250   -2.2290   -0.1860 c         1 SG5      0.639100
     10 O2C         3.7260   -2.8800   -1.1890 o         1 SG5     -0.550000
     11 C2D         5.2440   -2.3210    0.6780 c3        1 SG5     -0.126400
     12 C2E         6.4850   -2.5310   -0.1510 c3        1 SG5     -0.095100
     13 O3A         2.1550    1.2730   -0.6080 os        1 SG5     -0.443900
     14 C3B         2.8340    2.1590    0.1910 c         1 SG5      0.640100
     15 O3C         2.7380    2.0660    1.4130 o         1 SG5     -0.524000
     16 C3D         3.6010    3.1590   -0.6210 c3        1 SG5     -0.127400
     17 C3E         4.9560    3.4240   -0.0160 c3        1 SG5     -0.094100
     18 O4A        -0.6050    1.5660    0.1730 os        1 SG5     -0.433900
     19 C4B        -1.2760    2.5280   -0.5380 c         1 SG5      0.646100
     20 O4C        -1.4230    2.3730   -1.7520 o         1 SG5     -0.550000
     21 C4D        -1.7350    3.6550    0.3360 c3        1 SG5     -0.120400
     22 C4E        -3.2090    3.9090    0.1470 c3        1 SG5     -0.106100
     23 C5A        -2.3320   -0.7100   -0.7900 c3        1 SG5      0.185400
     24 O5B        -3.2600   -1.2480    0.1210 os        1 SG5     -0.574500
     25 S5C        -4.7630   -0.5580    0.4140 s6        1 SG5      1.721400
     26 O5D        -5.1450   -1.1770    1.5950 o         1 SG5     -0.654800
     27 O5E        -4.5200    0.8120    0.3570 o         1 SG5     -0.654800
     28 N5F        -5.6540   -1.0230   -0.8130 n3        1 SG5     -1.040700
     29 H1          1.2790   -3.1830   -0.7700 h2        1 SG5      0.099700
     30 H2          2.1570   -1.0630   -1.5750 h1        1 SG5      0.092700
     31 H3          1.3910    0.3170    1.1270 h1        1 SG5      0.127700
     32 H4         -0.0680    0.6000   -1.6330 h1        1 SG5      0.101700
     33 H5         -1.0170   -0.8850    0.9630 h1        1 SG5      0.093700
     34 HO1A        0.1810   -3.1720    1.2950 ho        1 SG5      0.424000
     35 H2D         5.3340   -1.3920    1.3010 hc        1 SG5      0.083200
     36 H2DA        5.0860   -3.1870    1.3770 hc        1 SG5      0.083200
     37 H2E         6.3580   -3.4080   -0.8320 hc        1 SG5      0.048700
     38 H2EA        6.7020   -1.6310   -0.7740 hc        1 SG5      0.048700
     39 H2EB        7.3580   -2.7180    0.5200 hc        1 SG5      0.048700
     40 H3D         3.7030    2.7900   -1.6760 hc        1 SG5      0.077700
     41 H3DA        2.9910    4.1020   -0.6440 hc        1 SG5      0.077700
     42 H3E         5.4570    4.2570   -0.5660 hc        1 SG5      0.049033
     43 H3EA        4.8560    3.7080    1.0600 hc        1 SG5      0.049033
     44 H3EB        5.6030    2.5150   -0.0810 hc        1 SG5      0.049033
     45 H4D        -1.5120    3.4130    1.4090 hc        1 SG5      0.077200
     46 H4DA       -1.1370    4.5620    0.0510 hc        1 SG5      0.077200
     47 H4E        -3.8050    3.0010    0.4210 hc        1 SG5      0.057033
     48 H4EA       -3.5290    4.7590    0.7960 hc        1 SG5      0.057033
     49 H4EB       -3.4280    4.1650   -0.9180 hc        1 SG5      0.057033
     50 H5A        -2.5800    0.3640   -1.0170 h1        1 SG5      0.062700
     51 H5AA       -2.3680   -1.3310   -1.7260 h1        1 SG5      0.062700
     52 HN5F       -6.1260   -1.8930   -0.8520 hn        1 SG5      0.457800
     53 HN5A       -5.7870   -0.4880   -1.6360 hn        1 SG5      0.457800
@<TRIPOS>BOND
     1    1    2 1   
     2    1    3 1   
     3    1    7 1   
     4    1   29 1   
     5    2    6 1   
     6    3    4 1   
     7    3    8 1   
     8    3   30 1   
     9    4    5 1   
    10    4   13 1   
    11    4   31 1   
    12    5    6 1   
    13    5   18 1   
    14    5   32 1   
    15    6   23 1   
    16    6   33 1   
    17    7   34 1   
    18    8    9 1   
    19    9   10 2   
    20    9   11 1   
    21   11   12 1   
    22   11   35 1   
    23   11   36 1   
    24   12   37 1   
    25   12   38 1   
    26   12   39 1   
    27   13   14 1   
    28   14   15 2   
    29   14   16 1   
    30   16   17 1   
    31   16   40 1   
    32   16   41 1   
    33   17   42 1   
    34   17   43 1   
    35   17   44 1   
    36   18   19 1   
    37   19   20 2   
    38   19   21 1   
    39   21   22 1   
    40   21   45 1   
    41   21   46 1   
    42   22   47 1   
    43   22   48 1   
    44   22   49 1   
    45   23   24 1   
    46   23   50 1   
    47   23   51 1   
    48   24   25 1   
    49   25   26 2   
    50   25   27 2   
    51   25   28 1   
    52   28   52 1   
    53   28   53 1   
@<TRIPOS>SUBSTRUCTURE
     1 SG5         1 TEMP              0 ****  ****    0 ROOT
