@<TRIPOS>MOLECULE
SG6
   34    33     1     0     0
SMALL
bcc


@<TRIPOS>ATOM
      1 C1         -1.0600    1.0860   -1.5350 c3        1 SG6      0.155000
      2 O5         -0.9650    1.4320   -1.3710 os        1 SG6     -0.326000
      3 C2         -2.1500   -0.1250   -0.1400 c3        1 SG6     -0.010000
      4 C3         -1.3970   -0.1820    1.4040 c3        1 SG6     -0.015000
      5 C4         -0.9360   -0.2630    1.3560 c3        1 SG6     -0.025000
      6 C5         -0.0820    1.2120    0.0530 c3        1 SG6      0.009000
      7 O1A        -2.0640    1.3800   -2.9560 oh        1 SG6     -0.312000
      8 O2A        -3.0950    0.2420   -0.0400 oh        1 SG6     -0.332000
      9 O3A        -2.1290   -1.5220    2.3670 oh        1 SG6     -0.334000
     10 O4A        -0.7020   -1.9550    0.5950 os        1 SG6     -0.283000
     11 C4B         0.3770   -4.2570    0.8610 c3        1 SG6     -0.218000
     12 C4C         0.0490   -2.8450    1.3890 c2        1 SG6      0.322000
     13 O4D         0.4350   -2.5010    2.4960 o         1 SG6     -0.365000
     14 C5A         0.9000    0.9290   -0.1920 c3        1 SG6      0.017000
     15 O5B         1.5120    1.9630   -0.9810 os        1 SG6     -0.704000
     16 S5C         2.9930    2.2280   -0.7130 s4        1 SG6      2.040800
     17 O5D         3.1920    3.0900    0.5660 o         1 SG6     -0.546400
     18 O5E         3.7130    0.9670   -0.3290 o         1 SG6     -0.546400
     19 N5F         3.6640    2.9180   -1.9850 n2        1 SG6     -0.962000
     20 H1         -0.2420    0.6170   -1.8040 h2        1 SG6      0.141000
     21 H2         -2.2020   -1.0120   -0.4860 h1        1 SG6      0.115000
     22 H3         -1.5320    0.6520    1.8580 h1        1 SG6      0.108000
     23 H4         -0.4830   -0.2280    2.2580 h1        1 SG6      0.128000
     24 H5         -0.0490    2.0900    0.5450 h1        1 SG6      0.135000
     25 HO1A       -2.4900    2.1780   -2.8670 ho        1 SG6      0.237000
     26 HO2A       -3.6720   -0.2620   -0.5380 ho        1 SG6      0.226000
     27 HO3A       -2.8490   -1.2340    2.7650 ho        1 SG6      0.231000
     28 H4B         0.1270   -4.9110    1.5150 hc        1 SG6      0.123000
     29 H4BA       -0.1340   -4.4250    0.0070 hc        1 SG6      0.123000
     30 H4BB        1.2760   -4.3200    0.6950 hc        1 SG6      0.123000
     31 H5A         1.4150    0.7960    0.6280 h1        1 SG6      0.109000
     32 H5AA        0.8800    0.0530   -0.7280 h1        1 SG6      0.109000
     33 HN5F        3.3310    3.6820   -2.3050 hn        1 SG6      0.263500
     34 HN5A        4.3650    2.5290   -2.3890 hn        1 SG6      0.263500
@<TRIPOS>BOND
     1    1    2 1   
     2    1    3 1   
     3    1    7 1   
     4    1   20 1   
     5    2    6 1   
     6    3    4 1   
     7    3    8 1   
     8    3   21 1   
     9    4    5 1   
    10    4    9 1   
    11    4   22 1   
    12    5    6 1   
    13    5   10 1   
    14    5   23 1   
    15    6   14 1   
    16    6   24 1   
    17    7   25 1   
    18    8   26 1   
    19    9   27 1   
    20   10   12 1   
    21   11   12 1   
    22   11   28 1   
    23   11   29 1   
    24   11   30 1   
    25   12   13 1   
    26   14   15 1   
    27   14   31 1   
    28   14   32 1   
    29   15   16 1   
    30   16   17 1   
    31   16   18 1   
    32   19   33 1   
    33   19   34 1   
@<TRIPOS>SUBSTRUCTURE
     1 SG6         1 TEMP              0 ****  ****    0 ROOT
