@<TRIPOS>MOLECULE
SG6
   34    34     1     0     0
SMALL
bcc


@<TRIPOS>ATOM
      1 C1          0.8860   -1.7210   -1.1030 c3        1 SG6      0.308900
      2 O5         -0.0890   -0.7750   -0.7170 os        1 SG6     -0.466600
      3 C2          2.3370   -1.2430   -0.9230 c3        1 SG6      0.096100
      4 C3          2.5340   -0.6880    0.4950 c3        1 SG6      0.112100
      5 C4          1.4870    0.4040    0.7700 c3        1 SG6      0.123100
      6 C5          0.0880   -0.2010    0.5840 c3        1 SG6      0.096100
      7 O1A         0.7010   -2.8460   -0.2740 oh        1 SG6     -0.636800
      8 O2A         3.2540   -2.2820   -1.1850 oh        1 SG6     -0.590800
      9 O3A         3.8180   -0.1210    0.6670 oh        1 SG6     -0.585800
     10 O4A         1.7070    1.4500   -0.1840 os        1 SG6     -0.432900
     11 C4B         2.0310    3.7240   -0.8060 c3        1 SG6     -0.148100
     12 C4C         1.6450    2.7510    0.2510 c         1 SG6      0.644100
     13 O4D         1.2810    2.9690    1.4080 o         1 SG6     -0.543000
     14 C5A        -0.9920    0.8770    0.7310 c3        1 SG6      0.179400
     15 O5B        -2.2530    0.2880    0.8870 os        1 SG6     -0.563500
     16 S5C        -3.3820    0.2210   -0.3690 s6        1 SG6      1.718400
     17 O5D        -4.5870    0.0610    0.3010 o         1 SG6     -0.652800
     18 O5E        -3.1130    1.3770   -1.0930 o         1 SG6     -0.652800
     19 N5F        -2.9950   -1.0910   -1.1690 n3        1 SG6     -1.035700
     20 H1          0.6560   -1.9500   -2.1820 h2        1 SG6      0.082700
     21 H2          2.5660   -0.4440   -1.6840 h1        1 SG6      0.113700
     22 H3          2.3940   -1.5170    1.2470 h1        1 SG6      0.060700
     23 H4          1.6030    0.7940    1.8190 h1        1 SG6      0.108700
     24 H5         -0.0590   -1.0140    1.3500 h1        1 SG6      0.077700
     25 HO1A       -0.2200   -3.1240   -0.3540 ho        1 SG6      0.424000
     26 HO2A        3.0150   -3.0320   -0.6220 ho        1 SG6      0.421000
     27 HO3A        4.4370   -0.6780    0.1740 ho        1 SG6      0.421000
     28 H4B         2.0920    3.2280   -1.8050 hc        1 SG6      0.080033
     29 H4BA        1.2750    4.5460   -0.8390 hc        1 SG6      0.080033
     30 H4BB        3.0310    4.1530   -0.5460 hc        1 SG6      0.080033
     31 H5A        -0.7920    1.4640    1.6710 h1        1 SG6      0.082200
     32 H5AA       -0.9740    1.5670   -0.1570 h1        1 SG6      0.082200
     33 HN5F       -3.5060   -1.9370   -1.1190 hn        1 SG6      0.456800
     34 HN5A       -2.1640   -1.1780   -1.7050 hn        1 SG6      0.456800
@<TRIPOS>BOND
     1    1    2 1   
     2    1    3 1   
     3    1    7 1   
     4    1   20 1   
     5    2    6 1   
     6    3    4 1   
     7    3    8 1   
     8    3   21 1   
     9    4    5 1   
    10    4    9 1   
    11    4   22 1   
    12    5    6 1   
    13    5   10 1   
    14    5   23 1   
    15    6   14 1   
    16    6   24 1   
    17    7   25 1   
    18    8   26 1   
    19    9   27 1   
    20   10   12 1   
    21   11   12 1   
    22   11   28 1   
    23   11   29 1   
    24   11   30 1   
    25   12   13 2   
    26   14   15 1   
    27   14   31 1   
    28   14   32 1   
    29   15   16 1   
    30   16   17 2   
    31   16   18 2   
    32   16   19 1   
    33   19   33 1   
    34   19   34 1   
@<TRIPOS>SUBSTRUCTURE
     1 SG6         1 TEMP              0 ****  ****    0 ROOT
