@<TRIPOS>MOLECULE
SG7
   39    39     1     0     0
SMALL
bcc


@<TRIPOS>ATOM
      1 C1          1.3350   -2.7270   -0.2590 c3        1 SG7      0.306900
      2 O5          0.1030   -2.1880   -0.6910 os        1 SG7     -0.438600
      3 C2          2.5350   -1.7680   -0.3680 c3        1 SG7      0.098100
      4 C3          2.1810   -0.3820    0.1860 c3        1 SG7      0.159100
      5 C4          0.8420    0.1180   -0.3810 c3        1 SG7      0.121100
      6 C5         -0.2510   -0.9310   -0.1080 c3        1 SG7      0.118100
      7 O1A         1.1700   -3.0740    1.0940 oh        1 SG7     -0.620800
      8 O2A         2.9030   -1.6150   -1.7280 oh        1 SG7     -0.576800
      9 O3A         3.1530    0.5910   -0.2150 os        1 SG7     -0.417900
     10 C3B         4.3580    0.5990    0.4350 c         1 SG7      0.639100
     11 C3C         5.2550    1.6890   -0.0380 c3        1 SG7     -0.149100
     12 O3D         4.5700   -0.2530    1.3010 o         1 SG7     -0.549000
     13 O4A         0.5150    1.2970    0.3650 os        1 SG7     -0.436900
     14 C4B        -0.3040    3.5120    0.6170 c3        1 SG7     -0.154100
     15 C4C         0.0270    2.3920   -0.3040 c         1 SG7      0.659100
     16 O4D        -0.1110    2.3270   -1.5270 o         1 SG7     -0.560000
     17 C5A        -1.5850   -0.5500   -0.7660 c3        1 SG7      0.184400
     18 O5B        -2.6160   -0.7070    0.1790 os        1 SG7     -0.573500
     19 S5C        -3.6970    0.5180    0.5700 s6        1 SG7      1.722400
     20 O5D        -4.3090    0.0180    1.7100 o         1 SG7     -0.657300
     21 O5E        -2.9080    1.6660    0.6160 o         1 SG7     -0.657300
     22 N5F        -4.6910    0.5710   -0.6640 n3        1 SG7     -1.041700
     23 H1          1.4800   -3.6350   -0.9130 h2        1 SG7      0.070700
     24 H2          3.3950   -2.1840    0.2300 h1        1 SG7      0.086700
     25 H3          2.1410   -0.4450    1.3100 h1        1 SG7      0.099700
     26 H4          0.9420    0.3360   -1.4790 h1        1 SG7      0.115700
     27 H5         -0.3830   -1.0640    1.0030 h1        1 SG7      0.085700
     28 HO1A        0.3420   -3.5680    1.1680 ho        1 SG7      0.427000
     29 HO2A        3.2500   -2.4670   -2.0190 ho        1 SG7      0.404000
     30 H3C         4.8060    2.2270   -0.9080 hc        1 SG7      0.077367
     31 H3CA        5.4200    2.4090    0.8010 hc        1 SG7      0.077367
     32 H3CB        6.2350    1.2450   -0.3390 hc        1 SG7      0.077367
     33 H4B         0.3630    3.5030    1.5120 hc        1 SG7      0.084700
     34 H4BA       -0.2030    4.4810    0.0730 hc        1 SG7      0.084700
     35 H4BB       -1.3670    3.3730    0.9500 hc        1 SG7      0.084700
     36 H5A        -1.5430    0.5140   -1.1290 h1        1 SG7      0.065700
     37 H5AA       -1.8060   -1.2480   -1.6200 h1        1 SG7      0.065700
     38 HN5F       -5.4870   -0.0120   -0.7570 hn        1 SG7      0.458300
     39 HN5A       -4.5800    1.1770   -1.4400 hn        1 SG7      0.458300
@<TRIPOS>BOND
     1    1    2 1   
     2    1    3 1   
     3    1    7 1   
     4    1   23 1   
     5    2    6 1   
     6    3    4 1   
     7    3    8 1   
     8    3   24 1   
     9    4    5 1   
    10    4    9 1   
    11    4   25 1   
    12    5    6 1   
    13    5   13 1   
    14    5   26 1   
    15    6   17 1   
    16    6   27 1   
    17    7   28 1   
    18    8   29 1   
    19    9   10 1   
    20   10   11 1   
    21   10   12 2   
    22   11   30 1   
    23   11   31 1   
    24   11   32 1   
    25   13   15 1   
    26   14   15 1   
    27   14   33 1   
    28   14   34 1   
    29   14   35 1   
    30   15   16 2   
    31   17   18 1   
    32   17   36 1   
    33   17   37 1   
    34   18   19 1   
    35   19   20 2   
    36   19   21 2   
    37   19   22 1   
    38   22   38 1   
    39   22   39 1   
@<TRIPOS>SUBSTRUCTURE
     1 SG7         1 TEMP              0 ****  ****    0 ROOT
