@<TRIPOS>MOLECULE
SG7
   39    38     1     0     0
SMALL
bcc


@<TRIPOS>ATOM
      1 C1         -1.1050    0.2200   -1.9750 c3        1 SG7      0.112000
      2 O5         -0.0230    1.0440   -1.7730 os        1 SG7     -0.300000
      3 C2         -2.1000   -0.0300   -1.0450 c3        1 SG7     -0.018000
      4 C3         -1.5470   -0.1530    0.3060 c3        1 SG7      0.034000
      5 C4          0.0380   -0.4570    0.3120 c3        1 SG7     -0.002000
      6 C5          0.5010    0.9250   -0.4470 c3        1 SG7     -0.027000
      7 O1A        -1.8450    0.7880   -3.2460 oh        1 SG7     -0.348000
      8 O2A        -2.7950   -1.3150   -1.4070 oh        1 SG7     -0.302000
      9 O3A        -2.2100   -1.1950    0.9690 os        1 SG7     -0.272000
     10 C3B        -3.2000   -0.7610    1.8560 c2        1 SG7      0.317000
     11 C3C        -4.2230   -1.7390    2.3840 c3        1 SG7     -0.217000
     12 O3D        -3.2160    0.3910    2.2270 o         1 SG7     -0.345000
     13 O4A         0.4890   -0.5240    1.4580 os        1 SG7     -0.286000
     14 C4B         1.7060   -2.0040    3.1820 c3        1 SG7     -0.217000
     15 C4C         1.1000   -1.7800    1.7780 c2        1 SG7      0.315000
     16 O4D         1.2340   -2.6210    0.9230 o         1 SG7     -0.345000
     17 C5A         1.9590    0.9600   -0.5100 c3        1 SG7      0.034000
     18 O5B         2.3840    1.8900   -1.5610 os        1 SG7     -0.708000
     19 S5C         3.9070    2.2660   -1.5700 s4        1 SG7      2.039800
     20 O5D         4.3340    2.8680   -0.2410 o         1 SG7     -0.540400
     21 O5E         4.7760    1.0330   -1.6260 o         1 SG7     -0.540400
     22 N5F         4.2360    3.2900   -2.8270 n2        1 SG7     -0.971000
     23 H1         -0.7390   -0.6560   -2.2250 h2        1 SG7      0.171000
     24 H2         -2.7440    0.6980   -1.0630 h1        1 SG7      0.094000
     25 H3         -1.7110    0.6930    0.7970 h1        1 SG7      0.159000
     26 H4          0.2520   -1.2390   -0.2100 h1        1 SG7      0.152000
     27 H5          0.1960    1.6800    0.0730 h1        1 SG7      0.101000
     28 HO1A       -1.5130    0.4000   -3.9830 ho        1 SG7      0.207000
     29 HO2A       -3.6010   -1.1280   -1.7800 ho        1 SG7      0.215000
     30 H3C        -3.9390   -2.6590    2.1700 hc        1 SG7      0.119667
     31 H3CA       -5.0840   -1.5620    1.9720 hc        1 SG7      0.119667
     32 H3CB       -4.2990   -1.6400    3.3470 hc        1 SG7      0.119667
     33 H4B         1.5330   -1.2180    3.7420 hc        1 SG7      0.120667
     34 H4BA        1.2950   -2.7970    3.5950 hc        1 SG7      0.120667
     35 H4BB        2.6760   -2.1410    3.1020 hc        1 SG7      0.120667
     36 H5A         2.2970    0.0670   -0.7110 h1        1 SG7      0.124000
     37 H5AA        2.3130    1.2550    0.3440 h1        1 SG7      0.124000
     38 HN5F        4.0320    4.1770   -2.7570 hn        1 SG7      0.260000
     39 HN5A        4.6350    2.9730   -3.5810 hn        1 SG7      0.260000
@<TRIPOS>BOND
     1    1    2 1   
     2    1    3 1   
     3    1    7 1   
     4    1   23 1   
     5    2    6 1   
     6    3    4 1   
     7    3    8 1   
     8    3   24 1   
     9    4    5 1   
    10    4    9 1   
    11    4   25 1   
    12    5    6 1   
    13    5   13 1   
    14    5   26 1   
    15    6   17 1   
    16    6   27 1   
    17    7   28 1   
    18    8   29 1   
    19    9   10 1   
    20   10   11 1   
    21   10   12 1   
    22   11   30 1   
    23   11   31 1   
    24   11   32 1   
    25   13   15 1   
    26   14   15 1   
    27   14   33 1   
    28   14   34 1   
    29   14   35 1   
    30   15   16 1   
    31   17   18 1   
    32   17   36 1   
    33   17   37 1   
    34   18   19 1   
    35   19   20 1   
    36   19   21 1   
    37   22   38 1   
    38   22   39 1   
@<TRIPOS>SUBSTRUCTURE
     1 SG7         1 TEMP              0 ****  ****    0 ROOT
