@<TRIPOS>MOLECULE
SG8
   64    68     1     0     0
SMALL
bcc


@<TRIPOS>ATOM
      1 C4         -0.1790   -0.1140    1.1240 c2        1 SG8      0.143000
      2 C3          1.2240   -0.4010    1.5430 c3        1 SG8     -0.224000
      3 C2          1.6680    0.1160    2.8120 c1        1 SG8     -0.032000
      4 C1          0.7600    0.8810    3.6310 c2        1 SG8      0.075000
      5 O1         -4.4760    2.4330    4.7430 o         1 SG8     -0.273000
      6 F1         -0.5770   -0.5870   -0.0690 f         1 SG8     -0.068000
      7 S1         -2.6390    1.0430    1.6760 ss        1 SG8      0.444000
      8 N1         -5.5390    0.1310    2.9090 n3        1 SG8     -0.324000
      9 C10        -6.5290    1.0560    2.4230 c3        1 SG8     -0.016000
     10 C11        -5.8170   -0.7810    3.9090 c2        1 SG8      0.039000
     11 C12        -5.9700    2.3700    1.9360 c2        1 SG8     -0.062000
     12 C13        -6.7850    2.9790    0.8310 c3        1 SG8     -0.157000
     13 C14        -6.0350    3.9530   -0.0050 c2        1 SG8      0.099000
     14 C15        -5.0020    4.5900    0.5730 cv        1 SG8     -0.218000
     15 C16        -4.6010    4.3830    2.0610 cy        1 SG8      0.018000
     16 C17        -4.8960    2.9900    2.4750 c2        1 SG8     -0.153000
     17 C18        -5.6230   -2.4920    9.4630 c3        1 SG8     -0.237000
     18 C19        -6.4630   -2.5830    8.2170 c3        1 SG8     -0.194000
     19 F2          1.2390    1.3450    4.8020 f         1 SG8     -0.052000
     20 N2         -6.5460   -0.1110    7.7730 n4        1 SG8     -0.029000
     21 C20        -6.1730   -1.4640    7.2100 c3        1 SG8     -0.074000
     22 C21        -6.9160   -1.7540    5.8970 c3        1 SG8     -0.127000
     23 C22        -6.7560   -0.6920    4.8810 c2        1 SG8     -0.347000
     24 C23        -5.5720    0.9480    7.4300 c3        1 SG8     -0.200000
     25 C24        -2.0010    5.3140    2.0120 c2        1 SG8      0.047000
     26 C25        -1.2040    5.9810    0.9700 c2        1 SG8     -0.080000
     27 C26        -2.9230    5.9180   -0.6810 c3        1 SG8     -0.158000
     28 C27        -3.7520    5.2300    0.2970 cv        1 SG8      0.195000
     29 C28        -3.2530    4.9530    1.6420 cv        1 SG8     -0.167000
     30 N3         -1.6010    6.2580   -0.2340 n2        1 SG8     -0.063000
     31 C5         -1.0080    0.6080    1.9420 c2        1 SG8     -0.374000
     32 C6         -0.5430    1.1130    3.2250 c2        1 SG8     -0.051000
     33 C7         -2.7880    1.8400    3.1710 c2        1 SG8     -0.390000
     34 C8         -1.6280    1.8230    3.9020 c2        1 SG8     -0.028000
     35 C9         -4.0740    2.4170    3.5750 c2        1 SG8      0.363000
     36 H1          1.9500   -0.0280    0.7500 hc        1 SG8      0.216500
     37 H2          1.3940   -1.5270    1.5640 hc        1 SG8      0.216500
     38 H3         -7.1240    0.5790    1.5870 h1        1 SG8      0.111500
     39 H4         -7.2570    1.3050    3.2520 h1        1 SG8      0.111500
     40 H5         -5.1090   -1.6410    3.9110 h4        1 SG8      0.150000
     41 H6         -7.6800    3.5030    1.2840 hc        1 SG8      0.158500
     42 H7         -7.1920    2.1700    0.1600 hc        1 SG8      0.158500
     43 H8         -6.3310    4.0730   -1.0620 ha        1 SG8      0.182000
     44 H9         -5.1200    5.0900    2.7650 hc        1 SG8      0.165000
     45 H10        -4.5430   -2.3560    9.2140 hc        1 SG8      0.097000
     46 H11        -5.7240   -3.4410   10.0500 hc        1 SG8      0.097000
     47 H12        -5.9470   -1.6560   10.1290 hc        1 SG8      0.097000
     48 H13        -6.2390   -3.5540    7.6920 hc        1 SG8      0.125500
     49 H14        -7.5540   -2.6000    8.4800 hc        1 SG8      0.125500
     50 H16        -6.6150   -0.1880    8.7960 hn        1 SG8      0.245500
     51 H17        -5.0600   -1.4320    7.0070 hx        1 SG8      0.145000
     52 H18        -6.5150   -2.7350    5.5170 hc        1 SG8      0.122500
     53 H19        -8.0090   -1.9100    6.1110 hc        1 SG8      0.122500
     54 H20        -7.4930    0.1230    4.9180 ha        1 SG8      0.126000
     55 H21        -5.4720    1.0210    6.3090 hx        1 SG8      0.150000
     56 H22        -4.5730    0.7010    7.8780 hx        1 SG8      0.150000
     57 H23        -5.9340    1.9290    7.8400 hx        1 SG8      0.150000
     58 H26        -3.4260    6.8870   -1.0280 h1        1 SG8      0.234000
     59 H27        -2.8160    5.3050   -1.6400 h1        1 SG8      0.234000
     60 CL1        -1.4360    2.5500    5.3950 cl        1 SG8      0.089000
     61 H24        -1.5590    5.1500    3.0080 ha        1 SG8      0.199000
     62 H111       -4.8980   -0.1890    2.2100 hn        1 SG8      0.229000
     63 H221       -7.4700    0.1490    7.4080 hn        1 SG8      0.245500
     64 H25        -0.1650    6.2840    1.2340 h4        1 SG8      0.220000
@<TRIPOS>BOND
     1    1    2 1   
     2    1    6 1   
     3    1   31 1   
     4    2    3 1   
     5    2   36 1   
     6    2   37 1   
     7    3    4 1   
     8    4   19 1   
     9    4   32 1   
    10    5   35 1   
    11    7   31 1   
    12    7   33 1   
    13    8    9 1   
    14    8   10 1   
    15    8   62 1   
    16    9   11 1   
    17    9   38 1   
    18    9   39 1   
    19   10   23 1   
    20   10   40 1   
    21   11   12 1   
    22   11   16 1   
    23   12   13 1   
    24   12   41 1   
    25   12   42 1   
    26   13   14 1   
    27   13   43 1   
    28   14   15 1   
    29   14   28 1   
    30   15   16 1   
    31   15   29 1   
    32   15   44 1   
    33   16   35 1   
    34   17   18 1   
    35   17   45 1   
    36   17   46 1   
    37   17   47 1   
    38   18   21 1   
    39   18   48 1   
    40   18   49 1   
    41   20   21 1   
    42   20   24 1   
    43   20   50 1   
    44   20   63 1   
    45   21   22 1   
    46   21   51 1   
    47   22   23 1   
    48   22   52 1   
    49   22   53 1   
    50   23   54 1   
    51   24   55 1   
    52   24   56 1   
    53   24   57 1   
    54   25   26 1   
    55   25   29 1   
    56   25   61 1   
    57   26   30 1   
    58   26   64 1   
    59   27   28 1   
    60   27   30 1   
    61   27   58 1   
    62   27   59 1   
    63   28   29 1   
    64   31   32 1   
    65   32   34 1   
    66   33   34 1   
    67   33   35 1   
    68   34   60 1   
@<TRIPOS>SUBSTRUCTURE
     1 SG8         1 TEMP              0 ****  ****    0 ROOT
