@<TRIPOS>MOLECULE
SG8
   64    68     1     0     0
SMALL
bcc


@<TRIPOS>ATOM
      1 C4         -0.0400   -1.0150    0.3060 c2        1 SG8      0.185000
      2 C3          0.8800   -0.1360   -0.4740 c3        1 SG8     -0.216000
      3 C2          0.7710    1.2890   -0.2800 c1        1 SG8     -0.077000
      4 C1         -0.1260    1.8060    0.6970 c2        1 SG8      0.007000
      5 O1         -3.0950   -0.0030    5.3190 o         1 SG8     -0.287000
      6 F1         -0.0290   -2.3260    0.0260 f         1 SG8     -0.055000
      7 S1         -2.0150   -1.2590    2.2540 ss        1 SG8      0.579000
      8 N1         -4.8020    0.4100    3.8170 n         1 SG8     -0.279000
      9 C10        -5.2100    0.4690    2.4260 c3        1 SG8      0.010000
     10 C11        -5.8160    0.4400    4.7850 c2        1 SG8      0.005000
     11 C12        -5.1030    1.7960    1.7270 c2        1 SG8     -0.129000
     12 C13        -5.1500    1.6730    0.2270 c3        1 SG8     -0.147000
     13 C14        -4.3010    2.6960   -0.4460 c2        1 SG8      0.093000
     14 C15        -4.1810    3.8810    0.1760 cv        1 SG8     -0.217000
     15 C16        -4.9220    4.2110    1.5070 cy        1 SG8      0.002000
     16 C17        -4.9920    2.9900    2.3370 c2        1 SG8     -0.132000
     17 C18        -6.2820   -2.9760    8.6600 c3        1 SG8     -0.240000
     18 C19        -6.6800   -1.9400    7.6420 c3        1 SG8     -0.191000
     19 F2         -0.2180    3.1540    0.8160 f         1 SG8     -0.105000
     20 N2         -7.5950   -0.3050    9.3050 ny        1 SG8     -0.038000
     21 C20        -6.6080   -0.5060    8.1760 c3        1 SG8     -0.074000
     22 C21        -6.8460    0.4970    7.0330 c3        1 SG8     -0.129000
     23 C22        -5.6730    0.4960    6.1250 c2        1 SG8     -0.254000
     24 C23        -7.2330    0.8140   10.2010 c3        1 SG8     -0.199000
     25 C24        -3.3780    6.3050    2.4310 c2        1 SG8      0.036000
     26 C25        -2.2480    7.0420    1.8470 c2        1 SG8     -0.082000
     27 C26        -2.1490    5.7300   -0.1410 c3        1 SG8     -0.163000
     28 C27        -3.2890    4.9860    0.3660 cv        1 SG8      0.202000
     29 C28        -3.8660    5.2960    1.6740 cv        1 SG8     -0.166000
     30 N3         -1.6920    6.8020    0.6980 n2        1 SG8     -0.060000
     31 C5         -0.8750   -0.4720    1.2550 c2        1 SG8     -0.416000
     32 C6         -0.8680    0.9590    1.5100 c2        1 SG8      0.016000
     33 C7         -2.4640    0.1590    3.0390 c2        1 SG8     -0.344000
     34 C8         -1.7630    1.2610    2.6160 c2        1 SG8     -0.090000
     35 C9         -3.4520    0.1790    4.1470 c2        1 SG8      0.375000
     36 H1          1.9600   -0.4090   -0.2250 hc        1 SG8      0.215000
     37 H2          0.7840   -0.3620   -1.5820 hc        1 SG8      0.215000
     38 H3         -4.5890   -0.2840    1.8510 h1        1 SG8      0.118500
     39 H4         -6.2890    0.1360    2.3430 h1        1 SG8      0.118500
     40 H5         -6.8360    0.4140    4.3430 h4        1 SG8      0.143000
     41 H6         -6.2190    1.8020   -0.1190 hc        1 SG8      0.147000
     42 H7         -4.8240    0.6480   -0.1020 hc        1 SG8      0.147000
     43 H8         -3.7820    2.4230   -1.3800 ha        1 SG8      0.178000
     44 H9         -5.9420    4.6520    1.3590 hc        1 SG8      0.160000
     45 H10        -5.3350   -2.6920    9.1800 hc        1 SG8      0.099000
     46 H11        -6.1090   -3.9560    8.1460 hc        1 SG8      0.099000
     47 H12        -7.0800   -3.1420    9.4250 hc        1 SG8      0.099000
     48 H13        -5.9660   -1.9810    6.7710 hc        1 SG8      0.126000
     49 H14        -7.7040   -2.1590    7.2400 hc        1 SG8      0.126000
     50 H16        -7.6330   -1.1760    9.8530 hn        1 SG8      0.250500
     51 H17        -5.5800   -0.3310    8.6190 hx        1 SG8      0.156000
     52 H18        -6.9720    1.5360    7.4480 hc        1 SG8      0.102000
     53 H19        -7.7910    0.2290    6.4890 hc        1 SG8      0.102000
     54 H20        -4.6910    0.5590    6.6240 ha        1 SG8      0.177000
     55 H21        -6.2400    0.6040   10.6860 hx        1 SG8      0.149333
     56 H22        -8.0210    0.9200   10.9970 hx        1 SG8      0.149333
     57 H23        -7.1650    1.7670    9.6120 hx        1 SG8      0.149333
     58 H26        -2.3470    6.1600   -1.1800 h1        1 SG8      0.242000
     59 H27        -1.2550    5.0210   -0.2970 h1        1 SG8      0.242000
     60 Cl1        -1.8620    2.7720    3.3370 cl        1 SG8      0.050000
     61 H24        -3.7600    6.5990    3.4210 ha        1 SG8      0.193000
     62 H111       -4.9600    3.1140    3.4290 ha        1 SG8      0.163000
     63 H221       -8.5260   -0.1390    8.9060 hn        1 SG8      0.250500
     64 H25        -1.8270    7.8870    2.4360 h4        1 SG8      0.215000
@<TRIPOS>BOND
     1    1    2 1   
     2    1    6 1   
     3    1   31 1   
     4    2    3 1   
     5    2   36 1   
     6    2   37 1   
     7    3    4 1   
     8    4   19 1   
     9    4   32 1   
    10    5   35 1   
    11    7   31 1   
    12    7   33 1   
    13    8    9 1   
    14    8   10 1   
    15    8   35 1   
    16    9   11 1   
    17    9   38 1   
    18    9   39 1   
    19   10   23 1   
    20   10   40 1   
    21   11   12 1   
    22   11   16 1   
    23   12   13 1   
    24   12   41 1   
    25   12   42 1   
    26   13   14 1   
    27   13   43 1   
    28   14   15 1   
    29   14   28 1   
    30   15   16 1   
    31   15   29 1   
    32   15   44 1   
    33   16   62 1   
    34   17   18 1   
    35   17   45 1   
    36   17   46 1   
    37   17   47 1   
    38   18   21 1   
    39   18   48 1   
    40   18   49 1   
    41   20   21 1   
    42   20   24 1   
    43   20   50 1   
    44   20   63 1   
    45   21   22 1   
    46   21   51 1   
    47   22   23 1   
    48   22   52 1   
    49   22   53 1   
    50   23   54 1   
    51   24   55 1   
    52   24   56 1   
    53   24   57 1   
    54   25   26 1   
    55   25   29 1   
    56   25   61 1   
    57   26   30 1   
    58   26   64 1   
    59   27   28 1   
    60   27   30 1   
    61   27   58 1   
    62   27   59 1   
    63   28   29 1   
    64   31   32 1   
    65   32   34 1   
    66   33   34 1   
    67   33   35 1   
    68   34   60 1   
@<TRIPOS>SUBSTRUCTURE
     1 SG8         1 TEMP              0 ****  ****    0 ROOT
