@<TRIPOS>MOLECULE
SG8
   64    68     1     0     0
SMALL
bcc


@<TRIPOS>ATOM
      1 C4        151.5440   18.1430 -301.9620 c2        1 SG8      0.149000
      2 C3        152.2230   17.1020 -302.7890 c3        1 SG8     -0.212000
      3 C2        151.8720   15.7230 -302.5560 c1        1 SG8     -0.072000
      4 C1        150.8910   15.3910 -301.5680 c2        1 SG8      0.047000
      5 O1        148.1780   18.3010 -297.1520 o         1 SG8     -0.413000
      6 F1        151.8960   19.4220 -302.1730 f         1 SG8     -0.070000
      7 S1        149.7080   18.7870 -299.9840 ss        1 SG8      0.577000
      8 N1        146.5960   17.2770 -298.4680 n         1 SG8     -0.345000
      9 C10       145.5220   17.4360 -297.5280 c3        1 SG8      0.019000
     10 C11      -296.4070  -26.8080  576.2020 c2        1 SG8     -0.137000
     11 C12       145.4790   16.4630 -296.4090 c2        1 SG8     -0.025000
     12 C13       144.1690   16.1770 -295.6480 c3        1 SG8     -0.136000
     13 C14       144.5660   15.2240 -294.5080 c2        1 SG8     -0.034000
     14 C15       145.8750   15.0110 -294.6360 cu        1 SG8     -0.255000
     15 C16       147.3030   14.8990 -294.9800 cx        1 SG8      0.117000
     16 C17       146.4270   15.7540 -295.7950 cu        1 SG8     -0.270000
     17 C18      -294.9350  -26.7540  576.3590 c3        1 SG8     -0.138000
     18 C19      -294.4210  -27.7340  577.3990 c3        1 SG8     -0.181000
     19 F2        150.6080   14.0820 -301.3900 f         1 SG8     -0.068000
     20 N2       -294.7370  -28.5100  579.7620 n4        1 SG8     -0.036000
     21 C20      -295.3170  -27.6740  578.6410 c3        1 SG8     -0.079000
     22 C21      -296.7420  -28.1220  578.2860 c3        1 SG8     -0.142000
     23 C22      -297.2200  -27.4100  577.0730 c2        1 SG8     -0.184000
     24 C23      -295.2840  -28.1510  581.0880 c3        1 SG8     -0.198000
     25 C24       148.8770   14.8890 -293.0320 c2        1 SG8      0.087000
     26 C25       149.8740   15.5690 -292.2300 c2        1 SG8     -0.110000
     27 C26       149.7580   17.4990 -293.5650 c3        1 SG8     -0.212000
     28 C27       148.7380   16.8600 -294.4010 c2        1 SG8      0.109000
     29 C28       148.3190   15.5520 -294.1210 c2        1 SG8     -0.137000
     30 N3        150.2980   16.7810 -292.4620 n2        1 SG8     -0.028000
     31 C5        150.6050   17.7810 -301.0300 c2        1 SG8     -0.396000
     32 C6        150.2580   16.3810 -300.8300 c2        1 SG8     -0.005000
     33 C7        148.8740   17.5020 -299.2920 c2        1 SG8     -0.360000
     34 C8        149.2280   16.2790 -299.8050 c2        1 SG8     -0.088000
     35 C9        147.8740   17.7190 -298.2190 c2        1 SG8      0.388000
     36 H1        152.0320   17.3120 -303.8900 hc        1 SG8      0.203500
     37 H2        153.3480   17.1940 -302.6660 hc        1 SG8      0.203500
     38 H3        145.5980   18.4720 -297.0720 h1        1 SG8      0.124500
     39 H4        144.5510   17.3750 -298.1030 h1        1 SG8      0.124500
     40 H5        146.4320   16.7010 -299.2630 hn        1 SG8      0.250000
     41 H6        143.4260   15.6860 -296.3230 hc        1 SG8      0.136500
     42 H7        143.7340   17.1200 -295.2380 hc        1 SG8      0.136500
     43 H8        143.8390   14.8510 -293.7870 ha        1 SG8      0.174000
     44 H9        147.6660   13.9360 -295.4130 hc        1 SG8      0.164000
     45 H10      -296.8060  -26.2980  575.3080 ha        1 SG8      0.162000
     46 H11      -294.4390  -26.9850  575.3760 hc        1 SG8      0.122500
     47 H12      -294.6370  -25.7060  576.6400 hc        1 SG8      0.122500
     48 H13      -293.3610  -27.4710  577.6570 hc        1 SG8      0.107000
     49 H14      -294.4300  -28.7720  576.9730 hc        1 SG8      0.107000
     50 H16      -293.7180  -28.3820  579.7670 hn        1 SG8      0.247000
     51 H17      -295.3480  -26.6090  579.0220 hx        1 SG8      0.153000
     52 H18      -296.7730  -29.2290  578.0870 hc        1 SG8      0.110000
     53 H19      -297.4350  -27.9060  579.1430 hc        1 SG8      0.110000
     54 H20      -298.3130  -27.4310  576.9290 ha        1 SG8      0.162000
     55 H21      -295.0360  -27.0810  581.3220 hx        1 SG8      0.148667
     56 H22      -294.8320  -28.8210  581.8690 hx        1 SG8      0.148667
     57 H23      -296.4000  -28.2800  581.0830 hx        1 SG8      0.148667
     58 H26       149.3550   18.4980 -293.1640 h1        1 SG8      0.251500
     59 H27       150.6350   17.8360 -294.2270 h1        1 SG8      0.251500
     60 CL1       148.5560   14.8240 -299.3100 cl        1 SG8      0.054000
     61 H24       148.5770   13.8590 -292.7650 ha        1 SG8      0.201000
     62 H111      148.3060   17.4270 -295.2610 ha        1 SG8      0.247000
     63 H221     -294.9320  -29.5000  579.5670 hn        1 SG8      0.247000
     64 H25       150.3150   15.0350 -291.3590 h4        1 SG8      0.219000
@<TRIPOS>BOND
     1    1    2 1   
     2    1    6 1   
     3    1   31 1   
     4    2    3 1   
     5    2   36 1   
     6    2   37 1   
     7    3    4 1   
     8    4   19 1   
     9    4   32 1   
    10    5   35 1   
    11    7   31 1   
    12    7   33 1   
    13    8    9 1   
    14    8   35 1   
    15    8   40 1   
    16    9   11 1   
    17    9   38 1   
    18    9   39 1   
    19   10   17 1   
    20   10   23 1   
    21   10   45 1   
    22   11   12 1   
    23   11   16 1   
    24   12   13 1   
    25   12   41 1   
    26   12   42 1   
    27   13   14 1   
    28   13   43 1   
    29   14   15 1   
    30   14   16 1   
    31   15   16 1   
    32   15   29 1   
    33   15   44 1   
    34   17   18 1   
    35   17   46 1   
    36   17   47 1   
    37   18   21 1   
    38   18   48 1   
    39   18   49 1   
    40   20   21 1   
    41   20   24 1   
    42   20   50 1   
    43   20   63 1   
    44   21   22 1   
    45   21   51 1   
    46   22   23 1   
    47   22   52 1   
    48   22   53 1   
    49   23   54 1   
    50   24   55 1   
    51   24   56 1   
    52   24   57 1   
    53   25   26 1   
    54   25   29 1   
    55   25   61 1   
    56   26   30 1   
    57   26   64 1   
    58   27   28 1   
    59   27   30 1   
    60   27   58 1   
    61   27   59 1   
    62   28   29 1   
    63   28   62 1   
    64   31   32 1   
    65   32   34 1   
    66   33   34 1   
    67   33   35 1   
    68   34   60 1   
@<TRIPOS>SUBSTRUCTURE
     1 SG8         1 TEMP              0 ****  ****    0 ROOT
