@<TRIPOS>MOLECULE
SGA
   27    26     1     0     0
SMALL
bcc


@<TRIPOS>ATOM
      1 C1         -1.2640   -0.5630   -1.1070 c3        1 SGA      0.318900
      2 C2          0.2820   -0.4130   -1.2280 c3        1 SGA      0.119100
      3 C3          1.0150   -0.7160    0.0980 c3        1 SGA      0.164100
      4 C4          0.3470    0.4320    0.9330 c3        1 SGA      0.117100
      5 C5         -1.1770    0.2790    1.0400 c3        1 SGA      0.111100
      6 C6         -1.8510    1.6930    0.8970 c3        1 SGA      0.118400
      7 O1         -1.9090    0.5130   -1.8560 oh        1 SGA     -0.621800
      8 O2          0.7360   -1.2760   -2.1970 oh        1 SGA     -0.627800
      9 O3          2.3100   -0.5500   -0.0070 os        1 SGA     -0.614600
     10 O4          0.6320    1.6480    0.3250 oh        1 SGA     -0.628800
     11 O5         -1.6370   -0.5090    0.1090 os        1 SGA     -0.462600
     12 O6         -3.2450    1.5700    1.0850 oh        1 SGA     -0.617800
     13 S           3.1750   -1.6980    0.4710 s4        1 SGA      1.887600
     14 O1S         3.1210   -2.8900   -0.5180 o         1 SGA     -0.670900
     15 O2S         4.6860   -1.3250    0.4150 o         1 SGA     -0.670900
     16 O3S         2.7570   -2.1320    1.8950 os        1 SGA     -1.074000
     17 H1         -1.5350   -1.4290   -1.4880 h2        1 SGA      0.077700
     18 H2          0.4870    0.4950   -1.4970 h1        1 SGA      0.067700
     19 H3          0.7730   -1.6330    0.4580 h1        1 SGA      0.060700
     20 H4          0.7290    0.4330    1.8330 h1        1 SGA      0.048700
     21 H5         -1.3930   -0.0840    1.8900 h1        1 SGA      0.070700
     22 H61        -1.4670    2.3260    1.6010 h1        1 SGA      0.063700
     23 H62        -1.6740    2.0480    0.0130 h1        1 SGA      0.063700
     24 HO1        -2.4400    0.1550   -2.5070 ho        1 SGA      0.396000
     25 HO2         0.8970   -0.8230   -2.9490 ho        1 SGA      0.459000
     26 HO4         1.1990    2.1510    0.8810 ho        1 SGA      0.444000
     27 HO6        -3.5540    2.2970    1.4090 ho        1 SGA      0.402000
@<TRIPOS>BOND
     1    1    2 1   
     2    1    7 1   
     3    1   11 1   
     4    1   17 1   
     5    2    3 1   
     6    2    8 1   
     7    2   18 1   
     8    3    4 1   
     9    3    9 1   
    10    3   19 1   
    11    4    5 1   
    12    4   10 1   
    13    4   20 1   
    14    5    6 1   
    15    5   11 1   
    16    5   21 1   
    17    6   12 1   
    18    6   22 1   
    19    6   23 1   
    20    7   24 1   
    21    8   25 1   
    22    9   13 1   
    23   10   26 1   
    24   12   27 1   
    25   13   14 1   
    26   13   15 1   
@<TRIPOS>SUBSTRUCTURE
     1 SGA         1 TEMP              0 ****  ****    0 ROOT
