@<TRIPOS>MOLECULE
SGA
   27    27     1     0     0
SMALL
bcc


@<TRIPOS>ATOM
      1 C1         -1.5310   -0.3660    1.9920 c3        1 SGA      0.307900
      2 C2         -1.5790    0.1970    0.5560 c3        1 SGA      0.089100
      3 C3         -0.3560   -0.2230   -0.2790 c3        1 SGA      0.210100
      4 C4          0.9450   -0.0090    0.5320 c3        1 SGA      0.080100
      5 C5          0.8380   -0.6290    1.9250 c3        1 SGA      0.122100
      6 C6          2.0520   -0.2770    2.7880 c3        1 SGA      0.138400
      7 O1         -2.4320    0.3100    2.8370 oh        1 SGA     -0.614800
      8 O2         -2.7320   -0.3400   -0.0730 oh        1 SGA     -0.577800
      9 O3         -0.3260    0.5730   -1.4150 os        1 SGA     -0.606500
     10 O4          1.2460    1.3680    0.6760 oh        1 SGA     -0.622800
     11 O5         -0.2950   -0.1480    2.6530 os        1 SGA     -0.466600
     12 O6          1.9850   -0.8990    4.0570 oh        1 SGA     -0.619800
     13 S           0.7820    0.2870   -2.7280 s6        1 SGA      1.704300
     14 O1S         0.1110    0.8110   -3.8210 o         1 SGA     -0.748867
     15 O2S         1.8600    1.0240   -2.2320 o         1 SGA     -0.748867
     16 O3S         0.9410   -1.0950   -2.6770 o         1 SGA     -0.748867
     17 H1         -1.8230   -1.4520    2.0200 h2        1 SGA      0.073700
     18 H2         -1.6260    1.3200    0.5870 h1        1 SGA      0.063700
     19 H3         -0.4450   -1.3100   -0.5620 h1        1 SGA      0.056700
     20 H4          1.7880   -0.5110   -0.0290 h1        1 SGA      0.065700
     21 H5          0.7410   -1.7470    1.8200 h1        1 SGA      0.047700
     22 H61         2.1220    0.8370    2.9020 h1        1 SGA      0.062700
     23 H62         2.9830   -0.6760    2.3080 h1        1 SGA      0.062700
     24 HO1        -2.0620    1.1860    3.0130 ho        1 SGA      0.416000
     25 HO2        -3.4860    0.1100    0.3260 ho        1 SGA      0.390000
     26 HO4         1.3150    1.7200   -0.2300 ho        1 SGA      0.453000
     27 HO6         1.1330   -0.6570    4.4410 ho        1 SGA      0.410000
@<TRIPOS>BOND
     1    1    2 1   
     2    1    7 1   
     3    1   11 1   
     4    1   17 1   
     5    2    3 1   
     6    2    8 1   
     7    2   18 1   
     8    3    4 1   
     9    3    9 1   
    10    3   19 1   
    11    4    5 1   
    12    4   10 1   
    13    4   20 1   
    14    5    6 1   
    15    5   11 1   
    16    5   21 1   
    17    6   12 1   
    18    6   22 1   
    19    6   23 1   
    20    7   24 1   
    21    8   25 1   
    22    9   13 1   
    23   10   26 1   
    24   12   27 1   
    25   13   14 1   
    26   13   15 1   
    27   13   16 1   
@<TRIPOS>SUBSTRUCTURE
     1 SGA         1 TEMP              0 ****  ****    0 ROOT
