@<TRIPOS>MOLECULE
SGB
   29    28     1     0     0
SMALL
bcc


@<TRIPOS>ATOM
      1 N          -2.7330   -0.9330    2.4310 n3        1 SGB     -0.881800
      2 CA         -1.7850   -0.2840    1.5350 c3        1 SGB     -0.004500
      3 C          -2.0480    1.2440    1.3370 c         1 SGB      0.886600
      4 O          -1.4830    1.8190    0.3600 o         1 SGB     -0.844300
      5 CB         -1.6980   -0.9820    0.1650 c3        1 SGB      0.194400
      6 OG         -0.3690   -1.4090   -0.0680 os        1 SGB     -0.605200
      7 O1         -0.3200   -1.0280   -2.5850 o         1 SGB     -0.866300
      8 P1          0.4110   -0.8080   -1.3390 p5        1 SGB      1.572300
      9 C1          1.0350    0.6490   -1.0040 c3        1 SGB     -0.483300
     10 O2          1.7040   -1.7930   -1.2780 os        1 SGB     -0.588200
     11 C2          1.5040   -3.1390   -1.6500 c3        1 SGB      0.196100
     12 C4          2.4650   -3.4830   -2.7800 c3        1 SGB     -0.108100
     13 C3          1.7520   -4.0380   -0.4480 c3        1 SGB     -0.108100
     14 OXT        -2.7910    1.8320    2.1680 o         1 SGB     -0.844300
     15 HN1        -3.6380   -0.9370    1.9920 hn        1 SGB      0.334300
     16 HN2        -2.8170   -0.3490    3.2470 hn        1 SGB      0.334300
     17 HA         -0.7730   -0.3650    2.0310 h1        1 SGB      0.062700
     18 HBC1       -2.0060   -0.2760   -0.6550 h1        1 SGB      0.044200
     19 HBC2       -2.3430   -1.9050    0.1280 h1        1 SGB      0.044200
     20 H1C1        1.2310    1.2590   -1.9170 hc        1 SGB      0.130033
     21 H1C2        0.3250    1.2740   -0.3740 hc        1 SGB      0.130033
     22 H1C3        1.9910    0.6060   -0.4290 hc        1 SGB      0.130033
     23 H2          0.4400   -3.2630   -2.0100 h1        1 SGB      0.052700
     24 H4C1        2.3570   -4.5610   -3.0470 hc        1 SGB      0.037200
     25 H4C2        2.2420   -2.8610   -3.6780 hc        1 SGB      0.037200
     26 H4C3        3.5160   -3.2870   -2.4620 hc        1 SGB      0.037200
     27 H3C1        1.6130   -5.1050   -0.7430 hc        1 SGB      0.037200
     28 H3C2        1.0390   -3.7880    0.3740 hc        1 SGB      0.037200
     29 H3C3        2.7920   -3.8960   -0.0700 hc        1 SGB      0.037200
@<TRIPOS>BOND
     1    1    2 1   
     2    1   15 1   
     3    1   16 1   
     4    2    3 1   
     5    2    5 1   
     6    2   17 1   
     7    3    4 1   
     8    3   14 1   
     9    5    6 1   
    10    5   18 1   
    11    5   19 1   
    12    6    8 1   
    13    7    8 2   
    14    8    9 1   
    15    8   10 1   
    16    9   20 1   
    17    9   21 1   
    18    9   22 1   
    19   10   11 1   
    20   11   12 1   
    21   11   13 1   
    22   11   23 1   
    23   12   24 1   
    24   12   25 1   
    25   12   26 1   
    26   13   27 1   
    27   13   28 1   
    28   13   29 1   
@<TRIPOS>SUBSTRUCTURE
     1 SGB         1 TEMP              0 ****  ****    0 ROOT
