@<TRIPOS>MOLECULE
SGC
   24    24     1     0     0
SMALL
bcc


@<TRIPOS>ATOM
      1 C1          1.2500    0.4300   -1.2150 c3        1 SGC      0.313900
      2 O1          2.3410   -0.0130   -1.9750 oh        1 SGC     -0.594800
      3 C2         -0.0780   -0.1530   -1.7360 c3        1 SGC      0.050100
      4 O2         -0.4430    0.4510   -2.9630 oh        1 SGC     -0.600800
      5 C3         -1.2100    0.1550   -0.7420 c3        1 SGC      0.147100
      6 O3         -2.3890   -0.5430   -1.1130 oh        1 SGC     -0.606800
      7 C4         -0.8160   -0.3230    0.6530 c3        1 SGC     -0.007600
      8 C5          0.5370    0.2570    1.0540 c3        1 SGC      0.120100
      9 O5          1.5410   -0.0640    0.0840 os        1 SGC     -0.459600
     10 C6          1.0460   -0.3530    2.3680 c3        1 SGC      0.136400
     11 O6          2.2180    0.2970    2.8030 oh        1 SGC     -0.590800
     12 S4         -1.9860    0.1920    1.8910 sh        1 SGC     -0.369900
     13 H1          1.2560    1.5540   -1.2530 h2        1 SGC      0.090700
     14 H1O         2.5740   -0.9040   -1.6800 ho        1 SGC      0.427000
     15 H2          0.0200   -1.2660   -1.8760 h1        1 SGC      0.062700
     16 H2O         0.3240    0.3780   -3.5470 ho        1 SGC      0.425000
     17 H3         -1.4150    1.2630   -0.7390 h1        1 SGC      0.069700
     18 H3O        -2.5690   -0.3060   -2.0330 ho        1 SGC      0.431000
     19 H4         -0.7610   -1.4430    0.6450 h1        1 SGC      0.095700
     20 H5          0.4700    1.3780    1.1470 h1        1 SGC      0.076700
     21 H62         1.2300   -1.4510    2.2320 h1        1 SGC      0.067700
     22 H61         0.2870   -0.1800    3.1800 h1        1 SGC      0.067700
     23 H6          2.8810    0.1860    2.1080 ho        1 SGC      0.412000
     24 H4S        -3.1000   -0.2070    1.2890 hs        1 SGC      0.235800
@<TRIPOS>BOND
     1    1    2 1   
     2    1    3 1   
     3    1    9 1   
     4    1   13 1   
     5    2   14 1   
     6    3    4 1   
     7    3    5 1   
     8    3   15 1   
     9    4   16 1   
    10    5    6 1   
    11    5    7 1   
    12    5   17 1   
    13    6   18 1   
    14    7    8 1   
    15    7   12 1   
    16    7   19 1   
    17    8    9 1   
    18    8   10 1   
    19    8   20 1   
    20   10   11 1   
    21   10   21 1   
    22   10   22 1   
    23   11   23 1   
    24   12   24 1   
@<TRIPOS>SUBSTRUCTURE
     1 SGC         1 TEMP              0 ****  ****    0 ROOT
