@<TRIPOS>MOLECULE
SGE
   40    38     1     0     0
SMALL
bcc


@<TRIPOS>ATOM
      1 NAA        -1.2790   -0.1420   -0.3890 n3        1 SGE     -0.219000
      2 CAB        -1.2370   -0.1420    2.0940 c1        1 SGE     -0.086000
      3 CAC         0.1690   -0.1420   -0.3890 c2        1 SGE      0.051000
      4 CAD         0.8720   -0.1420    0.8260 c1        1 SGE     -0.071000
      5 CAE         0.8790   -0.1420   -1.6210 c2        1 SGE     -0.027000
      6 CAF         0.1440   -0.1420    2.0910 c1        1 SGE     -0.022000
      7 CAG        -1.9770   -0.1420    0.8210 c3        1 SGE     -0.022000
      8 CAH        -1.9440   -0.1420    3.3250 c1        1 SGE      0.017000
      9 CAI         0.1730   -0.1420   -2.8430 c2        1 SGE     -0.098000
     10 CAJ         2.2670   -0.1420   -1.6230 c1        1 SGE     -0.020000
     11 CAK         0.8750   -0.1420   -4.0610 c1        1 SGE      0.008000
     12 CAL         2.2670   -0.1420   -4.0620 c1        1 SGE      0.029000
     13 CAM         2.2810   -0.1420    0.8250 c1        1 SGE     -0.100000
     14 CAN         2.9710   -0.1420   -2.8450 c1        1 SGE     -0.124000
     15 CAO         0.8530   -0.1420    3.3140 c1        1 SGE     -0.119000
     16 CAP        -1.2470   -0.1420    4.5250 c1        1 SGE      0.014000
     17 OAQ        -3.3370   -0.1420    3.6260 os        1 SGE     -0.219000
     18 OAR         0.4340   -0.1420   -5.4170 os        1 SGE     -0.217000
     19 OAS         2.7050   -0.1420   -5.4180 os        1 SGE     -0.217000
     20 OAT        -2.1980   -0.1420    5.5870 os        1 SGE     -0.216000
     21 CAU        -3.4790   -0.1420    5.0200 c3        1 SGE      0.100000
     22 CAV         1.5690   -0.1420   -6.2410 c3        1 SGE      0.099000
     23 CAW         2.9800   -0.1420   -0.3870 c2        1 SGE     -0.132000
     24 CAX         0.1600   -0.1420    4.5210 c1        1 SGE     -0.112000
     25 CAY        -1.7560    1.0830   -0.9520 c3        1 SGE     -0.121000
     26 HAG        -2.5540   -0.9300    0.8220 h1        1 SGE      0.115000
     27 HAGA       -2.5540    0.6450    0.8220 h1        1 SGE      0.115000
     28 HAI        -0.8020   -0.1900   -2.8420 ha        1 SGE      0.170000
     29 HAM         2.7700   -0.1420    1.6700 ha        1 SGE      0.136000
     30 HAN         3.9470   -0.1440   -2.8450 ha        1 SGE      0.157000
     31 HAO         1.8290   -0.1420    3.3120 ha        1 SGE      0.141000
     32 HAU        -3.9650   -0.9410    5.3020 h2        1 SGE      0.112500
     33 HAUA       -3.9650    0.6560    5.3020 h2        1 SGE      0.112500
     34 HAV         1.5680    0.6560   -6.8030 h2        1 SGE      0.113000
     35 HAVA        1.5680   -0.9410   -6.8030 h2        1 SGE      0.113000
     36 HAW         3.9560   -0.1380   -0.3880 ha        1 SGE      0.137000
     37 HAX         0.6500   -0.1420    5.3660 ha        1 SGE      0.156000
     38 HAY        -1.7480    1.7800   -0.2690 h1        1 SGE      0.082000
     39 HAYA       -2.6670    0.9580   -1.2790 h1        1 SGE      0.082000
     40 HAYB       -1.1780    1.3470   -1.6930 h1        1 SGE      0.082000
@<TRIPOS>BOND
     1    1    3 1   
     2    1    7 1   
     3    1   25 1   
     4    2    7 1   
     5    2    8 1   
     6    3    4 1   
     7    3    5 1   
     8    5    9 1   
     9    5   10 1   
    10    6   15 1   
    11    7   26 1   
    12    7   27 1   
    13    8   17 1   
    14    9   11 1   
    15    9   28 1   
    16   10   23 1   
    17   11   18 1   
    18   12   14 1   
    19   12   19 1   
    20   13   23 1   
    21   13   29 1   
    22   14   30 1   
    23   15   31 1   
    24   16   20 1   
    25   16   24 1   
    26   17   21 1   
    27   18   22 1   
    28   19   22 1   
    29   20   21 1   
    30   21   32 1   
    31   21   33 1   
    32   22   34 1   
    33   22   35 1   
    34   23   36 1   
    35   24   37 1   
    36   25   38 1   
    37   25   39 1   
    38   25   40 1   
@<TRIPOS>SUBSTRUCTURE
     1 SGE         1 TEMP              0 ****  ****    0 ROOT
