@<TRIPOS>MOLECULE
SGE
   40    45     1     0     0
SMALL
bcc


@<TRIPOS>ATOM
      1 NAA        -0.0380   -0.0630    0.0220 nh        1 SGE     -0.617000
      2 CAB         0.0260   -0.4890    2.4690 ca        1 SGE     -0.093300
      3 CAC         1.3910    0.0030    0.0400 ca        1 SGE      0.132600
      4 CAD         2.1120   -0.0510    1.2450 ca        1 SGE     -0.071000
      5 CAE         2.0950    0.0740   -1.2120 ca        1 SGE     -0.027000
      6 CAF         1.3950   -0.1050    2.5180 ca        1 SGE     -0.022000
      7 CAG        -0.5970   -0.8000    1.1470 c3        1 SGE      0.222100
      8 CAH        -0.6480   -0.5470    3.6690 ca        1 SGE      0.062100
      9 CAI         1.3870    0.1020   -2.4600 ca        1 SGE     -0.098000
     10 CAJ         3.5160    0.1000   -1.2000 ca        1 SGE     -0.020000
     11 CAK         2.1320    0.1850   -3.5970 ca        1 SGE      0.053100
     12 CAL         3.5680    0.2340   -3.5780 ca        1 SGE      0.074100
     13 CAM         3.5260   -0.0670    1.2180 ca        1 SGE     -0.100000
     14 CAN         4.2730    0.1900   -2.4160 ca        1 SGE     -0.124000
     15 CAO         2.0000    0.2190    3.7350 ca        1 SGE     -0.119000
     16 CAP        -0.0130   -0.2350    4.9000 ca        1 SGE      0.059100
     17 OAQ        -1.9760   -0.8870    3.9100 os        1 SGE     -0.335900
     18 OAR         1.6980    0.2310   -4.9180 os        1 SGE     -0.333900
     19 OAS         4.0350    0.3160   -4.8840 os        1 SGE     -0.333900
     20 OAT        -0.9270   -0.3810    5.9380 os        1 SGE     -0.332900
     21 CAU        -2.1770   -0.7940    5.3390 c3        1 SGE      0.322200
     22 CAV         2.8760    0.3110   -5.7500 c3        1 SGE      0.321200
     23 CAW         4.2100    0.0180    0.0330 ca        1 SGE     -0.132000
     24 CAX         1.3080    0.1560    4.9580 ca        1 SGE     -0.112000
     25 CAY        -0.6830    1.2120   -0.2230 c3        1 SGE      0.155100
     26 HAG        -0.4360   -1.8970    0.9290 h1        1 SGE      0.075700
     27 HAGA       -1.7070   -0.6150    1.1960 h1        1 SGE      0.075700
     28 HAI         0.2900    0.0400   -2.4980 ha        1 SGE      0.170000
     29 HAM         4.0830   -0.1570    2.1640 ha        1 SGE      0.136000
     30 HAN         5.3700    0.2180   -2.3830 ha        1 SGE      0.157000
     31 HAO         3.0490    0.5500    3.7580 ha        1 SGE      0.141000
     32 HAU        -2.9460   -0.0090    5.5400 h2        1 SGE      0.073200
     33 HAUA       -2.4420   -1.8080    5.7290 h2        1 SGE      0.073200
     34 HAV         2.8500    1.2760   -6.3140 h2        1 SGE      0.073700
     35 HAVA        2.9200   -0.5990   -6.3970 h2        1 SGE      0.073700
     36 HAW         5.3110    0.0170    0.0210 ha        1 SGE      0.137000
     37 HAX         1.7980    0.4090    5.9070 ha        1 SGE      0.156000
     38 HAY        -0.6900    1.8830    0.6780 h1        1 SGE      0.042700
     39 HAYA       -0.1580    1.7430   -1.0600 h1        1 SGE      0.042700
     40 HAYB       -1.7440    1.0090   -0.5280 h1        1 SGE      0.042700
@<TRIPOS>BOND
     1    1    3 1   
     2    1    7 1   
     3    1   25 1   
     4    2    6 ar  
     5    2    7 1   
     6    2    8 ar  
     7    3    4 ar  
     8    3    5 ar  
     9    4    6 1   
    10    4   13 ar  
    11    5    9 ar  
    12    5   10 ar  
    13    6   15 ar  
    14    7   26 1   
    15    7   27 1   
    16    8   16 ar  
    17    8   17 1   
    18    9   11 ar  
    19    9   28 1   
    20   10   14 ar  
    21   10   23 ar  
    22   11   12 ar  
    23   11   18 1   
    24   12   14 ar  
    25   12   19 1   
    26   13   23 ar  
    27   13   29 1   
    28   14   30 1   
    29   15   24 ar  
    30   15   31 1   
    31   16   20 1   
    32   16   24 ar  
    33   17   21 1   
    34   18   22 1   
    35   19   22 1   
    36   20   21 1   
    37   21   32 1   
    38   21   33 1   
    39   22   34 1   
    40   22   35 1   
    41   23   36 1   
    42   24   37 1   
    43   25   38 1   
    44   25   39 1   
    45   25   40 1   
@<TRIPOS>SUBSTRUCTURE
     1 SGE         1 TEMP              0 ****  ****    0 ROOT
