@<TRIPOS>MOLECULE
SGE
   40    45     1     0     0
SMALL
bcc


@<TRIPOS>ATOM
      1 NAA         0.2060    1.3690   -0.0950 nh        1 SGE     -0.617000
      2 CAB         2.4340    0.3460    0.3110 ca        1 SGE     -0.093300
      3 CAC        -0.3570    0.0540   -0.0500 ca        1 SGE      0.132600
      4 CAD         0.4560   -1.0880    0.0480 ca        1 SGE     -0.071000
      5 CAE        -1.7880   -0.0860   -0.0540 ca        1 SGE     -0.027000
      6 CAF         1.9110   -0.9470    0.0340 ca        1 SGE     -0.022000
      7 CAG         1.4900    1.4710    0.5850 c3        1 SGE      0.222100
      8 CAH         3.8050    0.4780    0.3040 ca        1 SGE      0.062100
      9 CAI        -2.6440    1.0650   -0.1240 ca        1 SGE     -0.098000
     10 CAJ        -2.3520   -1.3870    0.0310 ca        1 SGE     -0.020000
     11 CAK        -3.9870    0.8410   -0.1380 ca        1 SGE      0.053100
     12 CAL        -4.5520   -0.4790   -0.0760 ca        1 SGE      0.074100
     13 CAM        -0.1390   -2.3650    0.1760 ca        1 SGE     -0.100000
     14 CAN        -3.7720   -1.5910    0.0120 ca        1 SGE     -0.124000
     15 CAO         2.7660   -2.0140   -0.2540 ca        1 SGE     -0.119000
     16 CAP         4.6620   -0.6210    0.0310 ca        1 SGE      0.059100
     17 OAQ         4.5750    1.6140    0.5380 os        1 SGE     -0.335900
     18 OAR        -5.0220    1.7690   -0.2050 os        1 SGE     -0.333900
     19 OAS        -5.9370   -0.3810   -0.1090 os        1 SGE     -0.333900
     20 OAT         5.9850   -0.1990    0.0950 os        1 SGE     -0.332900
     21 CAU         5.9590    1.2120    0.4150 c3        1 SGE      0.322200
     22 CAV        -6.2610    1.0270   -0.1860 c3        1 SGE      0.321200
     23 CAW        -1.5020   -2.5140    0.1550 ca        1 SGE     -0.132000
     24 CAX         4.1660   -1.8750   -0.2560 ca        1 SGE     -0.112000
     25 CAY         0.1910    1.9700   -1.4140 c3        1 SGE      0.155100
     26 HAG         1.9750    2.4510    0.3130 h1        1 SGE      0.075700
     27 HAGA        1.2700    1.4870    1.6940 h1        1 SGE      0.075700
     28 HAI        -2.2340    2.0840   -0.1480 ha        1 SGE      0.170000
     29 HAM         0.5040   -3.2500    0.2990 ha        1 SGE      0.136000
     30 HAN        -4.1860   -2.6050    0.0700 ha        1 SGE      0.157000
     31 HAO         2.3500   -3.0020   -0.5010 ha        1 SGE      0.141000
     32 HAU         6.4220    1.7780   -0.4300 h2        1 SGE      0.073200
     33 HAUA        6.4630    1.3630    1.4020 h2        1 SGE      0.073200
     34 HAV        -6.8330    1.3110    0.7310 h2        1 SGE      0.073700
     35 HAVA       -6.8040    1.2140   -1.1440 h2        1 SGE      0.073700
     36 HAW        -1.9570   -3.5130    0.2420 ha        1 SGE      0.137000
     37 HAX         4.8250   -2.7240   -0.4790 ha        1 SGE      0.156000
     38 HAY        -0.8070    1.7940   -1.8950 h1        1 SGE      0.042700
     39 HAYA        0.3480    3.0740   -1.2910 h1        1 SGE      0.042700
     40 HAYB        0.9900    1.5650   -2.0920 h1        1 SGE      0.042700
@<TRIPOS>BOND
     1    1    3 1   
     2    1    7 1   
     3    1   25 1   
     4    2    6 ar  
     5    2    7 1   
     6    2    8 ar  
     7    3    4 ar  
     8    3    5 ar  
     9    4    6 1   
    10    4   13 ar  
    11    5    9 ar  
    12    5   10 ar  
    13    6   15 ar  
    14    7   26 1   
    15    7   27 1   
    16    8   16 ar  
    17    8   17 1   
    18    9   11 ar  
    19    9   28 1   
    20   10   14 ar  
    21   10   23 ar  
    22   11   12 ar  
    23   11   18 1   
    24   12   14 ar  
    25   12   19 1   
    26   13   23 ar  
    27   13   29 1   
    28   14   30 1   
    29   15   24 ar  
    30   15   31 1   
    31   16   20 1   
    32   16   24 ar  
    33   17   21 1   
    34   18   22 1   
    35   19   22 1   
    36   20   21 1   
    37   21   32 1   
    38   21   33 1   
    39   22   34 1   
    40   22   35 1   
    41   23   36 1   
    42   24   37 1   
    43   25   38 1   
    44   25   39 1   
    45   25   40 1   
@<TRIPOS>SUBSTRUCTURE
     1 SGE         1 TEMP              0 ****  ****    0 ROOT
