@<TRIPOS>MOLECULE
SGF
   82    82     1     0     0
SMALL
bcc


@<TRIPOS>ATOM
      1 C17        17.0420    2.4050   -0.4970 c3        1 SGF     -0.092100
      2 C16        15.6780    2.5330    0.1300 c3        1 SGF     -0.080400
      3 C15        14.7090    1.5160   -0.4340 c3        1 SGF     -0.079400
      4 C14        13.3410    1.6490    0.1990 c3        1 SGF     -0.079400
      5 C13        12.3730    0.6310   -0.3660 c3        1 SGF     -0.078400
      6 C12        11.0040    0.7640    0.2670 c3        1 SGF     -0.079400
      7 C11        10.0360   -0.2540   -0.2970 c3        1 SGF     -0.078400
      8 C10         8.6680   -0.1200    0.3360 c3        1 SGF     -0.079400
      9 C9          7.6990   -1.1380   -0.2290 c3        1 SGF     -0.078400
     10 C8          6.3310   -1.0040    0.4040 c3        1 SGF     -0.079400
     11 C7          5.3620   -2.0210   -0.1600 c3        1 SGF     -0.079400
     12 C6          3.9940   -1.8870    0.4740 c3        1 SGF     -0.076400
     13 C5          3.0260   -2.9070   -0.0930 c3        1 SGF     -0.045200
     14 C4          1.6900   -2.7980    0.5380 c2        1 SGF     -0.177200
     15 C3          0.5450   -2.8140   -0.1500 c2        1 SGF     -0.190200
     16 C2         -0.8050   -2.7420    0.4850 c3        1 SGF      0.173300
     17 O1         -0.7380   -2.3900    1.8590 oh        1 SGF     -0.600800
     18 C1         -1.7280   -1.7510   -0.2770 c3        1 SGF      0.134500
     19 C          -3.0330   -1.5990    0.5370 c3        1 SGF      0.095400
     20 O          -3.8020   -0.6050   -0.1390 os        1 SGF     -0.410600
     21 C43        -5.0960   -0.4300    0.4070 c3        1 SGF      0.344900
     22 C44        -5.6820    0.8610   -0.1920 c3        1 SGF      0.115100
     23 O3         -5.0430    1.9250    0.4890 oh        1 SGF     -0.625800
     24 O6         -5.7490   -1.6110   -0.0510 os        1 SGF     -0.467600
     25 C47        -7.1580   -1.6150    0.1750 c3        1 SGF      0.113100
     26 C48        -7.6590   -2.9310   -0.4280 c3        1 SGF      0.139400
     27 O7         -7.0400   -4.0490    0.1810 oh        1 SGF     -0.617800
     28 C46        -7.8670   -0.4120   -0.4530 c3        1 SGF      0.111100
     29 O5         -7.8510   -0.5490   -1.8640 oh        1 SGF     -0.618800
     30 C45        -7.2120    0.9030    0.0100 c3        1 SGF      0.159100
     31 O4         -7.7340    1.9330   -0.7610 os        1 SGF     -0.617500
     32 S          -8.4290    3.3620   -0.0340 s6        1 SGF      1.707300
     33 O10        -9.0770    3.9340   -1.1150 o         1 SGF     -0.744533
     34 O9         -9.2210    2.8010    0.9610 o         1 SGF     -0.744533
     35 O8         -7.2560    3.9720    0.4060 o         1 SGF     -0.744533
     36 N          -1.9290   -2.1450   -1.6580 n3        1 SGF     -0.896800
     37 H1         17.7400    3.1640   -0.0680 hc        1 SGF      0.031367
     38 H2         17.4680    1.3890   -0.3120 hc        1 SGF      0.031367
     39 H3         16.9850    2.5630   -1.6020 hc        1 SGF      0.031367
     40 H4         15.7590    2.3960    1.2400 hc        1 SGF      0.038200
     41 H5         15.2780    3.5670   -0.0460 hc        1 SGF      0.038200
     42 H6         14.6250    1.6530   -1.5440 hc        1 SGF      0.039200
     43 H7         15.1070    0.4810   -0.2580 hc        1 SGF      0.039200
     44 H8         13.4250    1.5120    1.3090 hc        1 SGF      0.039200
     45 H9         12.9440    2.6830    0.0220 hc        1 SGF      0.039200
     46 H10        12.2880    0.7670   -1.4760 hc        1 SGF      0.039200
     47 H11        12.7700   -0.4040   -0.1890 hc        1 SGF      0.039200
     48 H12        11.0880    0.6270    1.3780 hc        1 SGF      0.039700
     49 H13        10.6070    1.7980    0.0910 hc        1 SGF      0.039700
     50 H14         9.9520   -0.1170   -1.4080 hc        1 SGF      0.038700
     51 H15        10.4330   -1.2880   -0.1210 hc        1 SGF      0.038700
     52 H16         8.7520   -0.2570    1.4460 hc        1 SGF      0.039700
     53 H17         8.2710    0.9140    0.1600 hc        1 SGF      0.039700
     54 H18         7.6140   -1.0000   -1.3390 hc        1 SGF      0.038700
     55 H19         8.0960   -2.1720   -0.0540 hc        1 SGF      0.038700
     56 H20         6.4150   -1.1420    1.5150 hc        1 SGF      0.040200
     57 H21         5.9340    0.0300    0.2290 hc        1 SGF      0.040200
     58 H22         5.2770   -1.8830   -1.2700 hc        1 SGF      0.038200
     59 H23         5.7590   -3.0560    0.0140 hc        1 SGF      0.038200
     60 H24         4.0790   -2.0240    1.5840 hc        1 SGF      0.042200
     61 H25         3.5960   -0.8540    0.2970 hc        1 SGF      0.042200
     62 H26         2.9530   -2.7740   -1.2060 hc        1 SGF      0.043700
     63 H27         3.4280   -3.9420    0.0890 hc        1 SGF      0.043700
     64 H28         1.6910   -2.7170    1.6390 ha        1 SGF      0.126000
     65 H29         0.5340   -2.8990   -1.2500 ha        1 SGF      0.147000
     66 H30        -1.2700   -3.7710    0.4960 h1        1 SGF      0.079700
     67 H31        -0.3850   -1.4930    1.9080 ho        1 SGF      0.402000
     68 H32        -1.2180   -0.7420   -0.2910 h1        1 SGF      0.071700
     69 H33        -3.5970   -2.5670    0.5770 h1        1 SGF      0.041700
     70 H34        -2.8070   -1.2560    1.5800 h1        1 SGF      0.041700
     71 H35        -5.0840   -0.4030    1.5310 h2        1 SGF      0.047700
     72 H36        -5.4460    0.9150   -1.2900 h1        1 SGF      0.068700
     73 H37        -5.5780    2.7250    0.3400 ho        1 SGF      0.458000
     74 H38        -7.3390   -1.5990    1.2870 h1        1 SGF      0.044700
     75 H39        -8.7540   -3.0480   -0.2230 h1        1 SGF      0.060700
     76 H40        -7.4690   -2.9350   -1.5340 h1        1 SGF      0.060700
     77 H41        -6.0870   -3.9110    0.1110 ho        1 SGF      0.409000
     78 H42        -8.9440   -0.4130   -0.1180 h1        1 SGF      0.053700
     79 H43        -7.8910    0.3490   -2.2290 ho        1 SGF      0.439000
     80 H44        -7.4410    1.0660    1.1030 h1        1 SGF      0.055700
     81 H45        -2.4680   -2.9890   -1.6990 hn        1 SGF      0.355800
     82 H46        -2.4440   -1.4220   -2.1270 hn        1 SGF      0.355800
@<TRIPOS>BOND
     1    1    2 1   
     2    1   37 1   
     3    1   38 1   
     4    1   39 1   
     5    2    3 1   
     6    2   40 1   
     7    2   41 1   
     8    3    4 1   
     9    3   42 1   
    10    3   43 1   
    11    4    5 1   
    12    4   44 1   
    13    4   45 1   
    14    5    6 1   
    15    5   46 1   
    16    5   47 1   
    17    6    7 1   
    18    6   48 1   
    19    6   49 1   
    20    7    8 1   
    21    7   50 1   
    22    7   51 1   
    23    8    9 1   
    24    8   52 1   
    25    8   53 1   
    26    9   10 1   
    27    9   54 1   
    28    9   55 1   
    29   10   11 1   
    30   10   56 1   
    31   10   57 1   
    32   11   12 1   
    33   11   58 1   
    34   11   59 1   
    35   12   13 1   
    36   12   60 1   
    37   12   61 1   
    38   13   14 1   
    39   13   62 1   
    40   13   63 1   
    41   14   15 2   
    42   14   64 1   
    43   15   16 1   
    44   15   65 1   
    45   16   17 1   
    46   16   18 1   
    47   16   66 1   
    48   17   67 1   
    49   18   19 1   
    50   18   36 1   
    51   18   68 1   
    52   19   20 1   
    53   19   69 1   
    54   19   70 1   
    55   20   21 1   
    56   21   22 1   
    57   21   24 1   
    58   21   71 1   
    59   22   23 1   
    60   22   30 1   
    61   22   72 1   
    62   23   73 1   
    63   24   25 1   
    64   25   26 1   
    65   25   28 1   
    66   25   74 1   
    67   26   27 1   
    68   26   75 1   
    69   26   76 1   
    70   27   77 1   
    71   28   29 1   
    72   28   30 1   
    73   28   78 1   
    74   29   79 1   
    75   30   31 1   
    76   30   80 1   
    77   31   32 1   
    78   32   33 1   
    79   32   34 1   
    80   32   35 1   
    81   36   81 1   
    82   36   82 1   
@<TRIPOS>SUBSTRUCTURE
     1 SGF         1 TEMP              0 ****  ****    0 ROOT
