@<TRIPOS>MOLECULE
SGF
   83    83     1     0     0
SMALL
bcc


@<TRIPOS>ATOM
      1 C17         0.5090    1.5040    0.6740 c3        1 SGF     -0.093100
      2 C16         2.0050    1.3410    0.5940 c3        1 SGF     -0.080400
      3 C15         2.6150    1.1250    1.9630 c3        1 SGF     -0.079400
      4 C14         4.1170    0.9620    1.8770 c3        1 SGF     -0.079400
      5 C13         4.7250    0.7460    3.2470 c3        1 SGF     -0.078400
      6 C12         6.2280    0.5810    3.1610 c3        1 SGF     -0.079400
      7 C11         6.8360    0.3650    4.5300 c3        1 SGF     -0.078400
      8 C10         8.3380    0.1990    4.4430 c3        1 SGF     -0.079400
      9 C9          8.9450   -0.0180    5.8120 c3        1 SGF     -0.078400
     10 C8         10.4470   -0.1860    5.7250 c3        1 SGF     -0.079400
     11 C7         11.0540   -0.4040    7.0940 c3        1 SGF     -0.079400
     12 C6         12.5560   -0.5750    7.0050 c3        1 SGF     -0.077400
     13 C5         13.1590   -0.7910    8.3790 c3        1 SGF     -0.066200
     14 C4         14.6260   -0.9920    8.3090 c2        1 SGF     -0.109200
     15 C3         15.4830   -0.4800    9.1980 c2        1 SGF     -0.282200
     16 C2         16.9570   -0.7120    9.1700 c3        1 SGF      0.164300
     17 O1         17.3440   -1.6750    8.1950 oh        1 SGF     -0.618800
     18 C1         17.7460    0.5650    8.7850 c3        1 SGF      0.081500
     19 C          17.7070    1.5840    9.9530 c3        1 SGF      0.118400
     20 O          17.6140    2.9140    9.4910 os        1 SGF     -0.395600
     21 C43        18.8270    3.4390    8.9580 c3        1 SGF      0.311900
     22 C44        18.4760    4.4050    7.8140 c3        1 SGF      0.101100
     23 O3         17.8000    3.6630    6.8180 oh        1 SGF     -0.701800
     24 O6         19.3680    4.1200   10.0700 os        1 SGF     -0.419600
     25 C47        20.5690    4.8460    9.7540 c3        1 SGF      0.145100
     26 C48        20.8860    5.6600   11.0100 c3        1 SGF      0.138400
     27 O7         21.6430    4.8190   11.8680 oh        1 SGF     -0.611800
     28 C46        20.4440    5.7600    8.5240 c3        1 SGF      0.105100
     29 O5         19.6750    6.8960    8.8740 oh        1 SGF     -0.611800
     30 C45        19.8180    5.0010    7.3360 c3        1 SGF      0.164100
     31 O4         19.5970    5.8690    6.2860 os        1 SGF     -0.600500
     32 S          20.1440    5.4150    4.6710 s6        1 SGF      1.710300
     33 O10        19.2930    4.3110    4.5170 o         1 SGF     -0.737867
     34 O9         19.8550    6.5490    3.9470 o         1 SGF     -0.737867
     35 O8         21.4630    5.0880    4.9320 o         1 SGF     -0.737867
     36 N          17.2460    1.1270    7.4950 nz        1 SGF     -0.828600
     37 H1          0.2420    2.3840    1.3090 hc        1 SGF      0.032700
     38 H2          0.0810    1.6620   -0.3450 hc        1 SGF      0.032700
     39 H3          0.0370    0.5960    1.1190 hc        1 SGF      0.032700
     40 H4          2.4590    2.2530    0.1230 hc        1 SGF      0.038700
     41 H5          2.2540    0.4690   -0.0670 hc        1 SGF      0.038700
     42 H6          2.1630    0.2140    2.4360 hc        1 SGF      0.039200
     43 H7          2.3680    1.9970    2.6250 hc        1 SGF      0.039200
     44 H8          4.3630    0.0900    1.2150 hc        1 SGF      0.040200
     45 H9          4.5690    1.8740    1.4050 hc        1 SGF      0.040200
     46 H10         4.2740   -0.1660    3.7190 hc        1 SGF      0.039200
     47 H11         4.4800    1.6170    3.9090 hc        1 SGF      0.039200
     48 H12         6.6790    1.4940    2.6880 hc        1 SGF      0.040700
     49 H13         6.4730   -0.2900    2.4980 hc        1 SGF      0.040700
     50 H14         6.3830   -0.5460    5.0030 hc        1 SGF      0.039700
     51 H15         6.5910    1.2370    5.1920 hc        1 SGF      0.039700
     52 H16         8.5820   -0.6720    3.7800 hc        1 SGF      0.041200
     53 H17         8.7900    1.1110    3.9710 hc        1 SGF      0.041200
     54 H18         8.7020    0.8550    6.4740 hc        1 SGF      0.040700
     55 H19         8.4920   -0.9290    6.2850 hc        1 SGF      0.040700
     56 H20        10.9000    0.7260    5.2520 hc        1 SGF      0.042700
     57 H21        10.6900   -1.0580    5.0620 hc        1 SGF      0.042700
     58 H22        10.5990   -1.3130    7.5670 hc        1 SGF      0.044200
     59 H23        10.8130    0.4700    7.7560 hc        1 SGF      0.044200
     60 H24        13.0090    0.3350    6.5320 hc        1 SGF      0.043200
     61 H25        12.7960   -1.4490    6.3430 hc        1 SGF      0.043200
     62 H26        12.9050    0.0780    9.0430 hc        1 SGF      0.064200
     63 H27        12.7000   -1.7070    8.8470 hc        1 SGF      0.064200
     64 H28        14.9790   -1.6170    7.4690 ha        1 SGF      0.131000
     65 H29        15.1330    0.1380   10.0420 ha        1 SGF      0.149000
     66 H30        17.3130   -1.0360   10.1910 h1        1 SGF      0.082700
     67 H31        16.9670   -2.5230    8.4630 ho        1 SGF      0.435000
     68 H32        18.8190    0.2540    8.5990 hx        1 SGF      0.114700
     69 H33        16.7770    1.4440   10.5690 h1        1 SGF      0.087700
     70 H34        18.6190    1.4290   10.5880 h1        1 SGF      0.087700
     71 H35        19.5210    2.6200    8.6120 h2        1 SGF      0.021700
     72 H36        17.7970    5.2220    8.1840 h1        1 SGF      0.095700
     73 H37        17.9930    4.0760    5.9540 ho        1 SGF      0.495000
     74 H38        21.3850    4.0930    9.5580 h1        1 SGF      0.061700
     75 H39        19.9330    5.9860   11.5050 h1        1 SGF      0.054200
     76 H40        21.4920    6.5610   10.7260 h1        1 SGF      0.054200
     77 H41        21.7150    5.2820   12.7100 ho        1 SGF      0.403000
     78 H42        21.4770    6.1010    8.2270 h1        1 SGF      0.070700
     79 H43        19.3990    7.3040    8.0380 ho        1 SGF      0.440000
     80 H44        20.5120    4.1660    7.0230 h1        1 SGF      0.046700
     81 H45        16.8970    0.3750    6.8980 hn        1 SGF      0.474467
     82 H46        16.5030    1.8160    7.6780 hn        1 SGF      0.474467
     83 HN3        18.0040    1.6480    7.0130 hn        1 SGF      0.474467
@<TRIPOS>BOND
     1    1    2 1   
     2    1   37 1   
     3    1   38 1   
     4    1   39 1   
     5    2    3 1   
     6    2   40 1   
     7    2   41 1   
     8    3    4 1   
     9    3   42 1   
    10    3   43 1   
    11    4    5 1   
    12    4   44 1   
    13    4   45 1   
    14    5    6 1   
    15    5   46 1   
    16    5   47 1   
    17    6    7 1   
    18    6   48 1   
    19    6   49 1   
    20    7    8 1   
    21    7   50 1   
    22    7   51 1   
    23    8    9 1   
    24    8   52 1   
    25    8   53 1   
    26    9   10 1   
    27    9   54 1   
    28    9   55 1   
    29   10   11 1   
    30   10   56 1   
    31   10   57 1   
    32   11   12 1   
    33   11   58 1   
    34   11   59 1   
    35   12   13 1   
    36   12   60 1   
    37   12   61 1   
    38   13   14 1   
    39   13   62 1   
    40   13   63 1   
    41   14   15 2   
    42   14   64 1   
    43   15   16 1   
    44   15   65 1   
    45   16   17 1   
    46   16   18 1   
    47   16   66 1   
    48   17   67 1   
    49   18   19 1   
    50   18   36 1   
    51   18   68 1   
    52   19   20 1   
    53   19   69 1   
    54   19   70 1   
    55   20   21 1   
    56   21   22 1   
    57   21   24 1   
    58   21   71 1   
    59   22   23 1   
    60   22   30 1   
    61   22   72 1   
    62   23   73 1   
    63   24   25 1   
    64   25   26 1   
    65   25   28 1   
    66   25   74 1   
    67   26   27 1   
    68   26   75 1   
    69   26   76 1   
    70   27   77 1   
    71   28   29 1   
    72   28   30 1   
    73   28   78 1   
    74   29   79 1   
    75   30   31 1   
    76   30   80 1   
    77   31   32 1   
    78   32   33 1   
    79   32   34 1   
    80   32   35 1   
    81   36   81 1   
    82   36   82 1   
    83   36   83 1   
@<TRIPOS>SUBSTRUCTURE
     1 SGF         1 TEMP              0 ****  ****    0 ROOT
