@<TRIPOS>MOLECULE
SGF
   83    83     1     0     0
SMALL
bcc


@<TRIPOS>ATOM
      1 C17         0.5020    0.7850    0.3120 c3        1 SGF     -0.093100
      2 C16         1.4110   -0.0410    1.1850 c3        1 SGF     -0.080400
      3 C15         2.6700    0.7180    1.5500 c3        1 SGF     -0.079400
      4 C14         3.5800   -0.1160    2.4270 c3        1 SGF     -0.079400
      5 C13         4.8380    0.6440    2.7910 c3        1 SGF     -0.079400
      6 C12         5.7480   -0.1900    3.6670 c3        1 SGF     -0.078400
      7 C11         7.0060    0.5700    4.0310 c3        1 SGF     -0.079400
      8 C10         7.9160   -0.2630    4.9080 c3        1 SGF     -0.078400
      9 C9          9.1740    0.4970    5.2710 c3        1 SGF     -0.079400
     10 C8         10.0840   -0.3370    6.1470 c3        1 SGF     -0.078400
     11 C7         11.3410    0.4240    6.5100 c3        1 SGF     -0.081400
     12 C6         12.2500   -0.4130    7.3850 c3        1 SGF     -0.073400
     13 C5         13.5100    0.3540    7.7480 c3        1 SGF     -0.081200
     14 C4         14.3950   -0.4530    8.6200 c2        1 SGF     -0.120200
     15 C3         15.7150   -0.6310    8.5170 c2        1 SGF     -0.266200
     16 C2         16.6600   -0.1020    7.4910 c3        1 SGF      0.166300
     17 O1         16.0790    0.0790    6.2060 oh        1 SGF     -0.613800
     18 C1         17.2250    1.2840    7.8780 c3        1 SGF      0.082500
     19 C          18.0160    1.1920    9.2020 c3        1 SGF      0.122400
     20 O          18.3030    2.4830    9.6910 os        1 SGF     -0.414600
     21 C43        19.4170    3.1330    9.0670 c3        1 SGF      0.327900
     22 C44        18.9250    4.4580    8.4610 c3        1 SGF      0.084100
     23 O3         18.0980    4.1090    7.3640 oh        1 SGF     -0.715800
     24 O6         20.2490    3.3260   10.1920 os        1 SGF     -0.426600
     25 C47        21.3990    4.1410    9.9090 c3        1 SGF      0.107100
     26 C48        22.0930    4.3220   11.2630 c3        1 SGF      0.140400
     27 O7         22.4690    3.0770   11.8130 oh        1 SGF     -0.603800
     28 C46        21.0570    5.4920    9.2740 c3        1 SGF      0.109100
     29 O5         20.4430    6.3140   10.2510 oh        1 SGF     -0.611800
     30 C45        20.1420    5.3100    8.0440 c3        1 SGF      0.172100
     31 O4         19.6980    6.5530    7.6360 os        1 SGF     -0.613500
     32 S          19.7060    7.0390    5.9440 s6        1 SGF      1.715300
     33 O10        18.5900    6.2940    5.5470 o         1 SGF     -0.736867
     34 O9         19.5580    8.4030    6.0480 o         1 SGF     -0.736867
     35 O8         20.9240    6.5160    5.5440 o         1 SGF     -0.736867
     36 N          16.1420    2.3110    7.9500 n4        1 SGF     -0.825600
     37 H1          0.1960    1.7230    0.8370 hc        1 SGF      0.033033
     38 H2         -0.4190    0.2080    0.0550 hc        1 SGF      0.033033
     39 H3          1.0170    1.0690   -0.6370 hc        1 SGF      0.033033
     40 H4          1.6880   -0.9880    0.6510 hc        1 SGF      0.038700
     41 H5          0.8680   -0.3360    2.1220 hc        1 SGF      0.038700
     42 H6          2.3960    1.6650    2.0850 hc        1 SGF      0.039700
     43 H7          3.2150    1.0130    0.6150 hc        1 SGF      0.039700
     44 H8          3.8540   -1.0630    1.8910 hc        1 SGF      0.039700
     45 H9          3.0350   -0.4100    3.3620 hc        1 SGF      0.039700
     46 H10         5.3830    0.9390    1.8560 hc        1 SGF      0.040700
     47 H11         4.5640    1.5910    3.3260 hc        1 SGF      0.040700
     48 H12         6.0220   -1.1370    3.1320 hc        1 SGF      0.039700
     49 H13         5.2030   -0.4840    4.6030 hc        1 SGF      0.039700
     50 H14         6.7310    1.5170    4.5660 hc        1 SGF      0.040700
     51 H15         7.5510    0.8650    3.0960 hc        1 SGF      0.040700
     52 H16         7.3710   -0.5580    5.8430 hc        1 SGF      0.040700
     53 H17         8.1900   -1.2100    4.3720 hc        1 SGF      0.040700
     54 H18         8.8990    1.4440    5.8070 hc        1 SGF      0.042200
     55 H19         9.7180    0.7920    4.3350 hc        1 SGF      0.042200
     56 H20         9.5390   -0.6320    7.0830 hc        1 SGF      0.042700
     57 H21        10.3580   -1.2840    5.6110 hc        1 SGF      0.042700
     58 H22        11.0650    1.3700    7.0470 hc        1 SGF      0.042700
     59 H23        11.8840    0.7200    5.5740 hc        1 SGF      0.042700
     60 H24        11.7060   -0.7100    8.3200 hc        1 SGF      0.049700
     61 H25        12.5280   -1.3570    6.8470 hc        1 SGF      0.049700
     62 H26        13.2160    1.2880    8.3050 hc        1 SGF      0.052700
     63 H27        14.0310    0.6710    6.8050 hc        1 SGF      0.052700
     64 H28        13.8600   -0.9550    9.4520 ha        1 SGF      0.142000
     65 H29        16.2230   -1.2630    9.2710 ha        1 SGF      0.144000
     66 H30        17.5410   -0.8040    7.4030 h1        1 SGF      0.080700
     67 H31        15.7830   -0.7880    5.9000 ho        1 SGF      0.437000
     68 H32        17.9260    1.6440    7.0590 hx        1 SGF      0.143700
     69 H33        18.9420    0.5880    9.0170 h1        1 SGF      0.081700
     70 H34        17.3970    0.7120   10.0090 h1        1 SGF      0.081700
     71 H35        19.9180    2.4830    8.2980 h2        1 SGF      0.047700
     72 H36        18.3150    5.0270    9.2160 h1        1 SGF      0.079700
     73 H37        18.0990    4.8550    6.7310 ho        1 SGF      0.500000
     74 H38        22.0610    3.5660    9.2000 h1        1 SGF      0.053700
     75 H39        21.4150    4.8810   11.9610 h1        1 SGF      0.070700
     76 H40        23.0500    4.8870   11.1170 h1        1 SGF      0.070700
     77 H41        21.6540    2.5840   11.9740 ho        1 SGF      0.407000
     78 H42        22.0150    5.9840    8.9380 h1        1 SGF      0.066700
     79 H43        20.0200    7.0420    9.7670 ho        1 SGF      0.441000
     80 H44        20.7090    4.7890    7.2200 h1        1 SGF      0.061700
     81 H45        16.5610    3.1970    8.2990 hn        1 SGF      0.468800
     82 H46        15.7700    2.4610    7.0070 hn        1 SGF      0.468800
     83 HN3        15.3960    1.9960    8.5710 hn        1 SGF      0.468800
@<TRIPOS>BOND
     1    1    2 1   
     2    1   37 1   
     3    1   38 1   
     4    1   39 1   
     5    2    3 1   
     6    2   40 1   
     7    2   41 1   
     8    3    4 1   
     9    3   42 1   
    10    3   43 1   
    11    4    5 1   
    12    4   44 1   
    13    4   45 1   
    14    5    6 1   
    15    5   46 1   
    16    5   47 1   
    17    6    7 1   
    18    6   48 1   
    19    6   49 1   
    20    7    8 1   
    21    7   50 1   
    22    7   51 1   
    23    8    9 1   
    24    8   52 1   
    25    8   53 1   
    26    9   10 1   
    27    9   54 1   
    28    9   55 1   
    29   10   11 1   
    30   10   56 1   
    31   10   57 1   
    32   11   12 1   
    33   11   58 1   
    34   11   59 1   
    35   12   13 1   
    36   12   60 1   
    37   12   61 1   
    38   13   14 1   
    39   13   62 1   
    40   13   63 1   
    41   14   15 2   
    42   14   64 1   
    43   15   16 1   
    44   15   65 1   
    45   16   17 1   
    46   16   18 1   
    47   16   66 1   
    48   17   67 1   
    49   18   19 1   
    50   18   36 1   
    51   18   68 1   
    52   19   20 1   
    53   19   69 1   
    54   19   70 1   
    55   20   21 1   
    56   21   22 1   
    57   21   24 1   
    58   21   71 1   
    59   22   23 1   
    60   22   30 1   
    61   22   72 1   
    62   23   73 1   
    63   24   25 1   
    64   25   26 1   
    65   25   28 1   
    66   25   74 1   
    67   26   27 1   
    68   26   75 1   
    69   26   76 1   
    70   27   77 1   
    71   28   29 1   
    72   28   30 1   
    73   28   78 1   
    74   29   79 1   
    75   30   31 1   
    76   30   80 1   
    77   31   32 1   
    78   32   33 1   
    79   32   34 1   
    80   32   35 1   
    81   36   81 1   
    82   36   82 1   
    83   36   83 1   
@<TRIPOS>SUBSTRUCTURE
     1 SGF         1 TEMP              0 ****  ****    0 ROOT
