@<TRIPOS>MOLECULE
SGI
   24    24     1     0     0
SMALL
bcc


@<TRIPOS>ATOM
      1 O          -0.1160   -0.2500    0.1330 o         1 SGI     -0.380100
      2 C           1.0650   -0.0310   -0.0580 c         1 SGI      0.551100
      3 N           1.8600    0.2380    1.2220 nz        1 SGI     -0.776400
      4 CA          1.8670    0.0140   -1.3200 c3        1 SGI     -0.152400
      5 CB          0.9570   -0.1340   -2.5350 c3        1 SGI     -0.016100
      6 CG          1.7700   -0.0790   -3.7780 ca        1 SGI     -0.172300
      7 CD1         2.1120   -1.2560   -4.4510 ca        1 SGI     -0.078500
      8 CE1         2.8550   -1.2080   -5.6270 ca        1 SGI     -0.180500
      9 CZ          3.2560    0.0370   -6.1360 ca        1 SGI      0.158100
     10 OH          3.9940    0.1730   -7.2810 oh        1 SGI     -0.479100
     11 CE2         2.9110    1.2300   -5.4710 ca        1 SGI     -0.180500
     12 CD2         2.1700    1.1590   -4.3010 ca        1 SGI     -0.078500
     13 HN1         2.2580    1.1800    1.1930 hn        1 SGI      0.466800
     14 HN2         2.6220   -0.4390    1.3080 hn        1 SGI      0.466800
     15 HA1         2.4260    0.9870   -1.3880 hc        1 SGI      0.107700
     16 HA2         2.6190   -0.8230   -1.3080 hc        1 SGI      0.107700
     17 HB1         0.1940    0.6920   -2.5340 hc        1 SGI      0.075200
     18 HB2         0.3980   -1.1060   -2.4690 hc        1 SGI      0.075200
     19 HD1         1.7850   -2.2320   -4.0590 ha        1 SGI      0.133000
     20 HE1         3.1160   -2.1350   -6.1570 ha        1 SGI      0.159000
     21 HOH         4.1280   -0.7060   -7.6690 ho        1 SGI      0.434000
     22 HE2         3.2270    2.1950   -5.8940 ha        1 SGI      0.159000
     23 HD2         1.8810    2.0890   -3.7870 ha        1 SGI      0.133000
     24 HN3         1.2480    0.1600    2.0440 hn        1 SGI      0.466800
@<TRIPOS>BOND
     1    1    2 2   
     2    2    3 1   
     3    2    4 1   
     4    3   13 1   
     5    3   14 1   
     6    3   24 1   
     7    4    5 1   
     8    4   15 1   
     9    4   16 1   
    10    5    6 1   
    11    5   17 1   
    12    5   18 1   
    13    6    7 ar  
    14    6   12 ar  
    15    7    8 ar  
    16    7   19 1   
    17    8    9 ar  
    18    8   20 1   
    19    9   10 1   
    20    9   11 ar  
    21   10   21 1   
    22   11   12 ar  
    23   11   22 1   
    24   12   23 1   
@<TRIPOS>SUBSTRUCTURE
     1 SGI         1 TEMP              0 ****  ****    0 ROOT
