@<TRIPOS>MOLECULE
SGI
   24    24     1     0     0
SMALL
bcc


@<TRIPOS>ATOM
      1 O          -0.0610    0.1840    0.1810 o         1 SGI     -0.380100
      2 C           1.1260    0.0530   -0.0510 c         1 SGI      0.551100
      3 N           1.9910   -0.0890    1.2030 n4        1 SGI     -0.776400
      4 CA          1.8770    0.0140   -1.3440 c3        1 SGI     -0.152400
      5 CB          0.9100    0.0500   -2.5240 c3        1 SGI     -0.016100
      6 CG          1.6740   -0.0020   -3.7970 ca        1 SGI     -0.172300
      7 CD1         2.1360   -1.2310   -4.2890 ca        1 SGI     -0.078500
      8 CE1         2.8330   -1.3010   -5.4870 ca        1 SGI     -0.181000
      9 CZ          3.0680   -0.1160   -6.2110 ca        1 SGI      0.158100
     10 OH          3.7660   -0.2500   -7.3810 oh        1 SGI     -0.479100
     11 CE2         2.6030    1.1190   -5.7340 ca        1 SGI     -0.181000
     12 CD2         1.9070    1.1670   -4.5290 ca        1 SGI     -0.078500
     13 HN1         1.4080   -0.0270    2.0470 hn        1 SGI      0.466800
     14 HN2         2.6940    0.6540    1.2280 hn        1 SGI      0.466800
     15 HA1         2.5690    0.9000   -1.3960 hc        1 SGI      0.108200
     16 HA2         2.5000   -0.9210   -1.3990 hc        1 SGI      0.108200
     17 HB1         0.2070   -0.8240   -2.4580 hc        1 SGI      0.075200
     18 HB2         0.2890    0.9840   -2.4710 hc        1 SGI      0.075200
     19 HD1         1.9330   -2.1570   -3.7280 ha        1 SGI      0.133000
     20 HE1         3.1960   -2.2600   -5.8860 ha        1 SGI      0.159000
     21 HOH         3.8230    0.6200   -7.8080 ho        1 SGI      0.434000
     22 HE2         2.7790    2.0390   -6.3110 ha        1 SGI      0.159000
     23 HD2         1.5300    2.1340   -4.1620 ha        1 SGI      0.133000
     24 HN3         2.4690   -0.9950    1.1950 hn        1 SGI      0.466800
@<TRIPOS>BOND
     1    1    2 2   
     2    2    3 1   
     3    2    4 1   
     4    3   13 1   
     5    3   14 1   
     6    3   24 1   
     7    4    5 1   
     8    4   15 1   
     9    4   16 1   
    10    5    6 1   
    11    5   17 1   
    12    5   18 1   
    13    6    7 ar  
    14    6   12 ar  
    15    7    8 ar  
    16    7   19 1   
    17    8    9 ar  
    18    8   20 1   
    19    9   10 1   
    20    9   11 ar  
    21   10   21 1   
    22   11   12 ar  
    23   11   22 1   
    24   12   23 1   
@<TRIPOS>SUBSTRUCTURE
     1 SGI         1 TEMP              0 ****  ****    0 ROOT
