@<TRIPOS>MOLECULE
SGI
   24    24     1     0     0
SMALL
bcc


@<TRIPOS>ATOM
      1 O          -0.1000    0.3030    0.1370 o         1 SGI     -0.380100
      2 C           1.0810    0.0880   -0.0530 c         1 SGI      0.551100
      3 N           1.8850   -0.1390    1.2290 n4        1 SGI     -0.776400
      4 CA          1.8760    0.0150   -1.3180 c3        1 SGI     -0.152400
      5 CB          0.9570    0.1040   -2.5330 c3        1 SGI     -0.016100
      6 CG          1.7640    0.0260   -3.7770 ca        1 SGI     -0.172300
      7 CD1         2.1870   -1.2200   -4.2620 ca        1 SGI     -0.078500
      8 CE1         2.9240   -1.3140   -5.4340 ca        1 SGI     -0.180500
      9 CZ          3.2400   -0.1360   -6.1390 ca        1 SGI      0.158100
     10 OH          3.9740   -0.2950   -7.2840 oh        1 SGI     -0.479100
     11 CE2         2.8160    1.1160   -5.6690 ca        1 SGI     -0.180500
     12 CD2         2.0790    1.1870   -4.4900 ca        1 SGI     -0.078500
     13 HN1         2.6450    0.5440    1.2900 hn        1 SGI      0.466800
     14 HN2         2.2870   -1.0800    1.2260 hn        1 SGI      0.466800
     15 HA1         2.6130    0.8660   -1.3390 hc        1 SGI      0.108200
     16 HA2         2.4540   -0.9500   -1.3570 hc        1 SGI      0.108200
     17 HB1         0.3790    1.0670   -2.4940 hc        1 SGI      0.075200
     18 HB2         0.2120   -0.7360   -2.5000 hc        1 SGI      0.075200
     19 HD1         1.9200   -2.1390   -3.7170 ha        1 SGI      0.133000
     20 HE1         3.2570   -2.2860   -5.8270 ha        1 SGI      0.159000
     21 HOH         4.0880    0.5740   -7.7010 ho        1 SGI      0.434000
     22 HE2         3.0550    2.0300   -6.2310 ha        1 SGI      0.159000
     23 HD2         1.7340    2.1690   -4.1290 ha        1 SGI      0.133000
     24 HN3         1.2770   -0.0390    2.0520 hn        1 SGI      0.466800
@<TRIPOS>BOND
     1    1    2 2   
     2    2    3 1   
     3    2    4 1   
     4    3   13 1   
     5    3   14 1   
     6    3   24 1   
     7    4    5 1   
     8    4   15 1   
     9    4   16 1   
    10    5    6 1   
    11    5   17 1   
    12    5   18 1   
    13    6    7 ar  
    14    6   12 ar  
    15    7    8 ar  
    16    7   19 1   
    17    8    9 ar  
    18    8   20 1   
    19    9   10 1   
    20    9   11 ar  
    21   10   21 1   
    22   11   12 ar  
    23   11   22 1   
    24   12   23 1   
@<TRIPOS>SUBSTRUCTURE
     1 SGI         1 TEMP              0 ****  ****    0 ROOT
