@<TRIPOS>MOLECULE
SGI
   23    23     1     0     0
SMALL
bcc


@<TRIPOS>ATOM
      1 O           3.7970    0.2390    0.9820 o         1 SGI     -0.613100
      2 C           3.3650    0.0300   -0.1690 c         1 SGI      0.654100
      3 N           4.2510   -0.1510   -1.2050 n         1 SGI     -0.682000
      4 CA          1.8860   -0.0330   -0.4920 c3        1 SGI     -0.147400
      5 CB          1.0520    0.1170    0.7660 c3        1 SGI     -0.026100
      6 CG         -0.4030    0.0440    0.4610 ca        1 SGI     -0.119300
      7 CD1        -1.0020   -1.1920    0.1810 ca        1 SGI     -0.091000
      8 CE1        -2.3610   -1.2810   -0.0960 ca        1 SGI     -0.183500
      9 CZ         -3.1350   -0.1080   -0.0900 ca        1 SGI      0.122100
     10 OH         -4.4740   -0.2550   -0.3730 oh        1 SGI     -0.498100
     11 CE2        -2.5520    1.1350    0.1920 ca        1 SGI     -0.183500
     12 CD2        -1.1880    1.2010    0.4660 ca        1 SGI     -0.091000
     13 HN1         5.2240   -0.1140   -1.0300 hn        1 SGI      0.310500
     14 HN2         3.9360   -0.3180   -2.1240 hn        1 SGI      0.310500
     15 HA1         1.6340    0.7860   -1.2160 hc        1 SGI      0.064700
     16 HA2         1.6500   -1.0120   -0.9870 hc        1 SGI      0.064700
     17 HB1         1.3320   -0.6930    1.4920 hc        1 SGI      0.067200
     18 HB2         1.3040    1.0930    1.2600 hc        1 SGI      0.067200
     19 HD1        -0.3880   -2.1050    0.1850 ha        1 SGI      0.134500
     20 HE1        -2.8390   -2.2450   -0.3150 ha        1 SGI      0.142000
     21 HOH        -4.8870    0.6190   -0.3190 ho        1 SGI      0.419000
     22 HE2        -3.1650    2.0470    0.1990 ha        1 SGI      0.142000
     23 HD2        -0.7280    2.1750    0.6920 ha        1 SGI      0.134500
@<TRIPOS>BOND
     1    1    2 2   
     2    2    3 1   
     3    2    4 1   
     4    3   13 1   
     5    3   14 1   
     6    4    5 1   
     7    4   15 1   
     8    4   16 1   
     9    5    6 1   
    10    5   17 1   
    11    5   18 1   
    12    6    7 ar  
    13    6   12 ar  
    14    7    8 ar  
    15    7   19 1   
    16    8    9 ar  
    17    8   20 1   
    18    9   10 1   
    19    9   11 ar  
    20   10   21 1   
    21   11   12 ar  
    22   11   22 1   
    23   12   23 1   
@<TRIPOS>SUBSTRUCTURE
     1 SGI         1 TEMP              0 ****  ****    0 ROOT
