@<TRIPOS>MOLECULE
SGL
   15    14     1     0     0
SMALL
bcc


@<TRIPOS>ATOM
      1 C1          0.0460    0.3640    0.7150 c3        1 SGL     -0.068300
      2 S1         -0.7940   -0.9590   -0.0780 ss        1 SGL     -0.016300
      3 C2          1.5550    0.3270    0.5420 c3        1 SGL      0.152100
      4 O2          2.0960    1.1930    1.5320 oh        1 SGL     -0.606800
      5 C3          1.9670    0.7920   -0.8590 c3        1 SGL      0.090400
      6 O3          3.3850    0.7360   -0.8900 oh        1 SGL     -0.611800
      7 O4         -0.2950   -2.2920    0.8610 oh        1 SGL     -0.511800
      8 H11        -0.3750    1.3010    0.2690 h1        1 SGL      0.091200
      9 H12        -0.1790    0.3780    1.8110 h1        1 SGL      0.091200
     10 H2          1.9400   -0.7190    0.7160 h1        1 SGL      0.064700
     11 HO2         3.0460    1.2460    1.3600 ho        1 SGL      0.422000
     12 H31         1.6250    1.8460   -1.0380 h1        1 SGL      0.040200
     13 H32         1.5280    0.1120   -1.6350 h1        1 SGL      0.040200
     14 HO3         3.6540    0.9900   -1.7800 ho        1 SGL      0.409000
     15 HO4        -0.9950   -2.4470    1.5010 ho        1 SGL      0.412000
@<TRIPOS>BOND
     1    1    2 1   
     2    1    3 1   
     3    1    8 1   
     4    1    9 1   
     5    2    7 1   
     6    3    4 1   
     7    3    5 1   
     8    3   10 1   
     9    4   11 1   
    10    5    6 1   
    11    5   12 1   
    12    5   13 1   
    13    6   14 1   
    14    7   15 1   
@<TRIPOS>SUBSTRUCTURE
     1 SGL         1 TEMP              0 ****  ****    0 ROOT
