@<TRIPOS>MOLECULE
SGL
   15    14     1     0     0
SMALL
bcc


@<TRIPOS>ATOM
      1 C1         -0.9740   -0.1130   -0.0020 c3        1 SGL     -0.075300
      2 S1         -1.5650   -1.5700    0.8170 ss        1 SGL     -0.013300
      3 C2          0.5380   -0.1130   -0.0020 c3        1 SGL      0.152100
      4 O2          1.0070   -0.1130    1.3250 oh        1 SGL     -0.601800
      5 C3          1.0420    1.1210   -0.7150 c3        1 SGL      0.089400
      6 O3          2.4520    1.1250   -0.7080 oh        1 SGL     -0.611800
      7 O4         -3.0690   -1.6310    0.7120 oh        1 SGL     -0.511800
      8 H11        -1.2990   -0.1030   -0.9230 h1        1 SGL      0.100700
      9 H12        -1.2990    0.6790    0.4670 h1        1 SGL      0.100700
     10 H2          0.8630   -0.9100   -0.4630 h1        1 SGL      0.047700
     11 HO2         1.4850   -0.8470    1.4700 ho        1 SGL      0.421000
     12 H31         0.7210    1.1180   -1.6370 h1        1 SGL      0.040200
     13 H32         0.7120    1.9180   -0.2580 h1        1 SGL      0.040200
     14 HO3         2.7490    1.8030   -1.1990 ho        1 SGL      0.410000
     15 HO4        -3.3650   -2.3640    1.1170 ho        1 SGL      0.412000
@<TRIPOS>BOND
     1    1    2 1   
     2    1    3 1   
     3    1    8 1   
     4    1    9 1   
     5    2    7 1   
     6    3    4 1   
     7    3    5 1   
     8    3   10 1   
     9    4   11 1   
    10    5    6 1   
    11    5   12 1   
    12    5   13 1   
    13    6   14 1   
    14    7   15 1   
@<TRIPOS>SUBSTRUCTURE
     1 SGL         1 TEMP              0 ****  ****    0 ROOT
