@<TRIPOS>MOLECULE
SGL
   15    14     1     0     0
SMALL
bcc


@<TRIPOS>ATOM
      1 C1         -0.1840   -1.0160   -0.0920 c3        1 SGL     -0.107300
      2 S1         -1.8040   -0.8040    0.5470 ss        1 SGL      0.003700
      3 C2          0.7030    0.2020    0.0960 c3        1 SGL      0.139100
      4 O2          0.1600    1.3530   -0.5300 oh        1 SGL     -0.603800
      5 C3          2.1130   -0.0630   -0.4480 c3        1 SGL      0.099400
      6 O3          2.6990   -1.0500    0.3820 oh        1 SGL     -0.597800
      7 O4         -2.3730    0.4360   -0.4770 oh        1 SGL     -0.523800
      8 H11         0.2700   -1.8800    0.4590 h1        1 SGL      0.092200
      9 H12        -0.2270   -1.2830   -1.1770 h1        1 SGL      0.092200
     10 H2          0.7650    0.4820    1.1870 h1        1 SGL      0.100700
     11 HO2         0.0120    1.1390   -1.4600 ho        1 SGL      0.407000
     12 H31         2.0630   -0.4310   -1.5070 h1        1 SGL      0.032700
     13 H32         2.7090    0.8880   -0.4160 h1        1 SGL      0.032700
     14 HO3         3.6200   -1.1300    0.1070 ho        1 SGL      0.407000
     15 HO4        -2.0740    1.2680   -0.0900 ho        1 SGL      0.425000
@<TRIPOS>BOND
     1    1    2 1   
     2    1    3 1   
     3    1    8 1   
     4    1    9 1   
     5    2    7 1   
     6    3    4 1   
     7    3    5 1   
     8    3   10 1   
     9    4   11 1   
    10    5    6 1   
    11    5   12 1   
    12    5   13 1   
    13    6   14 1   
    14    7   15 1   
@<TRIPOS>SUBSTRUCTURE
     1 SGL         1 TEMP              0 ****  ****    0 ROOT
