@<TRIPOS>MOLECULE
SGM
   14    13     1     0     0
SMALL
bcc


@<TRIPOS>ATOM
      1 C1          0.0570   -0.0140    0.0720 c3        1 SGM     -0.031300
      2 C2          1.5590    0.0490   -0.1460 c3        1 SGM      0.110100
      3 O2          2.2590    0.1840    1.0830 oh        1 SGM     -0.609800
      4 C3          1.9340    1.2900   -0.9690 c3        1 SGM      0.140400
      5 O3          3.3240    1.3450   -1.1970 oh        1 SGM     -0.595800
      6 S1         -0.3570   -1.6790    0.5150 sh        1 SGM     -0.383900
      7 H11        -0.2420    0.7000    0.8750 h1        1 SGM      0.075700
      8 H12        -0.4750    0.2710   -0.8680 h1        1 SGM      0.075700
      9 H2          1.9150   -0.8790   -0.6800 h1        1 SGM      0.066700
     10 HO2         2.0580   -0.6040    1.6070 ho        1 SGM      0.420000
     11 H31         1.4690    1.2320   -1.9880 h1        1 SGM      0.052200
     12 H32         1.5880    2.2150   -0.4360 h1        1 SGM      0.052200
     13 HO3         3.7550    1.3170   -0.3320 ho        1 SGM      0.418000
     14 HS1        -1.5190   -1.4640    1.1070 hs        1 SGM      0.210800
@<TRIPOS>BOND
     1    1    2 1   
     2    1    6 1   
     3    1    7 1   
     4    1    8 1   
     5    2    3 1   
     6    2    4 1   
     7    2    9 1   
     8    3   10 1   
     9    4    5 1   
    10    4   11 1   
    11    4   12 1   
    12    5   13 1   
    13    6   14 1   
@<TRIPOS>SUBSTRUCTURE
     1 SGM         1 TEMP              0 ****  ****    0 ROOT
