@<TRIPOS>MOLECULE
SGM
   14    13     1     0     0
SMALL
bcc


@<TRIPOS>ATOM
      1 C1          0.9020   -0.4480    0.6110 c3        1 SGM      0.001700
      2 C2         -0.3880    0.2480    0.2110 c3        1 SGM      0.157100
      3 O2         -0.6980    1.1520    1.2640 oh        1 SGM     -0.603800
      4 C3         -1.5230   -0.7640    0.0180 c3        1 SGM      0.088400
      5 O3         -2.6690   -0.0060   -0.3380 oh        1 SGM     -0.612800
      6 S1          1.5600   -1.2480   -0.8250 sh        1 SGM     -0.378900
      7 H11         1.6170    0.3130    1.0090 h1        1 SGM      0.077200
      8 H12         0.7060   -1.1900    1.4220 h1        1 SGM      0.077200
      9 H2         -0.2430    0.8310   -0.7440 h1        1 SGM      0.065700
     10 HO2        -1.5710    1.5150    1.0630 ho        1 SGM      0.423000
     11 H31        -1.2580   -1.4870   -0.7980 h1        1 SGM      0.043700
     12 H32        -1.7170   -1.3220    0.9730 h1        1 SGM      0.043700
     13 HO3        -3.3850   -0.6340   -0.4800 ho        1 SGM      0.410000
     14 HS1         2.7350   -1.6040   -0.3350 hs        1 SGM      0.207800
@<TRIPOS>BOND
     1    1    2 1   
     2    1    6 1   
     3    1    7 1   
     4    1    8 1   
     5    2    3 1   
     6    2    4 1   
     7    2    9 1   
     8    3   10 1   
     9    4    5 1   
    10    4   11 1   
    11    4   12 1   
    12    5   13 1   
    13    6   14 1   
@<TRIPOS>SUBSTRUCTURE
     1 SGM         1 TEMP              0 ****  ****    0 ROOT
