@<TRIPOS>MOLECULE
SGN
   31    31     1     0     0
SMALL
bcc


@<TRIPOS>ATOM
      1 C1          1.0770    0.2070   -1.1330 c3        1 SGN      0.281900
      2 C2         -0.2530    0.0560   -1.9380 c3        1 SGN      0.271500
      3 C3         -1.3610    0.7260   -1.0910 c3        1 SGN      0.128100
      4 C4         -1.3930    0.0850    0.3120 c3        1 SGN      0.098100
      5 C5         -0.0290    0.2220    0.9980 c3        1 SGN      0.103100
      6 C6          0.0420   -0.5620    2.3210 c3        1 SGN      0.205400
      7 N          -0.1420    0.5270   -3.2720 n3        1 SGN     -0.895100
      8 O1          1.3860    1.5720   -0.9680 oh        1 SGN     -0.622800
      9 O3         -2.6090    0.5450   -1.7420 oh        1 SGN     -0.597800
     10 O4         -2.4220    0.7610    1.0200 oh        1 SGN     -0.646800
     11 O5          1.0050   -0.3270    0.1780 os        1 SGN     -0.458600
     12 O6         -0.7470    0.0820    3.2680 os        1 SGN     -0.629500
     13 S1          0.6190   -0.2890   -4.5330 s6        1 SGN      1.533700
     14 O1S         0.6850    0.6680   -5.5950 o         1 SGN     -0.753867
     15 O2S         1.9110   -0.6720   -4.0540 o         1 SGN     -0.753867
     16 O3S        -0.1630   -1.4270   -4.8780 o         1 SGN     -0.753867
     17 S2         -0.4190   -0.0550    4.9630 s6        1 SGN      1.703300
     18 O4S         0.9490    0.2040    5.0340 o         1 SGN     -0.755533
     19 O5S        -1.2600    0.9310    5.4730 o         1 SGN     -0.755533
     20 O6S        -0.7870   -1.3710    5.2400 o         1 SGN     -0.755533
     21 H1          1.9110   -0.3650   -1.6370 h2        1 SGN      0.109700
     22 H2         -0.4630   -1.0570   -1.9680 h1        1 SGN      0.066700
     23 H3         -1.1530    1.8280   -0.9890 h1        1 SGN      0.048700
     24 H4         -1.6740   -1.0020    0.2250 h1        1 SGN      0.045700
     25 H5          0.1810    1.3100    1.1850 h1        1 SGN      0.060700
     26 H61        -0.3440   -1.6070    2.1610 h1        1 SGN      0.029200
     27 H62         1.1130   -0.6100    2.6620 h1        1 SGN      0.029200
     28 HN         -0.4670    1.4510   -3.3990 hn        1 SGN      0.411800
     29 HO1         2.2490    1.6110   -0.5420 ho        1 SGN      0.396000
     30 HO3        -3.2820    0.8070   -1.1010 ho        1 SGN      0.401000
     31 HO4        -2.2370    0.6690    1.9680 ho        1 SGN      0.453000
@<TRIPOS>BOND
     1    1    2 1   
     2    1    8 1   
     3    1   11 1   
     4    1   21 1   
     5    2    3 1   
     6    2    7 1   
     7    2   22 1   
     8    3    4 1   
     9    3    9 1   
    10    3   23 1   
    11    4    5 1   
    12    4   10 1   
    13    4   24 1   
    14    5    6 1   
    15    5   11 1   
    16    5   25 1   
    17    6   12 1   
    18    6   26 1   
    19    6   27 1   
    20    7   13 1   
    21    7   28 1   
    22    8   29 1   
    23    9   30 1   
    24   10   31 1   
    25   12   17 1   
    26   13   14 1   
    27   13   15 1   
    28   13   16 1   
    29   17   18 1   
    30   17   19 1   
    31   17   20 1   
@<TRIPOS>SUBSTRUCTURE
     1 SGN         1 TEMP              0 ****  ****    0 ROOT
