@<TRIPOS>MOLECULE
SGP
   36    39     1     0     0
SMALL
bcc


@<TRIPOS>ATOM
      1 P           0.2710    0.2380   -0.6260 p5        1 SGP      1.185200
      2 S1P        -1.0870    1.2080   -1.4140 s         1 SGP     -0.474000
      3 O1P         1.3000   -0.5010   -1.5770 oh        1 SGP     -0.722400
      4 O5'         4.3900   -1.1810    3.4970 oh        1 SGP     -0.591800
      5 C5'         3.5260   -0.1350    3.1150 c3        1 SGP      0.114400
      6 C4'         2.8960   -0.4100    1.7460 c3        1 SGP      0.068100
      7 O4'         2.8140   -1.8320    1.5260 os        1 SGP     -0.384600
      8 C3'         1.4770    0.1710    1.6330 c3        1 SGP      0.128100
      9 O3'         1.3000    0.8960    0.4380 os        1 SGP     -0.496200
     10 C2'         0.5300   -1.0580    1.5650 c3        1 SGP      0.107100
     11 O2'        -0.1460   -1.0100    0.3370 os        1 SGP     -0.501200
     12 C1'         1.4740   -2.3060    1.5990 c3        1 SGP      0.237800
     13 N9          1.2880   -3.1280    2.7830 na        1 SGP     -0.192900
     14 C8          2.1940   -3.4010    3.8240 cc        1 SGP      0.487400
     15 N7          1.7090   -4.2900    4.7310 nd        1 SGP     -0.580000
     16 C5          0.4470   -4.6220    4.2720 cd        1 SGP      0.298800
     17 C6         -0.5450   -5.5330    4.8300 c         1 SGP      0.645000
     18 O6         -0.4890   -6.2180    5.8480 o         1 SGP     -0.502500
     19 N1         -1.7500   -5.6190    4.0530 n         1 SGP     -0.502400
     20 C2         -1.9020   -4.8760    2.8800 cd        1 SGP      0.495800
     21 N2         -3.1920   -5.0280    2.1290 n4        1 SGP     -0.794600
     22 N3         -1.0260   -4.0300    2.3340 nc        1 SGP     -0.520100
     23 C4          0.1540   -3.9120    3.0480 cc        1 SGP     -0.007200
     24 HOP1        1.2640   -0.3390   -2.5220 ho        1 SGP      0.516000
     25 HO5'        5.0910   -1.2450    2.8340 ho        1 SGP      0.424000
     26 H5'1        2.7530   -0.1020    3.9300 h1        1 SGP      0.069200
     27 H5'2        4.0710    0.8460    3.0760 h1        1 SGP      0.069200
     28 H4'         3.5610   -0.0360    0.9180 h1        1 SGP      0.121700
     29 H3'         1.2470    0.8680    2.4870 h1        1 SGP      0.122700
     30 H2'        -0.2380   -1.0730    2.3850 h1        1 SGP      0.113700
     31 H1'         1.3190   -2.9610    0.6880 h2        1 SGP      0.132700
     32 H8          3.1920   -2.9180    3.8640 h5        1 SGP      0.132100
     33 HN1        -2.4630   -6.2360    4.3820 hn        1 SGP      0.350500
     34 HN21       -3.3000   -6.0050    1.8300 hn        1 SGP      0.483133
     35 HN22       -3.9760   -4.7580    2.7350 hn        1 SGP      0.483133
     36 H23        -3.1840   -4.4180    1.2960 hn        1 SGP      0.483133
@<TRIPOS>BOND
     1    1    2 2   
     2    1    3 1   
     3    1    9 1   
     4    1   11 1   
     5    3   24 1   
     6    4    5 1   
     7    4   25 1   
     8    5    6 1   
     9    5   26 1   
    10    5   27 1   
    11    6    7 1   
    12    6    8 1   
    13    6   28 1   
    14    7   12 1   
    15    8    9 1   
    16    8   10 1   
    17    8   29 1   
    18   10   11 1   
    19   10   12 1   
    20   10   30 1   
    21   12   13 1   
    22   12   31 1   
    23   13   14 1   
    24   13   23 1   
    25   14   15 2   
    26   14   32 1   
    27   15   16 1   
    28   16   17 1   
    29   16   23 2   
    30   17   18 2   
    31   17   19 1   
    32   19   20 1   
    33   19   33 1   
    34   20   21 1   
    35   20   22 2   
    36   21   34 1   
    37   21   35 1   
    38   21   36 1   
    39   22   23 1   
@<TRIPOS>SUBSTRUCTURE
     1 SGP         1 TEMP              0 ****  ****    0 ROOT
