@<TRIPOS>MOLECULE
SGP
   36    39     1     0     0
SMALL
bcc


@<TRIPOS>ATOM
      1 P           0.2650    0.2660   -0.5950 p5        1 SGP      1.185200
      2 S1P        -1.0950    1.2350   -1.3800 s         1 SGP     -0.474000
      3 O1P         1.3040   -0.4560   -1.5480 oh        1 SGP     -0.722400
      4 O5'         4.3710   -1.1730    3.5340 oh        1 SGP     -0.591800
      5 C5'         3.5020   -0.1280    3.1590 c3        1 SGP      0.114400
      6 C4'         2.8810   -0.3930    1.7840 c3        1 SGP      0.068100
      7 O4'         2.8100   -1.8120    1.5480 os        1 SGP     -0.384600
      8 C3'         1.4590    0.1810    1.6700 c3        1 SGP      0.128100
      9 O3'         1.2840    0.9180    0.4820 os        1 SGP     -0.496200
     10 C2'         0.5200   -1.0530    1.5830 c3        1 SGP      0.106100
     11 O2'        -0.1490   -0.9960    0.3510 os        1 SGP     -0.501200
     12 C1'         1.4720   -2.2960    1.6080 c3        1 SGP      0.237800
     13 N9          1.2850   -3.1320    2.7820 na        1 SGP     -0.192900
     14 C8          2.1860   -3.4100    3.8250 cc        1 SGP      0.487400
     15 N7          1.7020   -4.3120    4.7190 nd        1 SGP     -0.580000
     16 C5          0.4450   -4.6480    4.2490 cd        1 SGP      0.298800
     17 C6         -0.5430   -5.5720    4.7900 c         1 SGP      0.645000
     18 O6         -0.4890   -6.2690    5.8010 o         1 SGP     -0.502500
     19 N1         -1.7430   -5.6590    4.0040 ns        1 SGP     -0.502400
     20 C2         -1.8930   -4.9030    2.8390 cd        1 SGP      0.495800
     21 N2         -3.1770   -5.0560    2.0790 nz        1 SGP     -0.794600
     22 N3         -1.0190   -4.0450    2.3080 nc        1 SGP     -0.520100
     23 C4          0.1550   -3.9270    3.0310 cc        1 SGP     -0.007200
     24 HOP1        1.2720   -0.2830   -2.4930 ho        1 SGP      0.516000
     25 HO5'        5.0750   -1.2260    2.8740 ho        1 SGP      0.424000
     26 H5'1        4.0420    0.8560    3.1330 h1        1 SGP      0.069200
     27 H5'2        2.7240   -0.1080    3.9700 h1        1 SGP      0.069200
     28 H4'         3.5480   -0.0050    0.9630 h1        1 SGP      0.121700
     29 H3'         1.2200    0.8670    2.5300 h1        1 SGP      0.122700
     30 H2'        -0.2530   -1.0820    2.3980 h1        1 SGP      0.113700
     31 H1'         1.3270   -2.9420    0.6880 h2        1 SGP      0.132700
     32 H8          3.1800   -2.9210    3.8760 h5        1 SGP      0.132100
     33 HN1        -2.4530   -6.2840    4.3230 hn        1 SGP      0.350500
     34 HN21       -3.2760   -6.0300    1.7680 hn        1 SGP      0.483133
     35 HN22       -3.1680   -4.4370    1.2530 hn        1 SGP      0.483133
     36 H23        -3.9670   -4.7990    2.6830 hn        1 SGP      0.483133
@<TRIPOS>BOND
     1    1    2 2   
     2    1    3 1   
     3    1    9 1   
     4    1   11 1   
     5    3   24 1   
     6    4    5 1   
     7    4   25 1   
     8    5    6 1   
     9    5   26 1   
    10    5   27 1   
    11    6    7 1   
    12    6    8 1   
    13    6   28 1   
    14    7   12 1   
    15    8    9 1   
    16    8   10 1   
    17    8   29 1   
    18   10   11 1   
    19   10   12 1   
    20   10   30 1   
    21   12   13 1   
    22   12   31 1   
    23   13   14 1   
    24   13   23 1   
    25   14   15 2   
    26   14   32 1   
    27   15   16 1   
    28   16   17 1   
    29   16   23 2   
    30   17   18 2   
    31   17   19 1   
    32   19   20 1   
    33   19   33 1   
    34   20   21 1   
    35   20   22 2   
    36   21   34 1   
    37   21   35 1   
    38   21   36 1   
    39   22   23 1   
@<TRIPOS>SUBSTRUCTURE
     1 SGP         1 TEMP              0 ****  ****    0 ROOT
