@<TRIPOS>MOLECULE
SGP
   36    39     1     0     0
SMALL
bcc


@<TRIPOS>ATOM
      1 P           0.2080    0.3070   -0.5460 p5        1 SGP      1.185200
      2 S1P        -1.1670    1.2920   -1.2850 s         1 SGP     -0.474000
      3 O1P         1.2220   -0.4040   -1.5330 oh        1 SGP     -0.722400
      4 O5'         4.4030   -1.2040    3.4660 oh        1 SGP     -0.591800
      5 C5'         3.5290   -0.1510    3.1260 c3        1 SGP      0.114400
      6 C4'         2.8760   -0.3940    1.7620 c3        1 SGP      0.068100
      7 O4'         2.7940   -1.8090    1.5070 os        1 SGP     -0.384600
      8 C3'         1.4530    0.1860    1.6890 c3        1 SGP      0.128100
      9 O3'         1.2530    0.9410    0.5160 os        1 SGP     -0.496200
     10 C2'         0.5080   -1.0440    1.6060 c3        1 SGP      0.106100
     11 O2'        -0.1890   -0.9670    0.3910 os        1 SGP     -0.501200
     12 C1'         1.4560   -2.2900    1.5920 c3        1 SGP      0.237800
     13 N9          1.2940   -3.1430    2.7570 na        1 SGP     -0.192900
     14 C8          2.2180   -3.4390    3.7740 cc        1 SGP      0.487400
     15 N7          1.7520   -4.3530    4.6660 nd        1 SGP     -0.580000
     16 C5          0.4830   -4.6770    4.2210 cd        1 SGP      0.298800
     17 C6         -0.4950   -5.6060    4.7720 c         1 SGP      0.645000
     18 O6         -0.4200   -6.3170    5.7720 o         1 SGP     -0.502500
     19 N1         -1.7140   -5.6760    4.0140 n         1 SGP     -0.502400
     20 C2         -1.8890   -4.9040    2.8630 cd        1 SGP      0.495800
     21 N2         -3.1910   -5.0420    2.1320 n4        1 SGP     -0.794600
     22 N3         -1.0240   -4.0410    2.3250 nc        1 SGP     -0.520100
     23 C4          0.1680   -3.9370    3.0210 cc        1 SGP     -0.007200
     24 HOP1        1.1690   -0.2170   -2.4740 ho        1 SGP      0.516000
     25 HO5'        5.0910   -1.2490    2.7900 ho        1 SGP      0.424000
     26 H5'1        4.0710    0.8310    3.1030 h1        1 SGP      0.069200
     27 H5'2        2.7700   -0.1410    3.9550 h1        1 SGP      0.069200
     28 H4'         3.5250    0.0040    0.9320 h1        1 SGP      0.121700
     29 H3'         1.2360    0.8600    2.5650 h1        1 SGP      0.122700
     30 H2'        -0.2450   -1.0830    2.4390 h1        1 SGP      0.113700
     31 H1'         1.2880   -2.9220    0.6660 h2        1 SGP      0.132700
     32 H8          3.2150   -2.9540    3.8090 h5        1 SGP      0.132100
     33 HN1        -2.4190   -6.3040    4.3400 hn        1 SGP      0.350500
     34 HN21       -3.9650   -4.7900    2.7580 hn        1 SGP      0.483133
     35 HN22       -3.1990   -4.4100    1.3150 hn        1 SGP      0.483133
     36 H23        -3.3010   -6.0100    1.8090 hn        1 SGP      0.483133
@<TRIPOS>BOND
     1    1    2 2   
     2    1    3 1   
     3    1    9 1   
     4    1   11 1   
     5    3   24 1   
     6    4    5 1   
     7    4   25 1   
     8    5    6 1   
     9    5   26 1   
    10    5   27 1   
    11    6    7 1   
    12    6    8 1   
    13    6   28 1   
    14    7   12 1   
    15    8    9 1   
    16    8   10 1   
    17    8   29 1   
    18   10   11 1   
    19   10   12 1   
    20   10   30 1   
    21   12   13 1   
    22   12   31 1   
    23   13   14 1   
    24   13   23 1   
    25   14   15 2   
    26   14   32 1   
    27   15   16 1   
    28   16   17 1   
    29   16   23 2   
    30   17   18 2   
    31   17   19 1   
    32   19   20 1   
    33   19   33 1   
    34   20   21 1   
    35   20   22 2   
    36   21   34 1   
    37   21   35 1   
    38   21   36 1   
    39   22   23 1   
@<TRIPOS>SUBSTRUCTURE
     1 SGP         1 TEMP              0 ****  ****    0 ROOT
