@<TRIPOS>MOLECULE
SGP
   35    38     1     0     0
SMALL
bcc


@<TRIPOS>ATOM
      1 P           1.8060   -0.3760    3.1630 p5        1 SGP      1.203200
      2 S1P         3.4350    0.1660    3.8590 s         1 SGP     -0.518000
      3 O1P         1.3170   -1.8160    3.6160 oh        1 SGP     -0.719400
      4 O5'        -4.0660    0.0710    2.2740 oh        1 SGP     -0.580800
      5 C5'        -2.8700    0.7870    2.0660 c3        1 SGP      0.114400
      6 C4'        -1.6530   -0.0850    2.3770 c3        1 SGP      0.069100
      7 O4'        -1.5780   -1.1630    1.4280 os        1 SGP     -0.410600
      8 C3'        -0.3380    0.7080    2.2960 c3        1 SGP      0.119100
      9 O3'         0.4680    0.4920    3.4340 os        1 SGP     -0.503200
     10 C2'         0.4260    0.1280    1.0740 c3        1 SGP      0.110100
     11 O2'         1.5980   -0.4830    1.5620 os        1 SGP     -0.496200
     12 C1'        -0.5310   -0.9550    0.4720 c3        1 SGP      0.253800
     13 N9         -1.0850   -0.5730   -0.8050 na        1 SGP     -0.244900
     14 C8         -2.4550   -0.4810   -1.1730 cc        1 SGP      0.406400
     15 N7         -2.6320   -0.2110   -2.4750 nd        1 SGP     -0.575000
     16 C5         -1.3430   -0.1280   -3.0090 cd        1 SGP      0.176800
     17 C6         -0.9000    0.1260   -4.3650 c         1 SGP      0.652000
     18 O6         -1.5860    0.3500   -5.3710 o         1 SGP     -0.588500
     19 N1          0.5150    0.1170   -4.5190 n         1 SGP     -0.511400
     20 C2          1.3990   -0.1490   -3.4550 cd        1 SGP      0.698800
     21 N2          2.7670   -0.2590   -3.7580 nh        1 SGP     -0.900800
     22 N3          1.0100   -0.3550   -2.1690 nc        1 SGP     -0.685100
     23 C4         -0.3590   -0.3620   -1.9850 cc        1 SGP      0.117800
     24 HOP1        1.8770   -2.3230    4.2070 ho        1 SGP      0.508000
     25 HO5'       -4.0220   -0.7300    1.7350 ho        1 SGP      0.411000
     26 H5'1       -2.9200    1.6500    2.7840 h1        1 SGP      0.062700
     27 H5'2       -2.8190    1.1640    1.0100 h1        1 SGP      0.062700
     28 H4'        -1.7800   -0.5880    3.3770 h1        1 SGP      0.121700
     29 H3'        -0.5260    1.8140    2.2210 h1        1 SGP      0.115700
     30 H2'         0.7310    0.9010    0.3180 h1        1 SGP      0.129700
     31 H1'         0.0010   -1.9490    0.3690 h2        1 SGP      0.129700
     32 H8         -3.2480   -0.6340   -0.4310 h5        1 SGP      0.072100
     33 HN1         0.8670    0.2220   -5.4470 hn        1 SGP      0.336500
     34 HN21        3.3780   -0.3360   -2.9740 hn        1 SGP      0.431300
     35 HN22        3.1070    0.2990   -4.5070 hn        1 SGP      0.431300
@<TRIPOS>BOND
     1    1    2 2   
     2    1    3 1   
     3    1    9 1   
     4    1   11 1   
     5    3   24 1   
     6    4    5 1   
     7    4   25 1   
     8    5    6 1   
     9    5   26 1   
    10    5   27 1   
    11    6    7 1   
    12    6    8 1   
    13    6   28 1   
    14    7   12 1   
    15    8    9 1   
    16    8   10 1   
    17    8   29 1   
    18   10   11 1   
    19   10   12 1   
    20   10   30 1   
    21   12   13 1   
    22   12   31 1   
    23   13   14 1   
    24   13   23 1   
    25   14   15 2   
    26   14   32 1   
    27   15   16 1   
    28   16   17 1   
    29   16   23 2   
    30   17   18 2   
    31   17   19 1   
    32   19   20 1   
    33   19   33 1   
    34   20   21 1   
    35   20   22 2   
    36   21   34 1   
    37   21   35 1   
    38   22   23 1   
@<TRIPOS>SUBSTRUCTURE
     1 SGP         1 TEMP              0 ****  ****    0 ROOT
