@<TRIPOS>MOLECULE
SGR
   22    21     1     0     0
SMALL
bcc


@<TRIPOS>ATOM
      1 N           0.4060   -0.3710    4.7170 n3        1 SGR     -0.886800
      2 CA          0.2390    0.3950    3.4890 c3        1 SGR     -0.000500
      3 C          -0.9950    1.3440    3.5220 c         1 SGR      0.870600
      4 O          -2.0300    0.9640    4.1340 o         1 SGR     -0.843300
      5 CB          0.1230   -0.5420    2.2670 c3        1 SGR      0.202400
      6 OG          0.6050    0.1030    1.1150 os        1 SGR     -0.590200
      7 N4         -1.7570    1.0570    0.4720 n3        1 SGR     -1.125900
      8 P1         -0.4050    0.5070   -0.0850 p5        1 SGR      1.645400
      9 O5         -0.5210   -0.5610   -1.0850 o         1 SGR     -0.842300
     10 O2          0.4840    1.7340   -0.6650 os        1 SGR     -0.573200
     11 C3          0.8870    2.7430    0.2250 c3        1 SGR      0.146700
     12 OXT        -0.9020    2.4560    2.9180 o         1 SGR     -0.843300
     13 H          -0.4550   -0.8560    4.9030 hn        1 SGR      0.336300
     14 HBC1       -0.9420   -0.8620    2.1150 h1        1 SGR      0.032200
     15 HBC2        0.7670   -1.4560    2.4100 h1        1 SGR      0.032200
     16 H4N1       -1.8330    1.6940    1.2380 hn        1 SGR      0.456800
     17 H4N2       -2.6340    0.7400    0.1550 hn        1 SGR      0.456800
     18 H3C1        2.0070    2.7950    0.2090 h1        1 SGR      0.040700
     19 H3C2        0.5250    2.5390    1.2700 h1        1 SGR      0.040700
     20 H3C3        0.4790    3.7210   -0.1460 h1        1 SGR      0.040700
     21 H1          1.1610    1.0290    3.3440 h1        1 SGR      0.066700
     22 H2          0.5380    0.2820    5.4690 hn        1 SGR      0.336300
@<TRIPOS>BOND
     1    1    2 1   
     2    1   13 1   
     3    1   22 1   
     4    2    3 1   
     5    2    5 1   
     6    2   21 1   
     7    3    4 1   
     8    3   12 1   
     9    5    6 1   
    10    5   14 1   
    11    5   15 1   
    12    6    8 1   
    13    7    8 1   
    14    7   16 1   
    15    7   17 1   
    16    8    9 2   
    17    8   10 1   
    18   10   11 1   
    19   11   18 1   
    20   11   19 1   
    21   11   20 1   
@<TRIPOS>SUBSTRUCTURE
     1 SGR         1 TEMP              0 ****  ****    0 ROOT
