@<TRIPOS>MOLECULE
SGR
   24    23     1     0     0
SMALL
bcc


@<TRIPOS>ATOM
      1 N           0.1520   -0.2400    0.6440 nz        1 SGR     -0.822600
      2 CA          1.5730    0.1070    0.3640 c3        1 SGR     -0.103500
      3 C           2.2110    0.8070    1.6580 c         1 SGR      0.958600
      4 O           1.5540    0.7020    2.7090 o         1 SGR     -0.766300
      5 CB          1.7480    0.9930   -0.8770 c3        1 SGR      0.172400
      6 OG          2.9050    0.5390   -1.5610 os        1 SGR     -0.547200
      7 N4          5.0620    1.6540   -0.5940 nz        1 SGR     -0.878700
      8 P1          4.0200    1.6170   -1.9620 p5        1 SGR      1.505400
      9 O5          3.5340    2.9490   -2.2660 o         1 SGR     -0.733300
     10 O2          4.9080    0.8470   -3.0270 os        1 SGR     -0.565200
     11 C3          4.8940    1.3020   -4.3770 c3        1 SGR      0.141700
     12 OXT         3.3150    1.3740    1.4610 o         1 SGR     -0.766300
     13 H          -0.1080   -1.1270    0.2140 hn        1 SGR      0.463467
     14 HBC1        0.8830    0.8920   -1.5940 h1        1 SGR      0.082700
     15 HBC2        1.8790    2.0720   -0.5820 h1        1 SGR      0.082700
     16 H4N1        5.1130    2.5980   -0.1890 hn        1 SGR      0.497467
     17 H4N2        4.6960    1.0570    0.1860 hn        1 SGR      0.497467
     18 H3C1        4.4180    0.4990   -5.0010 h1        1 SGR      0.079367
     19 H3C2        4.3370    2.2700   -4.4520 h1        1 SGR      0.079367
     20 H3C3        5.9660    1.4250   -4.6860 h1        1 SGR      0.079367
     21 H1          2.1430   -0.8560    0.2170 hx        1 SGR      0.120700
     22 H2         -0.4740    0.4970    0.3180 hn        1 SGR      0.463467
     23 HN3         0.0650   -0.3060    1.6850 hn        1 SGR      0.463467
     24 H43         6.0160    1.3450   -0.7860 hn        1 SGR      0.497467
@<TRIPOS>BOND
     1    1    2 1   
     2    1   13 1   
     3    1   22 1   
     4    1   23 1   
     5    2    3 1   
     6    2    5 1   
     7    2   21 1   
     8    3    4 1   
     9    3   12 1   
    10    5    6 1   
    11    5   14 1   
    12    5   15 1   
    13    6    8 1   
    14    7    8 1   
    15    7   16 1   
    16    7   17 1   
    17    7   24 1   
    18    8    9 2   
    19    8   10 1   
    20   10   11 1   
    21   11   18 1   
    22   11   19 1   
    23   11   20 1   
@<TRIPOS>SUBSTRUCTURE
     1 SGR         1 TEMP              0 ****  ****    0 ROOT
