@<TRIPOS>MOLECULE
SGR
   22    21     1     0     0
SMALL
bcc


@<TRIPOS>ATOM
      1 N          -3.0560   -1.2160    1.1620 n3        1 SGR     -0.877800
      2 CA         -1.6410   -1.2800    1.1660 c3        1 SGR     -0.004500
      3 C          -1.1310   -1.1180    2.5910 c         1 SGR      0.886600
      4 O          -1.6170   -0.2340    3.3300 o         1 SGR     -0.843300
      5 CB         -1.0850   -0.1660    0.3010 c3        1 SGR      0.199400
      6 OG          0.3220   -0.1510    0.3860 os        1 SGR     -0.594200
      7 N4          2.1530    1.7760    0.2970 n3        1 SGR     -1.115900
      8 P1          1.1210    0.8330   -0.5880 p5        1 SGR      1.640400
      9 O5          0.1390    1.7140   -1.3200 o         1 SGR     -0.863300
     10 O2          1.9470   -0.0150   -1.6280 os        1 SGR     -0.572200
     11 C3          2.2130    0.5460   -2.9200 c3        1 SGR      0.152700
     12 OXT        -0.1550   -1.8170    2.9990 o         1 SGR     -0.843300
     13 H          -3.3770   -1.3660    0.2860 hn        1 SGR      0.333300
     14 HBC1       -1.3570   -0.3130   -0.6460 h1        1 SGR      0.037700
     15 HBC2       -1.4320    0.6790    0.6070 h1        1 SGR      0.037700
     16 H4N1        2.0580    2.6910    0.2920 hn        1 SGR      0.463300
     17 H4N2        2.8480    1.3870    0.7680 hn        1 SGR      0.463300
     18 H3C1        1.3900    0.4940   -3.4800 h1        1 SGR      0.034700
     19 H3C2        2.4920    1.5080   -2.8200 h1        1 SGR      0.034700
     20 H3C3        2.9350    0.0390   -3.3510 h1        1 SGR      0.034700
     21 H1         -1.3630   -2.1140    0.8240 h1        1 SGR      0.063700
     22 H2         -3.4050   -1.8770    1.7450 hn        1 SGR      0.333300
@<TRIPOS>BOND
     1    1    2 1   
     2    1   13 1   
     3    1   22 1   
     4    2    3 1   
     5    2    5 1   
     6    2   21 1   
     7    3    4 1   
     8    3   12 1   
     9    5    6 1   
    10    5   14 1   
    11    5   15 1   
    12    6    8 1   
    13    7    8 1   
    14    7   16 1   
    15    7   17 1   
    16    8    9 2   
    17    8   10 1   
    18   10   11 1   
    19   11   18 1   
    20   11   19 1   
    21   11   20 1   
@<TRIPOS>SUBSTRUCTURE
     1 SGR         1 TEMP              0 ****  ****    0 ROOT
