@<TRIPOS>MOLECULE
SGR
   24    23     1     0     0
SMALL
bcc


@<TRIPOS>ATOM
      1 N           0.1680   -0.2270    0.6810 n4        1 SGR     -0.822600
      2 CA          1.5840    0.1310    0.3910 c3        1 SGR     -0.103500
      3 C           2.2090    0.8840    1.6610 c         1 SGR      0.958600
      4 O           1.5530    0.8050    2.7140 o         1 SGR     -0.766300
      5 CB          1.7480    0.9770   -0.8790 c3        1 SGR      0.172400
      6 OG          2.9130    0.5170   -1.5460 os        1 SGR     -0.547200
      7 N4          5.0510    1.6970   -0.6160 n4        1 SGR     -0.878700
      8 P1          4.0120    1.5980   -1.9820 p5        1 SGR      1.505400
      9 O5          3.5060    2.9110   -2.3320 o         1 SGR     -0.733300
     10 O2          4.9130    0.8050   -3.0200 os        1 SGR     -0.565200
     11 C3          4.8940    1.2130   -4.3840 c3        1 SGR      0.141700
     12 OXT         3.3040    1.4610    1.4460 o         1 SGR     -0.766300
     13 H           0.0800   -0.2600    1.7230 hn        1 SGR      0.463467
     14 HBC1        1.8620    2.0670   -0.6210 h1        1 SGR      0.082700
     15 HBC2        0.8860    0.8390   -1.5940 h1        1 SGR      0.082700
     16 H4N1        5.0870    2.6550   -0.2420 hn        1 SGR      0.497467
     17 H4N2        6.0100    1.3960   -0.7960 hn        1 SGR      0.497467
     18 H3C1        4.3230    2.1700   -4.4940 h1        1 SGR      0.079367
     19 H3C2        4.4310    0.3830   -4.9810 h1        1 SGR      0.079367
     20 H3C3        5.9640    1.3410   -4.6970 h1        1 SGR      0.079367
     21 H1          2.1680   -0.8280    0.2780 hx        1 SGR      0.120700
     22 H2         -0.0790   -1.1310    0.2810 hn        1 SGR      0.463467
     23 HN3        -0.4690    0.4890    0.3300 hn        1 SGR      0.463467
     24 H43         4.6930    1.1210    0.1840 hn        1 SGR      0.497467
@<TRIPOS>BOND
     1    1    2 1   
     2    1   13 1   
     3    1   22 1   
     4    1   23 1   
     5    2    3 1   
     6    2    5 1   
     7    2   21 1   
     8    3    4 1   
     9    3   12 1   
    10    5    6 1   
    11    5   14 1   
    12    5   15 1   
    13    6    8 1   
    14    7    8 1   
    15    7   16 1   
    16    7   17 1   
    17    7   24 1   
    18    8    9 2   
    19    8   10 1   
    20   10   11 1   
    21   11   18 1   
    22   11   19 1   
    23   11   20 1   
@<TRIPOS>SUBSTRUCTURE
     1 SGR         1 TEMP              0 ****  ****    0 ROOT
