@<TRIPOS>MOLECULE
SGS
   49    50     1     0     0
SMALL
bcc


@<TRIPOS>ATOM
      1 O5         -3.3510    0.6080    0.5350 os        1 SGS     -0.436600
      2 C1         -3.0890    0.0810   -0.7570 c3        1 SGS      0.315900
      3 O1         -1.7380   -0.3370   -0.6260 os        1 SGS     -0.444900
      4 C13        -0.7530    0.6230   -0.7480 c         1 SGS      0.649300
      5 O32        -1.0880    1.7580   -1.0910 o         1 SGS     -0.530000
      6 C21         0.5790    0.0880   -0.4620 ce        1 SGS     -0.226200
      7 C25         1.6670    0.8690   -0.5640 cf        1 SGS     -0.005200
      8 C26         3.0270    0.4370   -0.2970 ca        1 SGS     -0.063800
      9 C27         4.0850    1.2090   -0.8070 ca        1 SGS     -0.167000
     10 C28         5.4080    0.8310   -0.5780 ca        1 SGS      0.086100
     11 O5A         6.5140    1.5150   -1.0390 os        1 SGS     -0.322900
     12 C7          6.2500    2.6910   -1.7970 c3        1 SGS      0.114200
     13 C29         5.6950   -0.3290    0.1820 ca        1 SGS      0.108100
     14 O35         7.0110   -0.6590    0.3720 oh        1 SGS     -0.467100
     15 C30         4.6220   -1.0880    0.6920 ca        1 SGS      0.086100
     16 O37         5.0030   -2.2170    1.3990 os        1 SGS     -0.322900
     17 C38         3.9930   -2.8150    2.2040 c3        1 SGS      0.114200
     18 C31         3.2980   -0.7110    0.4550 ca        1 SGS     -0.167000
     19 C2         -3.9180   -1.1910   -1.0230 c3        1 SGS      0.085100
     20 O13        -3.7520   -1.6270   -2.3600 oh        1 SGS     -0.600800
     21 C3         -5.4070   -0.8580   -0.8500 c3        1 SGS      0.109100
     22 O3         -6.1940   -2.0350   -0.8900 oh        1 SGS     -0.604800
     23 C4         -5.6380   -0.2250    0.5340 c3        1 SGS      0.122100
     24 O4         -6.9710    0.2400    0.6450 oh        1 SGS     -0.592800
     25 C5         -4.7180    0.9940    0.7100 c3        1 SGS      0.107100
     26 C6         -4.8110    1.5510    2.1330 c3        1 SGS      0.141400
     27 O6         -4.1260    2.7770    2.2480 oh        1 SGS     -0.594800
     28 H18        -3.2190    0.8620   -1.5550 h2        1 SGS      0.089700
     29 H1          0.6120   -0.9720   -0.1670 ha        1 SGS      0.155000
     30 H2          1.5540    1.9250   -0.8820 ha        1 SGS      0.150000
     31 H3          3.8580    2.1120   -1.3920 ha        1 SGS      0.146000
     32 H7          5.6990    3.4430   -1.1830 h1        1 SGS      0.047700
     33 H6          5.6780    2.4440   -2.7240 h1        1 SGS      0.047700
     34 H5          7.2750    3.0640   -2.0530 h1        1 SGS      0.047700
     35 H9          7.0420   -1.4370    0.9520 ho        1 SGS      0.436000
     36 H10         3.5230   -2.0620    2.8820 h1        1 SGS      0.047700
     37 H11         3.2200   -3.2980    1.5580 h1        1 SGS      0.047700
     38 H12         4.5530   -3.5870    2.7920 h1        1 SGS      0.047700
     39 H4          2.4720   -1.3100    0.8650 ha        1 SGS      0.146000
     40 H17        -3.6120   -2.0040   -0.3070 h1        1 SGS      0.075700
     41 H22        -2.8170   -1.8500   -2.4640 ho        1 SGS      0.422000
     42 H16        -5.7380   -0.1530   -1.6630 h1        1 SGS      0.067700
     43 H20        -6.0100   -2.4610   -1.7380 ho        1 SGS      0.427000
     44 H15        -5.4310   -0.9900    1.3330 h1        1 SGS      0.062700
     45 H19        -7.5400   -0.5160    0.4450 ho        1 SGS      0.425000
     46 H31        -4.9830    1.7910   -0.0380 h1        1 SGS      0.075700
     47 H32        -5.8850    1.7810    2.3660 h1        1 SGS      0.064200
     48 H33        -4.4020    0.8030    2.8630 h1        1 SGS      0.064200
     49 H34        -3.2100    2.6180    1.9840 ho        1 SGS      0.413000
@<TRIPOS>BOND
     1    1    2 1   
     2    1   25 1   
     3    2    3 1   
     4    2   19 1   
     5    2   28 1   
     6    3    4 1   
     7    4    5 2   
     8    4    6 1   
     9    6    7 2   
    10    6   29 1   
    11    7    8 1   
    12    7   30 1   
    13    8    9 ar  
    14    8   18 ar  
    15    9   10 ar  
    16    9   31 1   
    17   10   11 1   
    18   10   13 ar  
    19   11   12 1   
    20   12   32 1   
    21   12   33 1   
    22   12   34 1   
    23   13   14 1   
    24   13   15 ar  
    25   14   35 1   
    26   15   16 1   
    27   15   18 ar  
    28   16   17 1   
    29   17   36 1   
    30   17   37 1   
    31   17   38 1   
    32   18   39 1   
    33   19   20 1   
    34   19   21 1   
    35   19   40 1   
    36   20   41 1   
    37   21   22 1   
    38   21   23 1   
    39   21   42 1   
    40   22   43 1   
    41   23   24 1   
    42   23   25 1   
    43   23   44 1   
    44   24   45 1   
    45   25   26 1   
    46   25   46 1   
    47   26   27 1   
    48   26   47 1   
    49   26   48 1   
    50   27   49 1   
@<TRIPOS>SUBSTRUCTURE
     1 SGS         1 TEMP              0 ****  ****    0 ROOT
