@<TRIPOS>MOLECULE
SGS
   49    47     1     0     0
SMALL
bcc


@<TRIPOS>ATOM
      1 O5         -1.0060    0.2670    3.7310 os        1 SGS     -0.269000
      2 C1         -0.9640    0.7950    2.3650 c3        1 SGS      0.149000
      3 O1         -1.1500   -0.2600    1.4600 os        1 SGS     -0.308000
      4 C13        -0.0550   -0.4300    0.5270 c2        1 SGS      0.367000
      5 O32        -0.1760   -0.0530   -0.6370 o         1 SGS     -0.350000
      6 C21         1.2290   -1.1420    0.9720 c2        1 SGS     -0.195000
      7 C25         2.2950   -1.3340    0.0440 c1        1 SGS     -0.027000
      8 C26         2.1630   -0.8460   -1.3450 c1        1 SGS     -0.060000
      9 C27         2.6360    0.4200   -1.6790 c2        1 SGS     -0.149000
     10 C28         2.6390    0.8290   -2.9850 c1        1 SGS      0.048500
     11 O5A         3.0730    2.1370   -3.3130 o         1 SGS     -0.223500
     12 C7          4.4790    2.2760   -3.3670 c3        1 SGS     -0.069000
     13 C29         2.1720   -0.0190   -3.9820 c2        1 SGS      0.018000
     14 O35         2.1680    0.4050   -5.3060 oh        1 SGS     -0.257000
     15 C30         1.6980   -1.2880   -3.6540 c1        1 SGS      0.048500
     16 O37         1.0620   -2.0590   -4.6230 o         1 SGS     -0.223500
     17 C38         1.9420   -2.8240   -5.4100 c3        1 SGS     -0.069000
     18 C31         1.6940   -1.6990   -2.3410 c2        1 SGS     -0.149000
     19 C2         -2.0200    1.8400    2.1150 c3        1 SGS      0.017000
     20 O13        -1.6890    3.0320    2.8910 oh        1 SGS     -0.319000
     21 C3         -3.3650    1.3820    2.4990 c3        1 SGS     -0.033000
     22 O3         -3.8040    0.2990    1.5420 oh        1 SGS     -0.333000
     23 C4         -3.3990    0.8540    3.8770 c3        1 SGS     -0.026000
     24 O4         -3.2020    1.9530    4.8080 oh        1 SGS     -0.318000
     25 C5         -2.3250   -0.1920    4.1210 c3        1 SGS      0.000000
     26 C6         -2.6600   -1.4230    3.3390 c3        1 SGS     -0.041000
     27 O6         -3.1300   -2.4310    4.2150 oh        1 SGS     -0.327000
     28 H18        -0.0920    1.1900    2.2100 h2        1 SGS      0.176000
     29 H1          1.3200   -1.4730    1.9220 ha        1 SGS      0.152000
     30 H2          3.1100   -1.7840    0.3250 ha        1 SGS      0.137000
     31 H3          2.9600    1.0510   -0.9470 ha        1 SGS      0.162500
     32 H7          4.7460    2.3800   -4.2490 h1        1 SGS      0.089667
     33 H6          4.8990    1.4800   -2.9940 h1        1 SGS      0.089667
     34 H5          4.7500    3.0650   -2.8470 h1        1 SGS      0.089667
     35 H9          1.4520    0.9310   -5.4490 ho        1 SGS      0.240000
     36 H10         2.6860   -3.1490   -4.8500 h1        1 SGS      0.089667
     37 H11         1.4500   -3.6040   -5.7980 h1        1 SGS      0.089667
     38 H12         2.2860   -2.2870   -6.1130 h1        1 SGS      0.089667
     39 H4          1.3610   -2.5920   -2.1070 ha        1 SGS      0.162500
     40 H17        -2.0200    2.0640    1.1880 h1        1 SGS      0.113000
     41 H22        -1.6380    3.7250    2.3560 ho        1 SGS      0.227000
     42 H16        -3.9990    2.1510    2.4310 h1        1 SGS      0.099000
     43 H20        -4.6630    0.5230    1.1800 ho        1 SGS      0.223000
     44 H15        -4.2690    0.4540    4.0410 h1        1 SGS      0.150000
     45 H19        -3.8110    1.9310    5.4070 ho        1 SGS      0.205000
     46 H31        -2.3110   -0.4220    5.1020 h1        1 SGS      0.144000
     47 H32        -1.8630   -1.7410    2.8770 h1        1 SGS      0.080500
     48 H33        -3.3320   -1.2190    2.7060 h1        1 SGS      0.080500
     49 H34        -3.3300   -3.1610    3.7460 ho        1 SGS      0.206000
@<TRIPOS>BOND
     1    1    2 1   
     2    1   25 1   
     3    2    3 1   
     4    2   19 1   
     5    2   28 1   
     6    3    4 1   
     7    4    5 1   
     8    4    6 1   
     9    6    7 1   
    10    6   29 1   
    11    7   30 1   
    12    8    9 1   
    13    8   18 1   
    14    9   10 1   
    15    9   31 1   
    16   10   13 1   
    17   11   12 1   
    18   12   32 1   
    19   12   33 1   
    20   12   34 1   
    21   13   14 1   
    22   13   15 1   
    23   14   35 1   
    24   15   18 1   
    25   16   17 1   
    26   17   36 1   
    27   17   37 1   
    28   17   38 1   
    29   18   39 1   
    30   19   20 1   
    31   19   21 1   
    32   19   40 1   
    33   20   41 1   
    34   21   22 1   
    35   21   23 1   
    36   21   42 1   
    37   22   43 1   
    38   23   24 1   
    39   23   25 1   
    40   23   44 1   
    41   24   45 1   
    42   25   26 1   
    43   25   46 1   
    44   26   27 1   
    45   26   47 1   
    46   26   48 1   
    47   27   49 1   
@<TRIPOS>SUBSTRUCTURE
     1 SGS         1 TEMP              0 ****  ****    0 ROOT
