@<TRIPOS>MOLECULE
SGV
   37    39     1     0     0
SMALL
bcc


@<TRIPOS>ATOM
      1 N1          3.4900   -2.0770    0.3280 nb        1 SGV     -0.797000
      2 C2          2.3850   -2.7960    0.0060 ca        1 SGV      0.686900
      3 N3          1.1390   -2.3720   -0.3020 nb        1 SGV     -0.745000
      4 C4          1.0200   -1.0080   -0.2810 ca        1 SGV      0.471800
      5 C5          2.1110   -0.1000    0.0360 ca        1 SGV     -0.339400
      6 C6          3.3770   -0.7050    0.3400 ca        1 SGV      0.743200
      7 N6          4.4870    0.0670    0.5850 nh        1 SGV     -0.945500
      8 C7          1.5740    1.2340   -0.0660 cc        1 SGV     -0.173400
      9 C8          0.2270    1.1120   -0.4240 cd        1 SGV     -0.074100
     10 N9         -0.1240   -0.2330   -0.5440 na        1 SGV     -0.190100
     11 C1'        -1.4090   -0.7590   -0.9640 c3        1 SGV      0.254800
     12 C10         2.2590    2.5110    0.1670 c         1 SGV      0.706300
     13 N11         1.8470    3.5950   -0.5760 n         1 SGV     -0.669000
     14 O12         3.1610    2.6690    1.0200 o         1 SGV     -0.638100
     15 C2'        -2.1070   -1.6470    0.1170 c3        1 SGV      0.127100
     16 O2'        -2.7170   -2.6990   -0.5990 oh        1 SGV     -0.580800
     17 C3'        -3.1240   -0.6880    0.7740 c3        1 SGV      0.085100
     18 O3'        -4.3270   -1.3970    0.9870 oh        1 SGV     -0.593800
     19 C4'        -3.3040    0.4600   -0.2380 c3        1 SGV      0.063100
     20 O4'        -2.3030    0.3240   -1.2570 os        1 SGV     -0.407600
     21 C5'        -3.1780    1.8430    0.4000 c3        1 SGV      0.107400
     22 O5'        -4.3130    2.1180    1.1950 oh        1 SGV     -0.593800
     23 H2          2.5290   -3.8980    0.0010 h5        1 SGV      0.052100
     24 HN6         5.3140   -0.3760    0.9100 hn        1 SGV      0.447300
     25 HN6A        4.3460    1.0200    0.8340 hn        1 SGV      0.447300
     26 H8         -0.5260    1.8880   -0.5950 h4        1 SGV      0.181000
     27 H1'        -1.2780   -1.3290   -1.9330 h2        1 SGV      0.129700
     28 HN11        1.2310    3.4810   -1.3380 hn        1 SGV      0.312500
     29 HN1A        2.3190    4.4580   -0.4680 hn        1 SGV      0.312500
     30 H2'        -1.3930   -2.0660    0.8730 h1        1 SGV      0.087700
     31 HO2'       -3.3770   -3.0990   -0.0160 ho        1 SGV      0.432000
     32 H3'        -2.7270   -0.2980    1.7510 h1        1 SGV      0.068700
     33 HO3'       -4.9150   -0.8030    1.4720 ho        1 SGV      0.424000
     34 H4'        -4.2930    0.3620   -0.7670 h1        1 SGV      0.082700
     35 H5'        -2.3080    1.8870    1.1100 h1        1 SGV      0.061200
     36 H5'A       -3.0430    2.6180   -0.4000 h1        1 SGV      0.061200
     37 HO5'       -5.0530    2.2780    0.5960 ho        1 SGV      0.404000
@<TRIPOS>BOND
     1    1    2 ar  
     2    1    6 ar  
     3    2    3 ar  
     4    2   23 1   
     5    3    4 ar  
     6    4    5 ar  
     7    4   10 1   
     8    5    6 ar  
     9    5    8 1   
    10    6    7 1   
    11    7   24 1   
    12    7   25 1   
    13    8    9 2   
    14    8   12 1   
    15    9   10 1   
    16    9   26 1   
    17   10   11 1   
    18   11   15 1   
    19   11   20 1   
    20   11   27 1   
    21   12   13 1   
    22   12   14 2   
    23   13   28 1   
    24   13   29 1   
    25   15   16 1   
    26   15   17 1   
    27   15   30 1   
    28   16   31 1   
    29   17   18 1   
    30   17   19 1   
    31   17   32 1   
    32   18   33 1   
    33   19   20 1   
    34   19   21 1   
    35   19   34 1   
    36   21   22 1   
    37   21   35 1   
    38   21   36 1   
    39   22   37 1   
@<TRIPOS>SUBSTRUCTURE
     1 SGV         1 TEMP              0 ****  ****    0 ROOT
