@<TRIPOS>MOLECULE
SGV
   38    40     1     0     0
SMALL
bcc


@<TRIPOS>ATOM
      1 N1         -0.1930    1.0480    0.3710 nb        1 SGV     -0.756000
      2 C2          1.1540    1.0890    0.2620 ca        1 SGV      0.710900
      3 N3          2.1000    0.6900    1.1520 nb        1 SGV     -0.732000
      4 C4          1.5700    0.1850    2.2990 ca        1 SGV      0.486800
      5 C5          0.1460    0.0850    2.5730 ca        1 SGV     -0.339400
      6 C6         -0.7360    0.5480    1.5370 ca        1 SGV      0.753200
      7 N6         -2.0940    0.5410    1.6940 nh        1 SGV     -0.943500
      8 C7          0.0260   -0.4880    3.8980 cc        1 SGV     -0.264400
      9 C8          1.3440   -0.7590    4.3430 cd        1 SGV     -0.009100
     10 N9          2.2670   -0.3380    3.4200 na        1 SGV     -0.150100
     11 C1'         3.7100   -0.3750    3.6600 c3        1 SGV      0.237800
     12 C10        -1.1380   -0.6720    4.6890 c         1 SGV      0.617300
     13 N11        -0.8590   -0.9180    6.1800 n4        1 SGV     -0.770400
     14 O12        -2.3360   -0.6470    4.4300 o         1 SGV     -0.472100
     15 C2'         4.4350    0.9900    3.4470 c3        1 SGV      0.086100
     16 O2'         5.6480    0.6660    2.8000 oh        1 SGV     -0.580800
     17 C3'         4.7230    1.5180    4.8770 c3        1 SGV      0.098100
     18 O3'         6.0900    1.7630    5.0810 oh        1 SGV     -0.567800
     19 C4'         4.1840    0.4260    5.8260 c3        1 SGV      0.049100
     20 O4'         3.9190   -0.7380    5.0270 os        1 SGV     -0.407600
     21 C5'         2.9220    0.8950    6.5520 c3        1 SGV      0.108400
     22 O5'         2.1500   -0.1790    7.0670 oh        1 SGV     -0.659800
     23 H2          1.5430    1.5020   -0.6980 h5        1 SGV      0.079100
     24 HN6        -2.6770    0.8220    0.9380 hn        1 SGV      0.456300
     25 HN6A       -2.5000    0.0160    2.4280 hn        1 SGV      0.456300
     26 H8          1.6890   -1.2460    5.2680 h4        1 SGV      0.209000
     27 H1'         4.1680   -1.1980    3.0330 h2        1 SGV      0.151700
     28 HN11       -0.6380   -1.9050    6.3260 hn        1 SGV      0.466133
     29 HN1A       -0.0610   -0.3520    6.4980 hn        1 SGV      0.466133
     30 H2'         3.8380    1.7270    2.8510 h1        1 SGV      0.097700
     31 HO2'        5.9950    1.4840    2.4170 ho        1 SGV      0.441000
     32 H3'         4.2260    2.5100    5.0610 h1        1 SGV      0.103700
     33 HO3'        6.5850    0.9820    4.7870 ho        1 SGV      0.431000
     34 H4'         4.9670    0.0920    6.5620 h1        1 SGV      0.112700
     35 H5'         3.2150    1.5890    7.3850 h1        1 SGV      0.067700
     36 H5'A        2.2230    1.4230    5.8480 h1        1 SGV      0.067700
     37 HO5'        2.7290   -0.7050    7.6350 ho        1 SGV      0.434000
     38 H113       -1.6930   -0.6830    6.7260 hn        1 SGV      0.466133
@<TRIPOS>BOND
     1    1    2 ar  
     2    1    6 ar  
     3    2    3 ar  
     4    2   23 1   
     5    3    4 ar  
     6    4    5 ar  
     7    4   10 1   
     8    5    6 ar  
     9    5    8 1   
    10    6    7 1   
    11    7   24 1   
    12    7   25 1   
    13    8    9 2   
    14    8   12 1   
    15    9   10 1   
    16    9   26 1   
    17   10   11 1   
    18   11   15 1   
    19   11   20 1   
    20   11   27 1   
    21   12   13 1   
    22   12   14 2   
    23   13   28 1   
    24   13   29 1   
    25   13   38 1   
    26   15   16 1   
    27   15   17 1   
    28   15   30 1   
    29   16   31 1   
    30   17   18 1   
    31   17   19 1   
    32   17   32 1   
    33   18   33 1   
    34   19   20 1   
    35   19   21 1   
    36   19   34 1   
    37   21   22 1   
    38   21   35 1   
    39   21   36 1   
    40   22   37 1   
@<TRIPOS>SUBSTRUCTURE
     1 SGV         1 TEMP              0 ****  ****    0 ROOT
