@<TRIPOS>MOLECULE
SGV
   39    41     1     0     0
SMALL
bcc


@<TRIPOS>ATOM
      1 N1         -0.2580    0.6710    0.2290 nb        1 SGV     -0.651000
      2 C2          1.0940    0.8000    0.1340 ca        1 SGV      0.698900
      3 N3          2.0170    0.5820    1.1080 nb        1 SGV     -0.587000
      4 C4          1.4940    0.1940    2.2940 ca        1 SGV      0.470800
      5 C5          0.0520    0.0160    2.5410 ca        1 SGV     -0.234400
      6 C6         -0.7680    0.2800    1.4260 ca        1 SGV      0.526200
      7 N6         -2.2350    0.1340    1.5070 n4        1 SGV     -0.822300
      8 C7         -0.0670   -0.4050    3.9200 cc        1 SGV     -0.333400
      9 C8          1.2610   -0.4830    4.4380 cd        1 SGV      0.069900
     10 N9          2.1780   -0.1190    3.4990 na        1 SGV     -0.119100
     11 C1'         3.6470   -0.1450    3.6710 c3        1 SGV      0.189800
     12 C10        -1.2750   -0.6660    4.6170 c         1 SGV      0.619300
     13 N11        -1.1670   -1.0810    6.0670 n4        1 SGV     -0.746400
     14 O12        -2.4330   -0.5920    4.1970 o         1 SGV     -0.529100
     15 C2'         4.3440    1.2470    3.4890 c3        1 SGV      0.103100
     16 O2'         5.3110    1.1570    2.4860 oh        1 SGV     -0.551800
     17 C3'         4.9340    1.5710    4.8870 c3        1 SGV      0.093100
     18 O3'         6.3400    1.4780    4.8400 oh        1 SGV     -0.575800
     19 C4'         4.4390    0.4460    5.8150 c3        1 SGV      0.079100
     20 O4'         3.9230   -0.6100    4.9790 os        1 SGV     -0.396600
     21 C5'         3.3540    0.9320    6.7770 c3        1 SGV      0.108400
     22 O5'         2.5090   -0.1310    7.1830 oh        1 SGV     -0.649800
     23 H2          1.4880    1.1220   -0.8650 h5        1 SGV      0.128100
     24 HN6        -2.4680   -0.8570    1.6510 hn        1 SGV      0.486800
     25 HN6A       -2.5880    0.6750    2.3090 hn        1 SGV      0.486800
     26 H8          1.6070   -0.7860    5.4470 h4        1 SGV      0.245000
     27 H1'         4.0490   -0.9160    2.9430 h2        1 SGV      0.150700
     28 HN11       -2.0980   -1.0300    6.5080 hn        1 SGV      0.483467
     29 HN1A       -0.8280   -2.0480    6.1280 hn        1 SGV      0.483467
     30 H2'         3.6330    2.0440    3.1410 h1        1 SGV      0.105700
     31 HO2'        6.0930    0.7000    2.8390 ho        1 SGV      0.444000
     32 H3'         4.6000    2.5810    5.2400 h1        1 SGV      0.085700
     33 HO3'        6.6860    2.3360    4.5510 ho        1 SGV      0.445000
     34 H4'         5.2950   -0.0350    6.3700 h1        1 SGV      0.139700
     35 H5'         2.6630    1.6650    6.2820 h1        1 SGV      0.073200
     36 H5'A        3.8370    1.4170    7.6680 h1        1 SGV      0.073200
     37 HO5'        3.0470   -0.7480    7.6990 ho        1 SGV      0.440000
     38 H63        -2.6880    0.4680    0.6400 hn        1 SGV      0.486800
     39 H113       -0.5160   -0.4680    6.5730 hn        1 SGV      0.483467
@<TRIPOS>BOND
     1    1    2 ar  
     2    1    6 ar  
     3    2    3 ar  
     4    2   23 1   
     5    3    4 ar  
     6    4    5 ar  
     7    4   10 1   
     8    5    6 ar  
     9    5    8 1   
    10    6    7 1   
    11    7   24 1   
    12    7   25 1   
    13    7   38 1   
    14    8    9 2   
    15    8   12 1   
    16    9   10 1   
    17    9   26 1   
    18   10   11 1   
    19   11   15 1   
    20   11   20 1   
    21   11   27 1   
    22   12   13 1   
    23   12   14 2   
    24   13   28 1   
    25   13   29 1   
    26   13   39 1   
    27   15   16 1   
    28   15   17 1   
    29   15   30 1   
    30   16   31 1   
    31   17   18 1   
    32   17   19 1   
    33   17   32 1   
    34   18   33 1   
    35   19   20 1   
    36   19   21 1   
    37   19   34 1   
    38   21   22 1   
    39   21   35 1   
    40   21   36 1   
    41   22   37 1   
@<TRIPOS>SUBSTRUCTURE
     1 SGV         1 TEMP              0 ****  ****    0 ROOT
