@<TRIPOS>MOLECULE
SGV
   38    40     1     0     0
SMALL
bcc


@<TRIPOS>ATOM
      1 N1         -0.1930    1.0520    0.3720 nb        1 SGV     -0.756000
      2 C2          1.1540    1.0950    0.2640 ca        1 SGV      0.710900
      3 N3          2.1000    0.6970    1.1540 nb        1 SGV     -0.732000
      4 C4          1.5710    0.1890    2.3000 ca        1 SGV      0.486800
      5 C5          0.1470    0.0850    2.5730 ca        1 SGV     -0.339400
      6 C6         -0.7350    0.5480    1.5380 ca        1 SGV      0.753200
      7 N6         -2.0930    0.5380    1.6930 nv        1 SGV     -0.943500
      8 C7          0.0280   -0.4910    3.8960 cc        1 SGV     -0.264400
      9 C8          1.3460   -0.7600    4.3410 cd        1 SGV     -0.009100
     10 N9          2.2680   -0.3350    3.4200 na        1 SGV     -0.150100
     11 C1'         3.7110   -0.3700    3.6600 c3        1 SGV      0.237800
     12 C10        -1.1370   -0.6790    4.6860 c         1 SGV      0.617300
     13 N11        -0.8570   -0.9280    6.1770 nz        1 SGV     -0.770400
     14 O12        -2.3340   -0.6560    4.4270 o         1 SGV     -0.472100
     15 C2'         4.4340    0.9970    3.4500 c3        1 SGV      0.086100
     16 O2'         5.6480    0.6770    2.8040 oh        1 SGV     -0.580800
     17 C3'         4.7200    1.5230    4.8820 c3        1 SGV      0.098100
     18 O3'         6.0860    1.7700    5.0870 oh        1 SGV     -0.567800
     19 C4'         4.1830    0.4280    5.8290 c3        1 SGV      0.049100
     20 O4'         3.9210   -0.7360    5.0270 os        1 SGV     -0.407600
     21 C5'         2.9200    0.8920    6.5550 c3        1 SGV      0.108400
     22 O5'         2.1500   -0.1850    7.0670 oh        1 SGV     -0.659800
     23 H2          1.5420    1.5100   -0.6950 h5        1 SGV      0.079100
     24 HN6        -2.4980    0.0110    2.4260 hn        1 SGV      0.456300
     25 HN6A       -2.6760    0.8180    0.9370 hn        1 SGV      0.456300
     26 H8          1.6920   -1.2480    5.2660 h4        1 SGV      0.209000
     27 H1'         4.1710   -1.1910    3.0310 h2        1 SGV      0.151700
     28 HN11       -0.0610   -0.3610    6.4970 hn        1 SGV      0.466133
     29 HN1A       -0.6340   -1.9150    6.3210 hn        1 SGV      0.466133
     30 H2'         3.8360    1.7340    2.8560 h1        1 SGV      0.097700
     31 HO2'        5.9940    1.4960    2.4220 ho        1 SGV      0.441000
     32 H3'         4.2200    2.5130    5.0670 h1        1 SGV      0.103700
     33 HO3'        6.5840    0.9910    4.7920 ho        1 SGV      0.431000
     34 H4'         4.9660    0.0930    6.5640 h1        1 SGV      0.112700
     35 H5'         3.2110    1.5850    7.3890 h1        1 SGV      0.067700
     36 H5'A        2.2200    1.4200    5.8520 h1        1 SGV      0.067700
     37 HO5'        2.7290   -0.7100    7.6340 ho        1 SGV      0.434000
     38 H113       -1.6920   -0.6950    6.7240 hn        1 SGV      0.466133
@<TRIPOS>BOND
     1    1    2 ar  
     2    1    6 ar  
     3    2    3 ar  
     4    2   23 1   
     5    3    4 ar  
     6    4    5 ar  
     7    4   10 1   
     8    5    6 ar  
     9    5    8 1   
    10    6    7 1   
    11    7   24 1   
    12    7   25 1   
    13    8    9 2   
    14    8   12 1   
    15    9   10 1   
    16    9   26 1   
    17   10   11 1   
    18   11   15 1   
    19   11   20 1   
    20   11   27 1   
    21   12   13 1   
    22   12   14 2   
    23   13   28 1   
    24   13   29 1   
    25   13   38 1   
    26   15   16 1   
    27   15   17 1   
    28   15   30 1   
    29   16   31 1   
    30   17   18 1   
    31   17   19 1   
    32   17   32 1   
    33   18   33 1   
    34   19   20 1   
    35   19   21 1   
    36   19   34 1   
    37   21   22 1   
    38   21   35 1   
    39   21   36 1   
    40   22   37 1   
@<TRIPOS>SUBSTRUCTURE
     1 SGV         1 TEMP              0 ****  ****    0 ROOT
