@<TRIPOS>MOLECULE
SGW
   32    34     1     0     0
SMALL
bcc


@<TRIPOS>ATOM
      1 C1         -0.0670   -0.1150   -0.0410 ca        1 SGW     -0.117000
      2 C2          1.3200    0.0840   -0.0700 ca        1 SGW     -0.176000
      3 C3          2.0390    0.1320    1.1220 ca        1 SGW      0.115100
      4 C4          1.3800   -0.0180    2.3730 ca        1 SGW     -0.009800
      5 C5         -0.0130   -0.2170    2.3690 ca        1 SGW     -0.126600
      6 C6         -0.7330   -0.2650    1.1650 ca        1 SGW     -0.098000
      7 C11        -0.7290   -0.3800    3.6500 c         1 SGW      0.705100
      8 N12         0.0300   -0.3230    4.8240 ns        1 SGW     -0.450100
      9 O13        -1.9590   -0.5630    3.7500 o         1 SGW     -0.639500
     10 C14         2.1190   -0.0740    6.0950 ca        1 SGW     -0.071800
     11 C15         1.6010    0.6490    7.1770 ca        1 SGW     -0.102000
     12 C16         2.2930    0.6980    8.3850 ca        1 SGW     -0.125500
     13 C17         3.5080    0.0170    8.5140 ca        1 SGW      0.026400
     14 C18         4.0330   -0.7070    7.4390 ca        1 SGW     -0.125500
     15 C19         3.3380   -0.7510    6.2340 ca        1 SGW     -0.102000
     16 Cl          4.3530    0.0720    9.9870 cl        1 SGW     -0.085400
     17 CAI         1.4070   -0.1220    4.8060 cc        1 SGW      0.093400
     18 CAH         2.0850    0.0280    3.6230 cd        1 SGW     -0.175200
     19 CAA         4.0870    0.5010   -0.0350 c3        1 SGW      0.112700
     20 OAB         3.4060    0.3180    1.2010 os        1 SGW     -0.326900
     21 H1         -0.6250   -0.1510   -0.9880 ha        1 SGW      0.139000
     22 H2          1.8250    0.2000   -1.0400 ha        1 SGW      0.140000
     23 H6         -1.8230   -0.4230    1.2010 ha        1 SGW      0.161000
     24 HAH         3.1710    0.1960    3.6100 ha        1 SGW      0.166000
     25 H12        -0.4320   -0.4490    5.6970 hn        1 SGW      0.334500
     26 H15         0.6530    1.2000    7.0780 ha        1 SGW      0.147000
     27 H19         3.7460   -1.3230    5.3850 ha        1 SGW      0.147000
     28 H16         1.8840    1.2710    9.2310 ha        1 SGW      0.152000
     29 H18         4.9900   -1.2420    7.5430 ha        1 SGW      0.152000
     30 HAA1        5.1530    0.6460    0.2750 h1        1 SGW      0.046367
     31 HAA2        3.9840   -0.4050   -0.6800 h1        1 SGW      0.046367
     32 HAA3        3.7050    1.4070   -0.5670 h1        1 SGW      0.046367
@<TRIPOS>BOND
     1    1    2 ar  
     2    1    6 ar  
     3    1   21 1   
     4    2    3 ar  
     5    2   22 1   
     6    3    4 ar  
     7    3   20 1   
     8    4    5 ar  
     9    4   18 1   
    10    5    6 ar  
    11    5    7 1   
    12    6   23 1   
    13    7    8 1   
    14    7    9 2   
    15    8   17 1   
    16    8   25 1   
    17   10   11 ar  
    18   10   15 ar  
    19   10   17 1   
    20   11   12 ar  
    21   11   26 1   
    22   12   13 ar  
    23   12   28 1   
    24   13   14 ar  
    25   13   16 1   
    26   14   15 ar  
    27   14   29 1   
    28   15   27 1   
    29   17   18 2   
    30   18   24 1   
    31   19   20 1   
    32   19   30 1   
    33   19   31 1   
    34   19   32 1   
@<TRIPOS>SUBSTRUCTURE
     1 SGW         1 TEMP              0 ****  ****    0 ROOT
