@<TRIPOS>MOLECULE
SGW
   32    34     1     0     0
SMALL
bcc


@<TRIPOS>ATOM
      1 C1         -0.0580   -0.1020   -0.0450 ca        1 SGW     -0.117000
      2 C2          1.3290    0.0880   -0.0720 ca        1 SGW     -0.176000
      3 C3          2.0450    0.1320    1.1220 ca        1 SGW      0.115100
      4 C4          1.3830   -0.0150    2.3720 ca        1 SGW     -0.009800
      5 C5         -0.0110   -0.2060    2.3650 ca        1 SGW     -0.126600
      6 C6         -0.7290   -0.2490    1.1590 ca        1 SGW     -0.098000
      7 C11        -0.7310   -0.3650    3.6440 c         1 SGW      0.705100
      8 N12         0.0250   -0.3130    4.8190 n         1 SGW     -0.450100
      9 O13        -1.9620   -0.5410    3.7410 o         1 SGW     -0.639500
     10 C14         2.1130   -0.0770    6.0950 ca        1 SGW     -0.071800
     11 C15         1.5970    0.6500    7.1760 ca        1 SGW     -0.102000
     12 C16         2.2870    0.6940    8.3860 ca        1 SGW     -0.125500
     13 C17         3.4970    0.0060    8.5180 ca        1 SGW      0.026400
     14 C18         4.0210   -0.7210    7.4440 ca        1 SGW     -0.125500
     15 C19         3.3280   -0.7610    6.2370 ca        1 SGW     -0.102000
     16 CL          4.3390    0.0560    9.9930 cl        1 SGW     -0.085400
     17 CAI         1.4030   -0.1200    4.8040 cc        1 SGW      0.093400
     18 CAH         2.0850    0.0270    3.6230 cd        1 SGW     -0.175200
     19 CAA         4.0980    0.4900   -0.0300 c3        1 SGW      0.112700
     20 OAB         3.4140    0.3100    1.2050 os        1 SGW     -0.326900
     21 H1         -0.6150   -0.1350   -0.9940 ha        1 SGW      0.139000
     22 H2          1.8370    0.2020   -1.0400 ha        1 SGW      0.140000
     23 H6         -1.8200   -0.4010    1.1930 ha        1 SGW      0.161000
     24 HAH         3.1720    0.1890    3.6130 ha        1 SGW      0.166000
     25 H12        -0.4390   -0.4360    5.6920 hn        1 SGW      0.334500
     26 H15         0.6520    1.2060    7.0750 ha        1 SGW      0.147000
     27 H19         3.7350   -1.3340    5.3890 ha        1 SGW      0.147000
     28 H16         1.8790    1.2690    9.2310 ha        1 SGW      0.152000
     29 H18         4.9740   -1.2620    7.5490 ha        1 SGW      0.152000
     30 HAA1        3.9920   -0.4150   -0.6760 h1        1 SGW      0.046367
     31 HAA2        3.7230    1.3980   -0.5620 h1        1 SGW      0.046367
     32 HAA3        5.1640    0.6280    0.2830 h1        1 SGW      0.046367
@<TRIPOS>BOND
     1    1    2 ar  
     2    1    6 ar  
     3    1   21 1   
     4    2    3 ar  
     5    2   22 1   
     6    3    4 ar  
     7    3   20 1   
     8    4    5 ar  
     9    4   18 1   
    10    5    6 ar  
    11    5    7 1   
    12    6   23 1   
    13    7    8 1   
    14    7    9 2   
    15    8   17 1   
    16    8   25 1   
    17   10   11 ar  
    18   10   15 ar  
    19   10   17 1   
    20   11   12 ar  
    21   11   26 1   
    22   12   13 ar  
    23   12   28 1   
    24   13   14 ar  
    25   13   16 1   
    26   14   15 ar  
    27   14   29 1   
    28   15   27 1   
    29   17   18 2   
    30   18   24 1   
    31   19   20 1   
    32   19   30 1   
    33   19   31 1   
    34   19   32 1   
@<TRIPOS>SUBSTRUCTURE
     1 SGW         1 TEMP              0 ****  ****    0 ROOT
