@<TRIPOS>MOLECULE
SGX
   24    23     1     0     0
SMALL
bcc


@<TRIPOS>ATOM
      1 N           0.0800   -0.2790   -0.0370 n4        1 SGX     -0.820600
      2 CA          1.5440   -0.0200   -0.0770 c3        1 SGX     -0.109500
      3 C           2.2100   -0.4910    1.3070 c         1 SGX      0.958600
      4 O           1.5020   -1.2110    2.0310 o         1 SGX     -0.766800
      5 CB          1.9090    1.4440   -0.3570 c3        1 SGX      0.181400
      6 OG          2.9590    1.4420   -1.3100 os        1 SGX     -0.546200
      7 O1          5.1610    2.5240   -2.1950 o         1 SGX     -0.708300
      8 P2          4.3170    2.2370   -1.0540 p5        1 SGX      1.513400
      9 N3          5.1960    1.2320    0.0370 n4        1 SGX     -0.878700
     10 O2          3.8620    3.4530   -0.1400 os        1 SGX     -0.596200
     11 C1          4.2790    4.7710   -0.4790 c3        1 SGX      0.142700
     12 OXT         3.3810   -0.0730    1.4810 o         1 SGX     -0.766800
     13 H          -0.4300    0.5520    0.2670 hn        1 SGX      0.463133
     14 HA1         1.0540    2.0190   -0.8150 h1        1 SGX      0.081200
     15 HB2         2.2520    1.9490    0.5870 h1        1 SGX      0.081200
     16 H3N1        6.1660    1.0970   -0.2550 hn        1 SGX      0.495467
     17 H3N2        4.7630    0.2860    0.1360 hn        1 SGX      0.495467
     18 H1C1        4.8670    5.1720    0.3880 h1        1 SGX      0.078700
     19 H1C2        4.8900    4.7510   -1.4170 h1        1 SGX      0.078700
     20 H1C3        3.3500    5.3870   -0.6120 h1        1 SGX      0.078700
     21 H1          1.9890   -0.6780   -0.8790 hx        1 SGX      0.120700
     22 H2         -0.2710   -0.5840   -0.9440 hn        1 SGX      0.463133
     23 HN3        -0.0660   -1.0300    0.6760 hn        1 SGX      0.463133
     24 H33         5.2020    1.5860    1.0020 hn        1 SGX      0.495467
@<TRIPOS>BOND
     1    1    2 1   
     2    1   13 1   
     3    1   22 1   
     4    1   23 1   
     5    2    3 1   
     6    2    5 1   
     7    2   21 1   
     8    3    4 1   
     9    3   12 1   
    10    5    6 1   
    11    5   14 1   
    12    5   15 1   
    13    6    8 1   
    14    7    8 2   
    15    8    9 1   
    16    8   10 1   
    17    9   16 1   
    18    9   17 1   
    19    9   24 1   
    20   10   11 1   
    21   11   18 1   
    22   11   19 1   
    23   11   20 1   
@<TRIPOS>SUBSTRUCTURE
     1 SGX         1 TEMP              0 ****  ****    0 ROOT
