@<TRIPOS>MOLECULE
SGX
   22    21     1     0     0
SMALL
bcc


@<TRIPOS>ATOM
      1 N          -1.7530   -0.7720    2.9550 n3        1 SGX     -0.910800
      2 CA         -1.1450   -1.1950    1.7410 c3        1 SGX     -0.021500
      3 C          -0.1060   -2.2510    2.0390 c         1 SGX      0.894600
      4 O           0.7680   -2.0430    2.9200 o         1 SGX     -0.832800
      5 CB         -0.4840   -0.0130    1.0700 c3        1 SGX      0.186400
      6 OG         -0.1380   -0.3560   -0.2510 os        1 SGX     -0.597200
      7 O1          0.7230    2.0110   -0.4120 o         1 SGX     -0.857300
      8 P2          0.3600    0.7880   -1.2210 p5        1 SGX      1.638400
      9 N3         -0.8430    1.1700   -2.2860 n3        1 SGX     -1.085900
     10 O2          1.6300    0.2880   -2.0180 os        1 SGX     -0.580200
     11 C1          2.4730    1.2500   -2.6110 c3        1 SGX      0.177700
     12 OXT        -0.1170   -3.3400    1.4070 o         1 SGX     -0.832800
     13 H          -1.8290   -1.4860    3.5240 hn        1 SGX      0.337800
     14 HA1         0.3240    0.2340    1.5660 h1        1 SGX      0.057200
     15 HB2        -1.1040    0.7450    1.0590 h1        1 SGX      0.057200
     16 H3N1       -1.2570    1.9830   -2.2360 hn        1 SGX      0.443300
     17 H3N2       -1.0960    0.5670   -2.9260 hn        1 SGX      0.443300
     18 H1C1        3.0520    1.6460   -1.9240 h1        1 SGX      0.028033
     19 H1C2        1.9270    1.9540   -3.0240 h1        1 SGX      0.028033
     20 H1C3        3.0280    0.8210   -3.2980 h1        1 SGX      0.028033
     21 H1         -1.8270   -1.5670    1.1470 h1        1 SGX      0.060700
     22 H2         -2.5860   -0.4330    2.7780 hn        1 SGX      0.337800
@<TRIPOS>BOND
     1    1    2 1   
     2    1   13 1   
     3    1   22 1   
     4    2    3 1   
     5    2    5 1   
     6    2   21 1   
     7    3    4 1   
     8    3   12 1   
     9    5    6 1   
    10    5   14 1   
    11    5   15 1   
    12    6    8 1   
    13    7    8 2   
    14    8    9 1   
    15    8   10 1   
    16    9   16 1   
    17    9   17 1   
    18   10   11 1   
    19   11   18 1   
    20   11   19 1   
    21   11   20 1   
@<TRIPOS>SUBSTRUCTURE
     1 SGX         1 TEMP              0 ****  ****    0 ROOT
