@<TRIPOS>MOLECULE
SGX
   24    23     1     0     0
SMALL
bcc


@<TRIPOS>ATOM
      1 N           0.0320   -0.2010   -0.1560 nz        1 SGX     -0.820600
      2 CA          1.5030    0.0180   -0.1210 c3        1 SGX     -0.109500
      3 C           2.0790   -0.4390    1.3060 c         1 SGX      0.958600
      4 O           1.3130   -1.1230    2.0060 o         1 SGX     -0.766800
      5 CB          1.9230    1.4660   -0.4120 c3        1 SGX      0.181400
      6 OG          3.0230    1.4130   -1.3050 os        1 SGX     -0.546200
      7 O1          5.2990    2.4170   -2.0910 o         1 SGX     -0.708300
      8 P2          4.3870    2.1780   -0.9920 p5        1 SGX      1.513400
      9 N3          5.1760    1.1750    0.1680 nz        1 SGX     -0.878700
     10 O2          3.9160    3.4260   -0.1290 os        1 SGX     -0.596200
     11 C1          4.3880    4.7240   -0.4730 c3        1 SGX      0.142700
     12 OXT         3.2510   -0.0480    1.5360 o         1 SGX     -0.766800
     13 H          -0.1730   -0.9310    0.5630 hn        1 SGX      0.463133
     14 HA1         1.1110    2.0530   -0.9280 h1        1 SGX      0.081200
     15 HB2         2.2280    1.9830    0.5390 h1        1 SGX      0.081200
     16 H3N1        5.1400    1.5510    1.1240 hn        1 SGX      0.495467
     17 H3N2        4.7130    0.2430    0.2620 hn        1 SGX      0.495467
     18 H1C1        4.9380    5.1290    0.4160 h1        1 SGX      0.078700
     19 H1C2        3.4850    5.3620   -0.6690 h1        1 SGX      0.078700
     20 H1C3        5.0490    4.6670   -1.3750 h1        1 SGX      0.078700
     21 H1          1.9720   -0.6690   -0.8830 hx        1 SGX      0.120700
     22 H2         -0.4710    0.6500    0.1000 hn        1 SGX      0.463133
     23 HN3        -0.2770   -0.5170   -1.0750 hn        1 SGX      0.463133
     24 H33         6.1570    1.0080   -0.0680 hn        1 SGX      0.495467
@<TRIPOS>BOND
     1    1    2 1   
     2    1   13 1   
     3    1   22 1   
     4    1   23 1   
     5    2    3 1   
     6    2    5 1   
     7    2   21 1   
     8    3    4 1   
     9    3   12 1   
    10    5    6 1   
    11    5   14 1   
    12    5   15 1   
    13    6    8 1   
    14    7    8 2   
    15    8    9 1   
    16    8   10 1   
    17    9   16 1   
    18    9   17 1   
    19    9   24 1   
    20   10   11 1   
    21   11   18 1   
    22   11   19 1   
    23   11   20 1   
@<TRIPOS>SUBSTRUCTURE
     1 SGX         1 TEMP              0 ****  ****    0 ROOT
