@<TRIPOS>MOLECULE
SGX
   22    21     1     0     0
SMALL
bcc


@<TRIPOS>ATOM
      1 N          -2.5570   -1.7020    2.9630 n3        1 SGX     -0.877800
      2 CA         -2.6770   -0.2610    2.7840 c3        1 SGX     -0.006500
      3 C          -2.2160    0.5690    4.0240 c         1 SGX      0.884600
      4 O          -1.5780   -0.0170    4.9380 o         1 SGX     -0.847800
      5 CB         -4.1060    0.1680    2.3850 c3        1 SGX      0.191400
      6 OG         -4.1420    0.7460    1.1010 os        1 SGX     -0.577200
      7 O1         -4.6450    2.7140   -0.4290 o         1 SGX     -0.836300
      8 P2         -4.2180    2.3510    0.9270 p5        1 SGX      1.639400
      9 N3         -2.8690    2.9880    1.4010 n3        1 SGX     -1.127900
     10 O2         -5.4180    2.6890    1.9700 os        1 SGX     -0.582200
     11 C1         -5.1310    3.4730    3.0940 c3        1 SGX      0.141700
     12 OXT        -2.4940    1.8090    4.0460 o         1 SGX     -0.847800
     13 H          -3.2360   -2.0010    3.6410 hn        1 SGX      0.334300
     14 HA1        -4.5030    0.9060    3.1340 h1        1 SGX      0.043700
     15 HB2        -4.8010   -0.7170    2.3370 h1        1 SGX      0.043700
     16 H3N1       -2.3340    3.5910    0.8380 hn        1 SGX      0.455300
     17 H3N2       -2.4280    2.7600    2.2690 hn        1 SGX      0.455300
     18 H1C1       -4.8080    4.4940    2.7650 h1        1 SGX      0.040367
     19 H1C2       -4.3320    2.9890    3.7180 h1        1 SGX      0.040367
     20 H1C3       -6.0810    3.5540    3.6820 h1        1 SGX      0.040367
     21 H1         -1.9710    0.0050    1.9440 h1        1 SGX      0.059700
     22 H2         -1.6530   -1.8780    3.3690 hn        1 SGX      0.334300
@<TRIPOS>BOND
     1    1    2 1   
     2    1   13 1   
     3    1   22 1   
     4    2    3 1   
     5    2    5 1   
     6    2   21 1   
     7    3    4 1   
     8    3   12 1   
     9    5    6 1   
    10    5   14 1   
    11    5   15 1   
    12    6    8 1   
    13    7    8 2   
    14    8    9 1   
    15    8   10 1   
    16    9   16 1   
    17    9   17 1   
    18   10   11 1   
    19   11   18 1   
    20   11   19 1   
    21   11   20 1   
@<TRIPOS>SUBSTRUCTURE
     1 SGX         1 TEMP              0 ****  ****    0 ROOT
