@<TRIPOS>MOLECULE
SH1
   67    67     1     0     0
SMALL
bcc


@<TRIPOS>ATOM
      1 C1         -0.4380   -0.2590    2.7600 c3        1 SH1     -0.323600
      2 C2         -1.1910   -1.4570    3.3090 c3        1 SH1     -0.010100
      3 C3         -1.5840   -1.2510    4.7300 ca        1 SH1     -0.084300
      4 C4         -2.6780   -0.4360    5.0450 ca        1 SH1     -0.123500
      5 C5         -0.8720   -1.8760    5.7590 ca        1 SH1     -0.123500
      6 C6         -3.0520   -0.2480    6.3740 ca        1 SH1     -0.127000
      7 C7         -1.2500   -1.6870    7.0880 ca        1 SH1     -0.127000
      8 C8         -2.3380   -0.8720    7.3980 ca        1 SH1     -0.126000
      9 S1          0.0050   -0.5110    1.1240 s6        1 SH1      1.467900
     10 O1         -1.1710   -0.6090    0.3520 o         1 SH1     -0.662800
     11 O2          0.9120   -1.5950    1.0670 o         1 SH1     -0.662800
     12 N1          0.7860    0.8470    0.7390 n3        1 SH1     -0.917100
     13 C9          2.2060    1.0290    0.8380 c3        1 SH1      0.137500
     14 C10         2.6020    2.4740    1.2320 c3        1 SH1      0.140400
     15 O3          1.9910    3.4340    0.4060 oh        1 SH1     -0.603800
     16 C11         2.9220    0.6860   -0.4960 c         1 SH1      0.636100
     17 O4          3.3850    1.6000   -1.2130 o         1 SH1     -0.637100
     18 N2          3.0310   -0.6350   -0.8360 n         1 SH1     -0.550900
     19 C12         3.7550   -1.0670   -2.0090 c3        1 SH1      0.034700
     20 C13         4.3820   -2.4470   -1.8230 c3        1 SH1     -0.098100
     21 C14         2.8820   -1.0920   -3.2920 c         1 SH1      0.633100
     22 O5          2.8270   -2.1190   -3.9960 o         1 SH1     -0.609100
     23 N3          2.1870    0.0560   -3.6050 n         1 SH1     -0.546900
     24 C15         1.5240    0.2150   -4.8810 c3        1 SH1      0.096700
     25 C16         0.1090    0.8000   -4.7500 c3        1 SH1     -0.079400
     26 C17        -0.8710   -0.1950   -4.1690 c3        1 SH1     -0.094400
     27 C18        -2.3010    0.3330   -4.3270 c3        1 SH1      0.132800
     28 N4         -3.3490   -0.5840   -4.0040 n2        1 SH1     -0.727900
     29 C19        -3.6890   -0.8590   -2.7590 c2        1 SH1      0.741100
     30 N5         -4.6670   -1.8880   -2.5360 nh        1 SH1     -0.893300
     31 N6         -3.2130   -0.1940   -1.5880 nh        1 SH1     -0.893300
     32 C20         2.3340    1.1030   -5.8560 c3        1 SH1      0.103400
     33 O6          2.4250    2.4010   -5.2920 oh        1 SH1     -0.603800
     34 H1C1        0.4540   -0.0780    3.4160 h1        1 SH1      0.117700
     35 H1C2       -1.0890    0.6470    2.8890 h1        1 SH1      0.117700
     36 H2C1       -2.1140   -1.6280    2.6880 hc        1 SH1      0.069200
     37 H2C2       -0.5440   -2.3720    3.2180 hc        1 SH1      0.069200
     38 H4         -3.2440    0.0530    4.2390 ha        1 SH1      0.133500
     39 H5         -0.0160   -2.5240    5.5200 ha        1 SH1      0.133500
     40 H6         -3.9140    0.3930    6.6150 ha        1 SH1      0.134000
     41 H7         -0.6880   -2.1830    7.8930 ha        1 SH1      0.134000
     42 H8         -2.6360   -0.7240    8.4460 ha        1 SH1      0.134000
     43 H1          0.3230    1.6510    0.3720 hn        1 SH1      0.474800
     44 H9          2.6080    0.3360    1.6390 h1        1 SH1      0.076700
     45 H101        2.2330    2.7020    2.2680 h1        1 SH1      0.061700
     46 H102        3.7200    2.5540    1.1920 h1        1 SH1      0.061700
     47 H3          2.4110    3.3800   -0.4660 ho        1 SH1      0.435000
     48 H2          2.6070   -1.3420   -0.2720 hn        1 SH1      0.353500
     49 H12         4.5800   -0.3130   -2.2070 h1        1 SH1      0.086700
     50 H131        3.5970   -3.2250   -1.6610 hc        1 SH1      0.057367
     51 H132        4.9420   -2.7110   -2.7530 hc        1 SH1      0.057367
     52 H133        5.0850   -2.4460   -0.9580 hc        1 SH1      0.057367
     53 HA          2.4020    0.9010   -3.1210 hn        1 SH1      0.332500
     54 H15         1.4470   -0.8080   -5.3650 h1        1 SH1      0.091700
     55 H161        0.1360    1.7340   -4.1320 hc        1 SH1      0.051700
     56 H162       -0.2270    1.0960   -5.7800 hc        1 SH1      0.051700
     57 H171       -0.7710   -1.1790   -4.6980 hc        1 SH1      0.048700
     58 H172       -0.6390   -0.3740   -3.0880 hc        1 SH1      0.048700
     59 H181       -2.3810    1.3080   -3.7630 h1        1 SH1      0.037700
     60 H182       -2.4660    0.5750   -5.4190 h1        1 SH1      0.037700
     61 H5N1       -5.3800   -1.6010   -1.8980 hn        1 SH1      0.393050
     62 H5N2       -5.0620   -2.2330   -3.3880 hn        1 SH1      0.393050
     63 H6N1       -3.3030   -0.7190   -0.7420 hn        1 SH1      0.393050
     64 H6N2       -2.2760    0.1410   -1.6840 hn        1 SH1      0.393050
     65 H201        3.3600    0.6770   -6.0150 h1        1 SH1      0.030700
     66 H202        1.8000    1.1490   -6.8420 h1        1 SH1      0.030700
     67 HB          2.9790    2.9220   -5.8850 ho        1 SH1      0.402000
@<TRIPOS>BOND
     1    1    2 1   
     2    1    9 1   
     3    1   34 1   
     4    1   35 1   
     5    2    3 1   
     6    2   36 1   
     7    2   37 1   
     8    3    4 ar  
     9    3    5 ar  
    10    4    6 ar  
    11    4   38 1   
    12    5    7 ar  
    13    5   39 1   
    14    6    8 ar  
    15    6   40 1   
    16    7    8 ar  
    17    7   41 1   
    18    8   42 1   
    19    9   10 2   
    20    9   11 2   
    21    9   12 1   
    22   12   13 1   
    23   12   43 1   
    24   13   14 1   
    25   13   16 1   
    26   13   44 1   
    27   14   15 1   
    28   14   45 1   
    29   14   46 1   
    30   15   47 1   
    31   16   17 2   
    32   16   18 1   
    33   18   19 1   
    34   18   48 1   
    35   19   20 1   
    36   19   21 1   
    37   19   49 1   
    38   20   50 1   
    39   20   51 1   
    40   20   52 1   
    41   21   22 2   
    42   21   23 1   
    43   23   24 1   
    44   23   53 1   
    45   24   25 1   
    46   24   32 1   
    47   24   54 1   
    48   25   26 1   
    49   25   55 1   
    50   25   56 1   
    51   26   27 1   
    52   26   57 1   
    53   26   58 1   
    54   27   28 1   
    55   27   59 1   
    56   27   60 1   
    57   28   29 2   
    58   29   30 1   
    59   29   31 1   
    60   30   61 1   
    61   30   62 1   
    62   31   63 1   
    63   31   64 1   
    64   32   33 1   
    65   32   65 1   
    66   32   66 1   
    67   33   67 1   
@<TRIPOS>SUBSTRUCTURE
     1 SH1         1 TEMP              0 ****  ****    0 ROOT
