@<TRIPOS>MOLECULE
SH1
   72    72     1     0     0
SMALL
bcc


@<TRIPOS>ATOM
      1 C1          0.0000    0.0000    0.0000 c3        1 SH1      0.052400
      2 C2          1.5290    0.0000    0.0000 c3        1 SH1      0.079900
      3 C3          2.0310    0.0000    1.4220 ca        1 SH1     -0.157300
      4 C4          2.2620   -1.1970    2.0720 ca        1 SH1     -0.092500
      5 C5          2.2650    1.1970    2.0720 ca        1 SH1     -0.092500
      6 C6          2.7230   -1.1980    3.3750 ca        1 SH1     -0.072000
      7 C7          2.7220    1.1960    3.3770 ca        1 SH1     -0.072000
      8 C8          2.9520   -0.0010    4.0270 ca        1 SH1     -0.029000
      9 S1         -0.6040    0.0010   -1.7110 s6        1 SH1      0.812900
     10 O1         -0.3560   -1.2420   -2.3540 o         1 SH1     -0.470300
     11 O2         -0.3590    1.2450   -2.3520 o         1 SH1     -0.470300
     12 N1         -2.2500   -0.0010   -1.5300 ny        1 SH1     -0.229900
     13 C9         -2.9100    1.0970   -0.8190 c3        1 SH1     -0.007500
     14 C10        -3.6610    0.5400    0.3920 c3        1 SH1      0.200400
     15 O3         -4.6420   -0.4010   -0.0470 oh        1 SH1     -0.619800
     16 C11        -3.8840    1.7800   -1.7440 c         1 SH1      0.362100
     17 O4         -4.0140    1.3900   -2.8830 o         1 SH1     -0.384100
     18 N2         -4.6090    2.8260   -1.3020 ny        1 SH1      0.148200
     19 C12        -5.5560    3.4910   -2.2010 c3        1 SH1     -0.124500
     20 C13        -6.9260    2.8200   -2.0850 c3        1 SH1     -0.007100
     21 C14        -5.6760    4.9430   -1.8190 c         1 SH1      0.355100
     22 O5         -5.0320    5.3800   -0.8880 o         1 SH1     -0.376100
     23 N3         -6.4960    5.7570   -2.5130 ny        1 SH1      0.120200
     24 C15        -6.6120    7.1700   -2.1410 c3        1 SH1     -0.045500
     25 C16        -6.9340    7.9990   -3.3850 c3        1 SH1     -0.032400
     26 C17        -5.8130    7.8320   -4.4120 c3        1 SH1     -0.024400
     27 C18        -6.1340    8.6610   -5.6570 c3        1 SH1      0.119800
     28 N4         -5.0610    8.5020   -6.6410 n2        1 SH1     -0.195900
     29 C19        -5.3130    7.9570   -7.7990 c2        1 SH1     -0.065900
     30 N5         -4.2850    7.6810   -8.6670 nz        1 SH1      0.181900
     31 N6         -6.6080    7.6610   -8.1510 nz        1 SH1      0.181900
     32 C20        -7.7330    7.3360   -1.1130 c3        1 SH1      0.217400
     33 O6         -8.9680    6.8900   -1.6780 oh        1 SH1     -0.640800
     34 H1C1       -0.3610    0.8840    0.5110 h1        1 SH1      0.074200
     35 H1C2       -0.3610   -0.8850    0.5100 h1        1 SH1      0.074200
     36 H2C1        1.8910   -0.8850   -0.5110 hc        1 SH1      0.048700
     37 H2C2        1.8910    0.8850   -0.5110 hc        1 SH1      0.048700
     38 H4          2.1060   -2.1350    1.5520 ha        1 SH1      0.103000
     39 H5          2.1360    2.1340    1.5450 ha        1 SH1      0.103000
     40 H6          2.9320   -2.1360    3.8750 ha        1 SH1      0.130000
     41 H7          2.9120    2.1340    3.8850 ha        1 SH1      0.130000
     42 H8          3.3520   -0.0000    5.0340 ha        1 SH1      0.135000
     43 H1         -2.6480   -0.0410   -2.4470 hn        1 SH1      0.365800
     44 H9         -2.1660    1.8100   -0.4860 hx        1 SH1      0.119700
     45 H101       -4.1490    1.3520    0.9180 h1        1 SH1      0.044700
     46 H102       -2.9610    0.0490    1.0560 h1        1 SH1      0.044700
     47 H3         -4.9980   -0.8550    0.6990 ho        1 SH1      0.492000
     48 H2         -5.1340    2.5040   -0.5130 hn        1 SH1      0.296300
     49 H12        -5.2010    3.4130   -3.2210 hx        1 SH1      0.119700
     50 H131       -7.4480    3.2100   -1.2200 hc        1 SH1      0.069367
     51 H132       -7.5040    3.0230   -2.9780 hc        1 SH1      0.069367
     52 H133       -6.7950    1.7500   -1.9760 hc        1 SH1      0.069367
     53 HA         -6.1940    5.7310   -3.4670 hn        1 SH1      0.284800
     54 H15        -5.6770    7.5080   -1.7130 hx        1 SH1      0.116700
     55 H161       -7.0190    9.0440   -3.1110 hc        1 SH1      0.086200
     56 H162       -7.8690    7.6610   -3.8140 hc        1 SH1      0.086200
     57 H171       -5.7270    6.7880   -4.6860 hc        1 SH1      0.022200
     58 H172       -4.8770    8.1720   -3.9840 hc        1 SH1      0.022200
     59 H181       -6.2210    9.7060   -5.3830 h1        1 SH1      0.070700
     60 H182       -7.0700    8.3220   -6.0850 h1        1 SH1      0.070700
     61 H5N1       -4.2190    6.6910   -8.8020 hn        1 SH1      0.255467
     62 H5N2       -3.4250    8.0230   -8.2860 hn        1 SH1      0.255467
     63 H6N1       -6.9670    6.9530   -7.5410 hn        1 SH1      0.255467
     64 H6N2       -7.1720    8.4850   -8.0730 hn        1 SH1      0.255467
     65 H201       -7.5060    6.7480   -0.2320 h1        1 SH1      0.054200
     66 H202       -7.8180    8.3800   -0.8370 h1        1 SH1      0.054200
     67 HB         -9.6840    7.1770   -1.1350 ho        1 SH1      0.491000
     68 H121       -2.4950   -0.8490   -1.0570 hn        1 SH1      0.365800
     69 H22        -3.9600    3.5240   -0.9980 hn        1 SH1      0.296300
     70 H32        -7.4170    5.3700   -2.4440 hn        1 SH1      0.284800
     71 H53        -4.4620    8.1240   -9.5460 hn        1 SH1      0.255467
     72 H63        -6.6300    7.3280   -9.0940 hn        1 SH1      0.255467
@<TRIPOS>BOND
     1    1    2 1   
     2    1    9 1   
     3    1   34 1   
     4    1   35 1   
     5    2    3 1   
     6    2   36 1   
     7    2   37 1   
     8    3    4 ar  
     9    3    5 ar  
    10    4    6 ar  
    11    4   38 1   
    12    5    7 ar  
    13    5   39 1   
    14    6    8 ar  
    15    6   40 1   
    16    7    8 ar  
    17    7   41 1   
    18    8   42 1   
    19    9   10 2   
    20    9   11 2   
    21    9   12 1   
    22   12   13 1   
    23   12   43 1   
    24   12   68 1   
    25   13   14 1   
    26   13   16 1   
    27   13   44 1   
    28   14   15 1   
    29   14   45 1   
    30   14   46 1   
    31   15   47 1   
    32   16   17 2   
    33   16   18 1   
    34   18   19 1   
    35   18   48 1   
    36   18   69 1   
    37   19   20 1   
    38   19   21 1   
    39   19   49 1   
    40   20   50 1   
    41   20   51 1   
    42   20   52 1   
    43   21   22 2   
    44   21   23 1   
    45   23   24 1   
    46   23   53 1   
    47   23   70 1   
    48   24   25 1   
    49   24   32 1   
    50   24   54 1   
    51   25   26 1   
    52   25   55 1   
    53   25   56 1   
    54   26   27 1   
    55   26   57 1   
    56   26   58 1   
    57   27   28 1   
    58   27   59 1   
    59   27   60 1   
    60   28   29 2   
    61   29   30 1   
    62   29   31 1   
    63   30   61 1   
    64   30   62 1   
    65   30   71 1   
    66   31   63 1   
    67   31   64 1   
    68   31   72 1   
    69   32   33 1   
    70   32   65 1   
    71   32   66 1   
    72   33   67 1   
@<TRIPOS>SUBSTRUCTURE
     1 SH1         1 TEMP              0 ****  ****    0 ROOT
