@<TRIPOS>MOLECULE
SH1
   67    67     1     0     0
SMALL
bcc


@<TRIPOS>ATOM
      1 C1         -0.4410    1.4550   -0.7680 c3        1 SH1     -0.323600
      2 C2          0.9910    1.9530   -0.8050 c3        1 SH1     -0.009100
      3 C3          1.9460    0.9120   -0.3370 ca        1 SH1     -0.082300
      4 C4          2.3100   -0.1400   -1.1870 ca        1 SH1     -0.123500
      5 C5          2.4950    0.9790    0.9480 ca        1 SH1     -0.123500
      6 C6          3.2090   -1.1130   -0.7540 ca        1 SH1     -0.127500
      7 C7          3.3960    0.0050    1.3780 ca        1 SH1     -0.127500
      8 C8          3.7530   -1.0420    0.5290 ca        1 SH1     -0.127000
      9 S1         -1.5300    2.6750   -1.2960 s6        1 SH1      1.468900
     10 O1         -1.2720    2.9110   -2.6650 o         1 SH1     -0.659300
     11 O2         -1.4270    3.7760   -0.4210 o         1 SH1     -0.659300
     12 N1         -2.9680    1.9620   -1.1280 n3        1 SH1     -0.907100
     13 C9         -3.8550    2.1430   -0.0150 c3        1 SH1      0.135500
     14 C10        -4.0290    0.8670    0.8490 c3        1 SH1      0.124400
     15 O3         -4.2890   -0.2830    0.0810 oh        1 SH1     -0.599800
     16 C11        -5.2730    2.5280   -0.5160 c         1 SH1      0.648100
     17 O4         -5.9250    1.7080   -1.1990 o         1 SH1     -0.630100
     18 N2         -5.7830    3.7400   -0.1310 n         1 SH1     -0.541900
     19 C12        -7.0800    4.2040   -0.5700 c3        1 SH1      0.032700
     20 C13        -8.0910    4.3380    0.5700 c3        1 SH1     -0.107100
     21 C14        -6.9520    5.6090   -1.2180 c         1 SH1      0.640100
     22 O5         -6.2600    6.4910   -0.6710 o         1 SH1     -0.613100
     23 N3         -7.6730    5.8360   -2.3640 n         1 SH1     -0.549900
     24 C15        -7.5710    7.0630   -3.1220 c3        1 SH1      0.101700
     25 C16        -6.7530    6.9170   -4.4150 c3        1 SH1     -0.094400
     26 C17        -5.2970    6.6280   -4.1320 c3        1 SH1     -0.100400
     27 C18        -4.5160    6.4940   -5.4430 c3        1 SH1      0.143800
     28 N4         -3.1060    6.2920   -5.3110 n2        1 SH1     -0.727900
     29 C19        -2.5990    5.1290   -4.9420 c2        1 SH1      0.759100
     30 N5         -1.1800    4.9690   -4.9690 nh        1 SH1     -0.912300
     31 N6         -3.3560    3.9920   -4.5150 nh        1 SH1     -0.912300
     32 C20        -8.9680    7.6170   -3.4820 c3        1 SH1      0.116400
     33 O6         -9.6310    6.6580   -4.2900 oh        1 SH1     -0.607800
     34 H1C1       -0.6660    1.1120    0.2770 h1        1 SH1      0.116700
     35 H1C2       -0.5040    0.5300   -1.4010 h1        1 SH1      0.116700
     36 H2C1        1.0780    2.8710   -0.1600 hc        1 SH1      0.067200
     37 H2C2        1.2500    2.2490   -1.8590 hc        1 SH1      0.067200
     38 H4          1.8840   -0.1950   -2.2000 ha        1 SH1      0.133000
     39 H5          2.2190    1.8060    1.6200 ha        1 SH1      0.133000
     40 H6          3.4920   -1.9360   -1.4270 ha        1 SH1      0.133000
     41 H7          3.8250    0.0650    2.3890 ha        1 SH1      0.133000
     42 H8          4.4640   -1.8090    0.8690 ha        1 SH1      0.133000
     43 H1         -3.3170    1.2970   -1.7830 hn        1 SH1      0.468800
     44 H9         -3.4330    2.9550    0.6520 h1        1 SH1      0.096700
     45 H101       -4.8530    1.0500    1.5890 h1        1 SH1      0.056700
     46 H102       -3.0730    0.6380    1.3930 h1        1 SH1      0.056700
     47 H3         -5.1130   -0.1320   -0.4090 ho        1 SH1      0.430000
     48 H2         -5.1960    4.4190    0.3010 hn        1 SH1      0.340500
     49 H12        -7.4800    3.4520   -1.3180 h1        1 SH1      0.095700
     50 H131       -7.7460    5.0890    1.3210 hc        1 SH1      0.053700
     51 H132       -8.2380    3.3560    1.0790 hc        1 SH1      0.053700
     52 H133       -9.0680    4.6740    0.1470 hc        1 SH1      0.053700
     53 HA         -8.1500    5.0860   -2.8080 hn        1 SH1      0.322500
     54 H15        -7.0660    7.8350   -2.4640 h1        1 SH1      0.092700
     55 H161       -7.1990    6.1090   -5.0530 hc        1 SH1      0.051200
     56 H162       -6.8410    7.8780   -4.9870 hc        1 SH1      0.051200
     57 H171       -5.2010    5.6890   -3.5300 hc        1 SH1      0.054200
     58 H172       -4.8610    7.4590   -3.5170 hc        1 SH1      0.054200
     59 H181       -4.6170    7.4640   -6.0130 h1        1 SH1      0.030200
     60 H182       -5.0130    5.6940   -6.0680 h1        1 SH1      0.030200
     61 H5N1       -0.6850    5.8350   -4.9970 hn        1 SH1      0.400050
     62 H5N2       -0.8310    4.3540   -4.2600 hn        1 SH1      0.400050
     63 H6N1       -4.1780    3.8450   -5.0610 hn        1 SH1      0.400050
     64 H6N2       -2.8240    3.1560   -4.3930 hn        1 SH1      0.400050
     65 H201       -8.8410    8.5780   -4.0480 h1        1 SH1      0.033200
     66 H202       -9.5670    7.8140   -2.5520 h1        1 SH1      0.033200
     67 HB        -10.4890    7.0340   -4.5160 ho        1 SH1      0.404000
@<TRIPOS>BOND
     1    1    2 1   
     2    1    9 1   
     3    1   34 1   
     4    1   35 1   
     5    2    3 1   
     6    2   36 1   
     7    2   37 1   
     8    3    4 ar  
     9    3    5 ar  
    10    4    6 ar  
    11    4   38 1   
    12    5    7 ar  
    13    5   39 1   
    14    6    8 ar  
    15    6   40 1   
    16    7    8 ar  
    17    7   41 1   
    18    8   42 1   
    19    9   10 2   
    20    9   11 2   
    21    9   12 1   
    22   12   13 1   
    23   12   43 1   
    24   13   14 1   
    25   13   16 1   
    26   13   44 1   
    27   14   15 1   
    28   14   45 1   
    29   14   46 1   
    30   15   47 1   
    31   16   17 2   
    32   16   18 1   
    33   18   19 1   
    34   18   48 1   
    35   19   20 1   
    36   19   21 1   
    37   19   49 1   
    38   20   50 1   
    39   20   51 1   
    40   20   52 1   
    41   21   22 2   
    42   21   23 1   
    43   23   24 1   
    44   23   53 1   
    45   24   25 1   
    46   24   32 1   
    47   24   54 1   
    48   25   26 1   
    49   25   55 1   
    50   25   56 1   
    51   26   27 1   
    52   26   57 1   
    53   26   58 1   
    54   27   28 1   
    55   27   59 1   
    56   27   60 1   
    57   28   29 2   
    58   29   30 1   
    59   29   31 1   
    60   30   61 1   
    61   30   62 1   
    62   31   63 1   
    63   31   64 1   
    64   32   33 1   
    65   32   65 1   
    66   32   66 1   
    67   33   67 1   
@<TRIPOS>SUBSTRUCTURE
     1 SH1         1 TEMP              0 ****  ****    0 ROOT
