@<TRIPOS>MOLECULE
SH1
   67    63     1     0     0
SMALL
bcc


@<TRIPOS>ATOM
      1 C1         -3.8290   -4.6730   -2.7050 c3        1 SH1     -0.856000
      2 C2         -3.9920   -6.1470   -3.1660 c3        1 SH1     -0.097000
      3 C3         -4.2450   -6.1860   -4.6580 c2        1 SH1     -0.075000
      4 C4         -3.3160   -5.6530   -5.5330 c2        1 SH1     -0.124000
      5 C5         -5.3950   -6.8070   -5.1540 c1        1 SH1     -0.123000
      6 C6         -3.5250   -5.7340   -6.9010 c1        1 SH1     -0.128000
      7 C7         -5.6040   -6.8880   -6.5190 c1        1 SH1     -0.127500
      8 C8         -4.6720   -6.3530   -7.3950 c1        1 SH1     -0.127500
      9 S1         -2.4590   -4.5510   -1.6030 s4        1 SH1      2.041800
     10 O1         -1.5450   -5.6310   -1.7920 o         1 SH1     -0.544400
     11 O2         -2.8660   -4.7630   -0.2400 o         1 SH1     -0.544400
     12 N1         -1.7060   -3.0890   -1.7830 n2        1 SH1     -0.900000
     13 C9         -1.0560   -2.4840   -0.6720 c3        1 SH1     -0.013000
     14 C10        -2.0120   -2.4530    0.5190 c3        1 SH1     -0.034000
     15 O3         -1.9510   -3.6970    1.2070 oh        1 SH1     -0.326000
     16 C11        -0.6500   -1.0800   -1.0290 c2        1 SH1      0.299000
     17 O4         -1.3790   -0.3930   -1.7290 o         1 SH1     -0.374000
     18 N2          0.5800   -0.5190   -0.4900 n         1 SH1     -0.355000
     19 C12         0.6100    0.8400   -0.0410 c3        1 SH1      0.008000
     20 C13        -0.5020    1.0680    0.9370 c3        1 SH1     -0.224000
     21 C14         1.9510    1.1240    0.6350 c2        1 SH1      0.285000
     22 O5          2.6790    0.1930    0.9690 o         1 SH1     -0.385000
     23 N3          2.3890    2.4870    0.8270 n         1 SH1     -0.356000
     24 C15         2.7110    2.9510    2.1310 c3        1 SH1     -0.020000
     25 C16         3.1900    4.3980    2.0510 c3        1 SH1     -0.167000
     26 C17         3.6460    4.8680    3.4490 c3        1 SH1     -0.149000
     27 C18         4.2960    6.2780    3.3370 c3        1 SH1     -0.066000
     28 N4          4.1130    6.9870    4.5740 n2        1 SH1     -0.300000
     29 C19         4.9780    7.9310    4.9350 c1        1 SH1      0.146000
     30 N5          6.0910    8.2430    4.0930 n2        1 SH1     -0.360000
     31 N6          4.7960    8.6270    6.1530 n3        1 SH1     -0.317000
     32 C20         1.4840    2.8690    3.0130 c3        1 SH1     -0.041000
     33 O6          1.1820    1.5130    3.2730 oh        1 SH1     -0.333000
     34 H1C1       -4.6460   -4.3810   -2.2450 h1        1 SH1      0.156500
     35 H1C2       -3.6730   -4.1040   -3.4830 h1        1 SH1      0.156500
     36 H2C1       -3.1660   -6.6490   -2.9600 hc        1 SH1      0.110000
     37 H2C2       -4.7470   -6.5540   -2.6970 hc        1 SH1      0.110000
     38 H4         -2.5110   -5.2190   -5.1870 ha        1 SH1      0.134000
     39 H5         -6.0540   -7.1850   -4.5340 ha        1 SH1      0.134000
     40 H6         -2.8690   -5.3570   -7.5200 ha        1 SH1      0.133000
     41 H7         -6.4120   -7.3240   -6.8670 ha        1 SH1      0.133000
     42 H8         -4.8200   -6.4110   -8.3630 ha        1 SH1      0.133000
     43 H1         -1.6470   -2.7050   -2.6100 hn        1 SH1      0.261000
     44 H9         -0.2660   -3.0000   -0.4400 h1        1 SH1      0.134000
     45 H101       -1.7530   -1.7330    1.1250 h1        1 SH1      0.102000
     46 H102       -2.9300   -2.2990    0.2000 h1        1 SH1      0.102000
     47 H3         -2.0790   -3.5620    2.0770 ho        1 SH1      0.229000
     48 H2          1.3370   -1.0360   -0.4380 hn        1 SH1      0.248000
     49 H12         0.4980    1.4370   -0.8050 h1        1 SH1      0.139000
     50 H131       -0.2860    1.8360    1.5020 hc        1 SH1      0.094000
     51 H132       -1.3310    1.2440    0.4530 hc        1 SH1      0.094000
     52 H133       -0.6130    0.2680    1.5000 hc        1 SH1      0.094000
     53 HA          2.3840    3.0720    0.1220 hn        1 SH1      0.223000
     54 H15         3.4250    2.3910    2.5100 h1        1 SH1      0.125000
     55 H161        3.9410    4.4590    1.4260 hc        1 SH1      0.086500
     56 H162        2.4540    4.9710    1.7360 hc        1 SH1      0.086500
     57 H171        4.3010    4.2350    3.8090 hc        1 SH1      0.096000
     58 H172        2.8690    4.9120    4.0490 hc        1 SH1      0.096000
     59 H181        3.8730    6.7750    2.6130 h1        1 SH1      0.064000
     60 H182        5.2560    6.1830    3.1520 h1        1 SH1      0.064000
     61 H5N1        6.6270    7.5680    3.7720 hn        1 SH1      0.188500
     62 H5N2        6.3090    9.1250    3.9230 hn        1 SH1      0.188500
     63 H6N1        4.5100    8.1780    6.8970 hn        1 SH1      0.187000
     64 H6N2        4.9940    9.5060    6.2040 hn        1 SH1      0.187000
     65 H201        1.6560    3.3330    3.8570 h1        1 SH1      0.089000
     66 H202        0.7290    3.2890    2.5600 h1        1 SH1      0.089000
     67 HB          0.6510    1.4600    3.9710 ho        1 SH1      0.221000
@<TRIPOS>BOND
     1    1    2 1   
     2    1    9 1   
     3    1   34 1   
     4    1   35 1   
     5    2    3 1   
     6    2   36 1   
     7    2   37 1   
     8    3    4 1   
     9    3    5 1   
    10    4    6 1   
    11    4   38 1   
    12    5   39 1   
    13    6   40 1   
    14    7    8 1   
    15    7   41 1   
    16    8   42 1   
    17    9   10 1   
    18    9   11 1   
    19   12   13 1   
    20   12   43 1   
    21   13   14 1   
    22   13   16 1   
    23   13   44 1   
    24   14   15 1   
    25   14   45 1   
    26   14   46 1   
    27   15   47 1   
    28   16   17 1   
    29   16   18 1   
    30   18   19 1   
    31   18   48 1   
    32   19   20 1   
    33   19   21 1   
    34   19   49 1   
    35   20   50 1   
    36   20   51 1   
    37   20   52 1   
    38   21   22 1   
    39   21   23 1   
    40   23   24 1   
    41   23   53 1   
    42   24   25 1   
    43   24   32 1   
    44   24   54 1   
    45   25   26 1   
    46   25   55 1   
    47   25   56 1   
    48   26   27 1   
    49   26   57 1   
    50   26   58 1   
    51   27   28 1   
    52   27   59 1   
    53   27   60 1   
    54   28   29 1   
    55   29   31 1   
    56   30   61 1   
    57   30   62 1   
    58   31   63 1   
    59   31   64 1   
    60   32   33 1   
    61   32   65 1   
    62   32   66 1   
    63   33   67 1   
@<TRIPOS>SUBSTRUCTURE
     1 SH1         1 TEMP              0 ****  ****    0 ROOT
