@<TRIPOS>MOLECULE
SH2
   54    55     1     0     0
SMALL
bcc


@<TRIPOS>ATOM
      1 CAZ        -0.2840    0.8640   -0.3530 ca        1 SH2     -0.122000
      2 CAY         0.8440    1.2530   -1.0380 ca        1 SH2      0.075100
      3 OAX         1.8780    2.0670   -0.6100 os        1 SH2     -0.320900
      4 CAW         2.8410    2.1340   -1.6950 c3        1 SH2      0.320200
      5 OAV         2.3000    1.3620   -2.8010 os        1 SH2     -0.309900
      6 CAU         1.1020    0.8260   -2.3740 ca        1 SH2      0.103100
      7 CAT         0.2310   -0.0030   -3.0530 ca        1 SH2     -0.112000
      8 CAS        -0.9260   -0.3980   -2.3560 ca        1 SH2     -0.101000
      9 CAR        -1.1820    0.0190   -1.0500 ca        1 SH2     -0.154300
     10 CAQ        -2.3970   -0.4620   -0.3390 c3        1 SH2     -0.037100
     11 CAP        -3.4010    0.6920   -0.2760 c3        1 SH2      0.104800
     12 NAO        -4.6580    0.3140    0.4610 n4        1 SH2     -0.674800
     13 CAM        -5.5910    1.4820    0.5990 c         1 SH2      0.535100
     14 OAN        -5.4940    2.1420    1.6230 o         1 SH2     -0.372100
     15 CAL        -6.5580    1.7240   -0.5310 c3        1 SH2     -0.178400
     16 CAK        -7.3850    2.9710   -0.2030 c3        1 SH2      0.097800
     17 NAJ        -8.4200    3.2840   -1.2150 n4        1 SH2     -0.684800
     18 CAH        -9.2670    4.5170   -0.8600 c         1 SH2      0.563100
     19 OAI        -8.9560    5.1130    0.1510 o         1 SH2     -0.378100
     20 CAF       -10.3920    4.8350   -1.8430 c3        1 SH2      0.098100
     21 OAG       -10.7560    3.6070   -2.4520 oh        1 SH2     -0.640800
     22 CAB        -9.9220    5.8990   -2.8610 c3        1 SH2     -0.084000
     23 CAA        -9.5790    7.1870   -2.1320 c3        1 SH2     -0.111600
     24 CAC        -8.7300    5.4020   -3.6570 c3        1 SH2     -0.111600
     25 CAD       -11.1000    6.1700   -3.8240 c3        1 SH2      0.142400
     26 OAE       -10.6580    7.1540   -4.7370 oh        1 SH2     -0.588800
     27 H1         -0.4620    1.1690    0.6850 ha        1 SH2      0.152000
     28 H2          3.7950    1.6570   -1.3590 h2        1 SH2      0.098200
     29 H3          0.4320   -0.3470   -4.0770 ha        1 SH2      0.180000
     30 H4         -1.6300   -1.0740   -2.8660 ha        1 SH2      0.138000
     31 H5         -2.8430   -1.3410   -0.8770 hc        1 SH2      0.078200
     32 H6         -2.1190   -0.7940    0.6990 hc        1 SH2      0.078200
     33 H7         -3.6930    1.0070   -1.3170 hx        1 SH2      0.111700
     34 H8         -2.9360    1.5670    0.2650 hx        1 SH2      0.111700
     35 H9         -5.1200   -0.4600   -0.0280 hn        1 SH2      0.472800
     36 H10        -5.9830    1.8650   -1.4890 hc        1 SH2      0.117200
     37 H11        -7.2210    0.8220   -0.6500 hc        1 SH2      0.117200
     38 H12        -6.7040    3.8700   -0.1040 hx        1 SH2      0.139200
     39 H13        -7.9010    2.8370    0.7970 hx        1 SH2      0.139200
     40 H14        -7.9970    3.4670   -2.1360 hn        1 SH2      0.474300
     41 H15       -11.2470    5.2420   -1.2220 h1        1 SH2      0.127700
     42 H16       -11.5930    3.7460   -2.9220 ho        1 SH2      0.478000
     43 H17        -8.7110    7.0420   -1.4450 hc        1 SH2      0.061533
     44 H18        -9.3150    7.9720   -2.8860 hc        1 SH2      0.061533
     45 H19       -10.4530    7.5530   -1.5400 hc        1 SH2      0.061533
     46 H20        -8.5670    6.0820   -4.5350 hc        1 SH2      0.061533
     47 H21        -8.9160    4.3720   -4.0460 hc        1 SH2      0.061533
     48 H22        -7.8010    5.4170   -3.0370 hc        1 SH2      0.061533
     49 H23       -11.9910    6.5280   -3.2450 h1        1 SH2      0.037700
     50 H24       -11.3610    5.2320   -4.3870 h1        1 SH2      0.037700
     51 H25       -11.4390    7.4840   -5.2030 ho        1 SH2      0.438000
     52 H26         2.9370    3.2000   -2.0200 h2        1 SH2      0.098200
     53 HAO2       -4.3900   -0.0130    1.4050 hn        1 SH2      0.472800
     54 HAJ2       -9.0760    2.4970   -1.3270 hn        1 SH2      0.474300
@<TRIPOS>BOND
     1    1    2 ar  
     2    1    9 ar  
     3    1   27 1   
     4    2    3 1   
     5    2    6 ar  
     6    3    4 1   
     7    4    5 1   
     8    4   28 1   
     9    4   52 1   
    10    5    6 1   
    11    6    7 ar  
    12    7    8 ar  
    13    7   29 1   
    14    8    9 ar  
    15    8   30 1   
    16    9   10 1   
    17   10   11 1   
    18   10   31 1   
    19   10   32 1   
    20   11   12 1   
    21   11   33 1   
    22   11   34 1   
    23   12   13 1   
    24   12   35 1   
    25   12   53 1   
    26   13   14 2   
    27   13   15 1   
    28   15   16 1   
    29   15   36 1   
    30   15   37 1   
    31   16   17 1   
    32   16   38 1   
    33   16   39 1   
    34   17   18 1   
    35   17   40 1   
    36   17   54 1   
    37   18   19 2   
    38   18   20 1   
    39   20   21 1   
    40   20   22 1   
    41   20   41 1   
    42   21   42 1   
    43   22   23 1   
    44   22   24 1   
    45   22   25 1   
    46   23   43 1   
    47   23   44 1   
    48   23   45 1   
    49   24   46 1   
    50   24   47 1   
    51   24   48 1   
    52   25   26 1   
    53   25   49 1   
    54   25   50 1   
    55   26   51 1   
@<TRIPOS>SUBSTRUCTURE
     1 SH2         1 TEMP              0 ****  ****    0 ROOT
