@<TRIPOS>MOLECULE
SH2
   54    55     1     0     0
SMALL
bcc


@<TRIPOS>ATOM
      1 CAZ        -0.3000    0.7910   -0.3730 ca        1 SH2     -0.122000
      2 CAY         0.8350    1.1830   -1.0450 ca        1 SH2      0.075100
      3 OAX         1.8770    1.9750   -0.5930 os        1 SH2     -0.320900
      4 CAW         2.8460    2.0560   -1.6730 c3        1 SH2      0.320200
      5 OAV         2.3000    1.3170   -2.7990 os        1 SH2     -0.309900
      6 CAU         1.0940    0.7840   -2.3900 ca        1 SH2      0.103100
      7 CAT         0.2160   -0.0170   -3.0910 ca        1 SH2     -0.112000
      8 CAS        -0.9490   -0.4150   -2.4090 ca        1 SH2     -0.101000
      9 CAR        -1.2040   -0.0260   -1.0940 ca        1 SH2     -0.154300
     10 CAQ        -2.4280   -0.5100   -0.3990 c3        1 SH2     -0.037100
     11 CAP        -3.4200    0.6530   -0.3140 c3        1 SH2      0.104800
     12 NAO        -4.6830    0.2740    0.4110 n4        1 SH2     -0.674800
     13 CAM        -5.6030    1.4490    0.5720 c         1 SH2      0.535100
     14 OAN        -5.4970    2.0910    1.6050 o         1 SH2     -0.372100
     15 CAL        -6.5710    1.7200   -0.5520 c3        1 SH2     -0.178400
     16 CAK        -7.3770    2.9750   -0.2060 c3        1 SH2      0.097800
     17 NAJ        -8.4170    3.3120   -1.2050 n4        1 SH2     -0.684800
     18 CAH        -9.2390    4.5570   -0.8350 c         1 SH2      0.563100
     19 OAI        -8.9020    5.1460    0.1720 o         1 SH2     -0.378100
     20 CAF       -10.3730    4.8950   -1.8010 c3        1 SH2      0.098100
     21 OAG       -10.7660    3.6740   -2.4060 oh        1 SH2     -0.640800
     22 CAB        -9.9020    5.9520   -2.8250 c3        1 SH2     -0.084000
     23 CAA        -9.5260    7.2340   -2.0990 c3        1 SH2     -0.111600
     24 CAC        -8.7290    5.4380   -3.6390 c3        1 SH2     -0.111600
     25 CAD       -11.0880    6.2440   -3.7700 c3        1 SH2      0.142400
     26 OAE       -10.6440    7.2230   -4.6880 oh        1 SH2     -0.588800
     27 H1         -0.4790    1.0740    0.6710 ha        1 SH2      0.152000
     28 H2          3.7920    1.5600   -1.3440 h2        1 SH2      0.098200
     29 H3          0.4180   -0.3400   -4.1220 ha        1 SH2      0.180000
     30 H4         -1.6580   -1.0710   -2.9370 ha        1 SH2      0.138000
     31 H5         -2.8820   -1.3710   -0.9590 hc        1 SH2      0.077700
     32 H6         -2.1580   -0.8690    0.6320 hc        1 SH2      0.077700
     33 H7         -2.9460    1.5120    0.2470 hx        1 SH2      0.111700
     34 H8         -3.7050    0.9940   -1.3490 hx        1 SH2      0.111700
     35 H9         -5.1520   -0.4840   -0.0950 hn        1 SH2      0.472800
     36 H10        -7.2490    0.8290   -0.6770 hc        1 SH2      0.117200
     37 H11        -5.9980    1.8620   -1.5110 hc        1 SH2      0.117200
     38 H12        -6.6820    3.8640   -0.1070 hx        1 SH2      0.139200
     39 H13        -7.8850    2.8410    0.7980 hx        1 SH2      0.139200
     40 H14        -9.0880    2.5370   -1.3140 hn        1 SH2      0.474300
     41 H15       -11.2110    5.3160   -1.1670 h1        1 SH2      0.127700
     42 H16       -11.6080    3.8270   -2.8630 ho        1 SH2      0.478000
     43 H17       -10.3850    7.6130   -1.4940 hc        1 SH2      0.061533
     44 H18        -9.2600    8.0160   -2.8560 hc        1 SH2      0.061533
     45 H19        -8.6510    7.0740   -1.4250 hc        1 SH2      0.061533
     46 H20        -8.9370    4.4100   -4.0250 hc        1 SH2      0.061533
     47 H21        -7.7910    5.4370   -3.0330 hc        1 SH2      0.061533
     48 H22        -8.5690    6.1160   -4.5180 hc        1 SH2      0.061533
     49 H23       -11.9650    6.6160   -3.1760 h1        1 SH2      0.037700
     50 H24       -11.3740    5.3120   -4.3300 h1        1 SH2      0.037700
     51 H25       -11.4270    7.5650   -5.1410 ho        1 SH2      0.438000
     52 H26         2.9540    3.1280   -1.9720 h2        1 SH2      0.098200
     53 HAO2       -4.4210   -0.0750    1.3490 hn        1 SH2      0.472800
     54 HAJ2       -8.0000    3.4920   -2.1300 hn        1 SH2      0.474300
@<TRIPOS>BOND
     1    1    2 ar  
     2    1    9 ar  
     3    1   27 1   
     4    2    3 1   
     5    2    6 ar  
     6    3    4 1   
     7    4    5 1   
     8    4   28 1   
     9    4   52 1   
    10    5    6 1   
    11    6    7 ar  
    12    7    8 ar  
    13    7   29 1   
    14    8    9 ar  
    15    8   30 1   
    16    9   10 1   
    17   10   11 1   
    18   10   31 1   
    19   10   32 1   
    20   11   12 1   
    21   11   33 1   
    22   11   34 1   
    23   12   13 1   
    24   12   35 1   
    25   12   53 1   
    26   13   14 2   
    27   13   15 1   
    28   15   16 1   
    29   15   36 1   
    30   15   37 1   
    31   16   17 1   
    32   16   38 1   
    33   16   39 1   
    34   17   18 1   
    35   17   40 1   
    36   17   54 1   
    37   18   19 2   
    38   18   20 1   
    39   20   21 1   
    40   20   22 1   
    41   20   41 1   
    42   21   42 1   
    43   22   23 1   
    44   22   24 1   
    45   22   25 1   
    46   23   43 1   
    47   23   44 1   
    48   23   45 1   
    49   24   46 1   
    50   24   47 1   
    51   24   48 1   
    52   25   26 1   
    53   25   49 1   
    54   25   50 1   
    55   26   51 1   
@<TRIPOS>SUBSTRUCTURE
     1 SH2         1 TEMP              0 ****  ****    0 ROOT
