@<TRIPOS>MOLECULE
SH2
   54    55     1     0     0
SMALL
bcc


@<TRIPOS>ATOM
      1 CAZ        -0.2910    0.8140   -0.3940 ca        1 SH2     -0.122000
      2 CAY         0.8370    1.1970   -1.0830 ca        1 SH2      0.075100
      3 OAX         1.8810    1.9980   -0.6550 os        1 SH2     -0.320900
      4 CAW         2.8390    2.0630   -1.7460 c3        1 SH2      0.320200
      5 OAV         2.2840    1.3040   -2.8540 os        1 SH2     -0.309900
      6 CAU         1.0830    0.7750   -2.4240 ca        1 SH2      0.103100
      7 CAT         0.2000   -0.0400   -3.1020 ca        1 SH2     -0.112000
      8 CAS        -0.9570   -0.4290   -2.4020 ca        1 SH2     -0.101000
      9 CAR        -1.2000   -0.0170   -1.0910 ca        1 SH2     -0.154300
     10 CAQ        -2.4160   -0.4920   -0.3760 c3        1 SH2     -0.037100
     11 CAP        -3.4090    0.6710   -0.3000 c3        1 SH2      0.104800
     12 NAO        -4.6650    0.3010    0.4430 ny        1 SH2     -0.674800
     13 CAM        -5.5860    1.4760    0.5930 c         1 SH2      0.535100
     14 OAN        -5.4740    2.1320    1.6180 o         1 SH2     -0.372100
     15 CAL        -6.5600    1.7310   -0.5280 c3        1 SH2     -0.178400
     16 CAK        -7.3710    2.9860   -0.1900 c3        1 SH2      0.097800
     17 NAJ        -8.4150    3.3100   -1.1900 ny        1 SH2     -0.684800
     18 CAH        -9.2420    4.5540   -0.8270 c         1 SH2      0.563100
     19 OAI        -8.9110    5.1480    0.1780 o         1 SH2     -0.378100
     20 CAF       -10.3770    4.8810   -1.7960 c3        1 SH2      0.098100
     21 OAG       -10.7640    3.6560   -2.3960 oh        1 SH2     -0.640800
     22 CAB        -9.9090    5.9360   -2.8240 c3        1 SH2     -0.084000
     23 CAA        -9.5410    7.2230   -2.1030 c3        1 SH2     -0.111600
     24 CAC        -8.7340    5.4240   -3.6340 c3        1 SH2     -0.111600
     25 CAD       -11.0970    6.2190   -3.7710 c3        1 SH2      0.142400
     26 OAE       -10.6560    7.1960   -4.6920 oh        1 SH2     -0.588800
     27 H1         -0.4600    1.1150    0.6470 ha        1 SH2      0.152000
     28 H2          2.9420    3.1300   -2.0650 h2        1 SH2      0.098200
     29 H3          0.3920   -0.3800   -4.1300 ha        1 SH2      0.180000
     30 H4         -1.6700   -1.0950   -2.9110 ha        1 SH2      0.138000
     31 H5         -2.8740   -1.3630   -0.9160 hc        1 SH2      0.077700
     32 H6         -2.1350   -0.8330    0.6580 hc        1 SH2      0.077700
     33 H7         -2.9320    1.5390    0.2430 hx        1 SH2      0.111700
     34 H8         -3.7040    0.9940   -1.3370 hx        1 SH2      0.111700
     35 H9         -4.3940   -0.0340    1.3830 hn        1 SH2      0.472800
     36 H10        -7.2350    0.8360   -0.6410 hc        1 SH2      0.117200
     37 H11        -5.9940    1.8660   -1.4910 hc        1 SH2      0.117200
     38 H12        -6.6790    3.8780   -0.1000 hx        1 SH2      0.139200
     39 H13        -7.8760    2.8580    0.8160 hx        1 SH2      0.139200
     40 H14        -9.0810    2.5310   -1.2930 hn        1 SH2      0.474300
     41 H15       -11.2180    5.3010   -1.1640 h1        1 SH2      0.127700
     42 H16       -11.6050    3.8030   -2.8550 ho        1 SH2      0.478000
     43 H17       -10.4020    7.6000   -1.5000 hc        1 SH2      0.061533
     44 H18        -9.2780    8.0030   -2.8630 hc        1 SH2      0.061533
     45 H19        -8.6660    7.0700   -1.4270 hc        1 SH2      0.061533
     46 H20        -8.5750    6.1000   -4.5160 hc        1 SH2      0.061533
     47 H21        -7.7960    5.4300   -3.0270 hc        1 SH2      0.061533
     48 H22        -8.9370    4.3950   -4.0170 hc        1 SH2      0.061533
     49 H23       -11.3770    5.2830   -4.3270 h1        1 SH2      0.037700
     50 H24       -11.9760    6.5890   -3.1800 h1        1 SH2      0.037700
     51 H25       -11.4400    7.5320   -5.1490 ho        1 SH2      0.438000
     52 H26         3.7890    1.5750   -1.4190 h2        1 SH2      0.098200
     53 HAO2       -5.1370   -0.4670   -0.0470 hn        1 SH2      0.472800
     54 HAJ2       -8.0000    3.4870   -2.1170 hn        1 SH2      0.474300
@<TRIPOS>BOND
     1    1    2 ar  
     2    1    9 ar  
     3    1   27 1   
     4    2    3 1   
     5    2    6 ar  
     6    3    4 1   
     7    4    5 1   
     8    4   28 1   
     9    4   52 1   
    10    5    6 1   
    11    6    7 ar  
    12    7    8 ar  
    13    7   29 1   
    14    8    9 ar  
    15    8   30 1   
    16    9   10 1   
    17   10   11 1   
    18   10   31 1   
    19   10   32 1   
    20   11   12 1   
    21   11   33 1   
    22   11   34 1   
    23   12   13 1   
    24   12   35 1   
    25   12   53 1   
    26   13   14 2   
    27   13   15 1   
    28   15   16 1   
    29   15   36 1   
    30   15   37 1   
    31   16   17 1   
    32   16   38 1   
    33   16   39 1   
    34   17   18 1   
    35   17   40 1   
    36   17   54 1   
    37   18   19 2   
    38   18   20 1   
    39   20   21 1   
    40   20   22 1   
    41   20   41 1   
    42   21   42 1   
    43   22   23 1   
    44   22   24 1   
    45   22   25 1   
    46   23   43 1   
    47   23   44 1   
    48   23   45 1   
    49   24   46 1   
    50   24   47 1   
    51   24   48 1   
    52   25   26 1   
    53   25   49 1   
    54   25   50 1   
    55   26   51 1   
@<TRIPOS>SUBSTRUCTURE
     1 SH2         1 TEMP              0 ****  ****    0 ROOT
