@<TRIPOS>MOLECULE
SH3
   57    58     1     0     0
SMALL
bcc


@<TRIPOS>ATOM
      1 OAC         0.0000    0.0000    0.0000 o         1 SH3     -0.480500
      2 PAB         1.6100    0.0000    0.0000 p5        1 SH3      0.804900
      3 OAD         2.1470    0.0000    1.5180 o         1 SH3     -0.480500
      4 OAA         2.1030   -1.2090   -0.6970 o         1 SH3     -0.480500
      5 OAE         2.1470    1.3150   -0.7590 os        1 SH3     -0.491200
      6 CAF         3.5320    1.5530   -1.0180 c3        1 SH3      0.304400
      7 CAG         3.6920    2.8860   -1.7510 c3        1 SH3     -0.113000
      8 CAH         3.1330    4.0160   -0.8840 c3        1 SH3      0.013900
      9 CAI         2.9270    2.8340   -3.0760 c3        1 SH3      0.013900
     10 CAJ         5.1740    3.1420   -2.0280 c3        1 SH3      0.159100
     11 OAK         5.8650    3.3230   -0.7900 oh        1 SH3     -0.515800
     12 CAL         5.7590    1.9610   -2.7620 c         1 SH3      0.237100
     13 OAM         6.5720    1.2490   -2.2130 o         1 SH3     -0.444100
     14 NAN         5.3770    1.6990   -4.0270 ny        1 SH3      0.121200
     15 CAO         5.8710    0.4980   -4.7060 c3        1 SH3      0.001800
     16 CAP         5.2900    0.4380   -6.1210 c3        1 SH3     -0.024400
     17 CAQ         5.7980   -0.7960   -6.8200 c         1 SH3      0.003100
     18 OAR         6.5500   -1.5530   -6.2440 o         1 SH3     -0.623100
     19 NAS         5.4160   -1.0590   -8.0850 ny        1 SH3      0.308200
     20 CAT         5.9100   -2.2600   -8.7650 c3        1 SH3     -0.029200
     21 CAU         5.3290   -2.3200  -10.1800 c3        1 SH3      0.038900
     22 CAV         5.8370   -3.5550  -10.8780 ca        1 SH3     -0.120300
     23 CBD         7.0120   -3.5020  -11.6050 ca        1 SH3     -0.079000
     24 CBC         7.4830   -4.6370  -12.2440 ca        1 SH3      0.064100
     25 OBB         8.5930   -4.8500  -13.0110 os        1 SH3     -0.311900
     26 CBA         8.7680   -6.2780  -13.0460 c3        1 SH3      0.433200
     27 OAZ         7.4350   -6.7910  -12.8590 os        1 SH3     -0.307900
     28 CAY         6.7710   -5.8310  -12.1520 ca        1 SH3      0.076100
     29 CAX         5.5940   -5.8760  -11.4220 ca        1 SH3     -0.078000
     30 CAW         5.1310   -4.7390  -10.7860 ca        1 SH3     -0.083000
     31 H3          3.9270    0.7530   -1.6320 h1        1 SH3     -0.010800
     32 H4          4.0730    1.5890   -0.0800 h1        1 SH3     -0.010800
     33 H5          3.5840    3.9730    0.1000 hc        1 SH3      0.012200
     34 H6          2.0590    3.9040   -0.7940 hc        1 SH3      0.012200
     35 H7          3.3590    4.9700   -1.3440 hc        1 SH3      0.012200
     36 H8          2.8130    1.8030   -3.3860 hc        1 SH3      0.012200
     37 H9          1.9500    3.2830   -2.9460 hc        1 SH3      0.012200
     38 H10         3.4780    3.3800   -3.8320 hc        1 SH3      0.012200
     39 H11         5.2800    4.0330   -2.6340 h1        1 SH3      0.005700
     40 H12         6.6050    3.8920   -0.9230 ho        1 SH3      0.391000
     41 H13         5.6540    2.4830   -4.5830 hn        1 SH3      0.250300
     42 H14         6.9520    0.5340   -4.7610 hx        1 SH3      0.100700
     43 H15         5.5650   -0.3810   -4.1530 hx        1 SH3      0.100700
     44 H16         5.5950    1.3180   -6.6750 hc        1 SH3      0.006200
     45 H17         4.2080    0.4030   -6.0670 hc        1 SH3      0.006200
     46 H18         5.6940   -0.2750   -8.6420 hn        1 SH3      0.160800
     47 H19         6.9920   -2.2250   -8.8200 hx        1 SH3      0.083700
     48 H20         5.6050   -3.1390   -8.2120 hx        1 SH3      0.083700
     49 H21         4.2480   -2.3550  -10.1260 hc        1 SH3      0.023700
     50 H22         5.6350   -1.4410  -10.7340 hc        1 SH3      0.023700
     51 H23         7.5440   -2.5640  -11.7070 ha        1 SH3      0.112000
     52 H24         9.1440   -6.5790  -14.0170 h2        1 SH3      0.019700
     53 H25         9.4010   -6.5920  -12.2250 h2        1 SH3      0.019700
     54 H26         5.0380   -6.8030  -11.3480 ha        1 SH3      0.121000
     55 H27         4.2070   -4.7750  -10.2210 ha        1 SH3      0.112000
     56 HAN2        4.3780    1.6400   -4.0230 hn        1 SH3      0.250300
     57 HAS2        4.4170   -1.1170   -8.0820 hn        1 SH3      0.160800
@<TRIPOS>BOND
     1    1    2 1   
     2    2    3 1   
     3    2    4 1   
     4    2    5 1   
     5    5    6 1   
     6    6    7 1   
     7    6   31 1   
     8    6   32 1   
     9    7    8 1   
    10    7    9 1   
    11    7   10 1   
    12    8   33 1   
    13    8   34 1   
    14    8   35 1   
    15    9   36 1   
    16    9   37 1   
    17    9   38 1   
    18   10   11 1   
    19   10   12 1   
    20   10   39 1   
    21   11   40 1   
    22   12   13 2   
    23   12   14 1   
    24   14   15 1   
    25   14   41 1   
    26   14   56 1   
    27   15   16 1   
    28   15   42 1   
    29   15   43 1   
    30   16   17 1   
    31   16   44 1   
    32   16   45 1   
    33   17   18 2   
    34   17   19 1   
    35   19   20 1   
    36   19   46 1   
    37   19   57 1   
    38   20   21 1   
    39   20   47 1   
    40   20   48 1   
    41   21   22 1   
    42   21   49 1   
    43   21   50 1   
    44   22   23 ar  
    45   22   30 ar  
    46   23   24 ar  
    47   23   51 1   
    48   24   25 1   
    49   24   28 ar  
    50   25   26 1   
    51   26   27 1   
    52   26   52 1   
    53   26   53 1   
    54   27   28 1   
    55   28   29 ar  
    56   29   30 ar  
    57   29   54 1   
    58   30   55 1   
@<TRIPOS>SUBSTRUCTURE
     1 SH3         1 TEMP              0 ****  ****    0 ROOT
