@<TRIPOS>MOLECULE
SH3
   55    56     1     0     0
SMALL
bcc


@<TRIPOS>ATOM
      1 OAC         2.2500   -1.6690   -4.6790 o         1 SH3     -0.909167
      2 PAB         3.6700   -1.2280   -4.8200 p5        1 SH3      1.332900
      3 OAD         4.5910   -1.4670   -3.6440 o         1 SH3     -0.909167
      4 OAA         4.3390   -1.4300   -6.1570 o         1 SH3     -0.909167
      5 OAE         3.6220    0.4830   -4.6830 os        1 SH3     -0.588200
      6 CAF         2.6330    0.9620   -3.8550 c3        1 SH3      0.217400
      7 CAG         3.1390    2.0530   -2.8770 c3        1 SH3     -0.109000
      8 CAH         3.6610    3.2330   -3.6760 c3        1 SH3     -0.078600
      9 CAI         1.9400    2.4980   -2.0450 c3        1 SH3     -0.078600
     10 CAJ         4.2200    1.5540   -1.8920 c3        1 SH3      0.128100
     11 OAK         4.0080    0.2430   -1.4440 oh        1 SH3     -0.651800
     12 CAL         5.6420    1.7960   -2.4360 c         1 SH3      0.634100
     13 OAM         6.2510    2.8450   -2.0860 o         1 SH3     -0.725100
     14 NAN         6.2220    0.8480   -3.2280 n         1 SH3     -0.544900
     15 CAO         7.4650    1.0780   -3.9000 c3        1 SH3      0.106000
     16 CAP         7.3380    1.5940   -5.3410 c3        1 SH3     -0.179400
     17 CAQ         7.7220    0.5540   -6.3770 c         1 SH3      0.640100
     18 OAR         8.7010    0.7740   -7.1410 o         1 SH3     -0.712100
     19 NAS         7.0150   -0.6170   -6.4090 n         1 SH3     -0.527900
     20 CAT         7.1490   -1.5500   -7.4950 c3        1 SH3      0.115000
     21 CAU         6.1190   -1.3480   -8.6220 c3        1 SH3     -0.085100
     22 CAV         5.7330   -2.6500   -9.2280 ca        1 SH3     -0.052300
     23 CBD         6.2970   -3.0730  -10.4470 ca        1 SH3     -0.126000
     24 CBC         5.8630   -4.2930  -10.9320 ca        1 SH3      0.016100
     25 OBB         6.2470   -4.9520  -12.1070 os        1 SH3     -0.356900
     26 CBA         5.5040   -6.1850  -12.1450 c3        1 SH3      0.326200
     27 OAZ         4.6680   -6.2500  -10.9750 os        1 SH3     -0.352900
     28 CAY         4.9090   -5.0770  -10.2470 ca        1 SH3      0.016100
     29 CAX         4.3490   -4.6670   -9.0500 ca        1 SH3     -0.115000
     30 CAW         4.7810   -3.4300   -8.5500 ca        1 SH3     -0.108000
     31 H3          2.1620    0.1260   -3.2630 h1        1 SH3      0.009700
     32 H4          1.8250    1.4570   -4.4760 h1        1 SH3      0.009700
     33 H5          2.8210    3.7370   -4.2100 hc        1 SH3      0.023367
     34 H6          4.1640    3.9740   -3.0090 hc        1 SH3      0.023367
     35 H7          4.3960    2.8680   -4.4360 hc        1 SH3      0.023367
     36 H8          1.6130    1.6610   -1.3810 hc        1 SH3      0.023367
     37 H9          1.0890    2.7830   -2.7090 hc        1 SH3      0.023367
     38 H10         2.2050    3.3790   -1.4120 hc        1 SH3      0.023367
     39 H11         4.1580    2.1810   -0.9500 h1        1 SH3      0.044700
     40 H12         4.0490   -0.3810   -2.2100 ho        1 SH3      0.489000
     41 H13         5.6530    0.0510   -3.5360 hn        1 SH3      0.403500
     42 H14         8.0620    1.8350   -3.3130 h1        1 SH3      0.044200
     43 H15         8.0370    0.1070   -3.9010 h1        1 SH3      0.044200
     44 H16         6.2910    1.9390   -5.5540 hc        1 SH3      0.067700
     45 H17         8.0240    2.4700   -5.4750 hc        1 SH3      0.067700
     46 H18         6.1160   -0.6910   -5.9190 hn        1 SH3      0.395500
     47 H19         6.9930   -2.5760   -7.0530 h1        1 SH3      0.042700
     48 H20         8.1870   -1.4860   -7.9240 h1        1 SH3      0.042700
     49 H21         6.5360   -0.6560   -9.3970 hc        1 SH3      0.081700
     50 H22         5.1860   -0.8850   -8.1750 hc        1 SH3      0.081700
     51 H23         7.0390   -2.4660  -10.9780 ha        1 SH3      0.138000
     52 H24         4.8510   -6.1830  -13.0530 h2        1 SH3      0.042200
     53 H25         6.2250   -7.0390  -12.1200 h2        1 SH3      0.042200
     54 H26         3.6050   -5.2700   -8.5160 ha        1 SH3      0.148000
     55 H27         4.3710   -3.0210   -7.5920 ha        1 SH3      0.252000
@<TRIPOS>BOND
     1    1    2 1   
     2    2    3 1   
     3    2    4 1   
     4    2    5 1   
     5    5    6 1   
     6    6    7 1   
     7    6   31 1   
     8    6   32 1   
     9    7    8 1   
    10    7    9 1   
    11    7   10 1   
    12    8   33 1   
    13    8   34 1   
    14    8   35 1   
    15    9   36 1   
    16    9   37 1   
    17    9   38 1   
    18   10   11 1   
    19   10   12 1   
    20   10   39 1   
    21   11   40 1   
    22   12   13 2   
    23   12   14 1   
    24   14   15 1   
    25   14   41 1   
    26   15   16 1   
    27   15   42 1   
    28   15   43 1   
    29   16   17 1   
    30   16   44 1   
    31   16   45 1   
    32   17   18 2   
    33   17   19 1   
    34   19   20 1   
    35   19   46 1   
    36   20   21 1   
    37   20   47 1   
    38   20   48 1   
    39   21   22 1   
    40   21   49 1   
    41   21   50 1   
    42   22   23 ar  
    43   22   30 ar  
    44   23   24 ar  
    45   23   51 1   
    46   24   25 1   
    47   24   28 ar  
    48   25   26 1   
    49   26   27 1   
    50   26   52 1   
    51   26   53 1   
    52   27   28 1   
    53   28   29 ar  
    54   29   30 ar  
    55   29   54 1   
    56   30   55 1   
@<TRIPOS>SUBSTRUCTURE
     1 SH3         1 TEMP              0 ****  ****    0 ROOT
