@<TRIPOS>MOLECULE
SH4
   42    43     1     0     0
SMALL
bcc


@<TRIPOS>ATOM
      1 O1         -0.3300    0.0600   -0.2950 o         1 SH4     -0.846500
      2 P1          1.0070   -0.1750    0.2860 p5        1 SH4      1.338600
      3 O2          1.2270   -0.5670    1.6960 o         1 SH4     -0.846500
      4 O3          1.6830   -1.4020   -0.6380 os        1 SH4     -0.590200
      5 C1          1.7820   -2.6630   -0.0550 c3        1 SH4      0.228400
      6 C2          3.1990   -3.1820   -0.1430 ca        1 SH4     -0.061300
      7 C3          3.6070   -4.2220    0.7000 ca        1 SH4     -0.121500
      8 C4          4.9030   -4.7260    0.6210 ca        1 SH4     -0.144500
      9 C5          5.8070   -4.1940   -0.2990 ca        1 SH4     -0.156000
     10 C6          5.4080   -3.1530   -1.1370 ca        1 SH4     -0.144500
     11 C7          4.1110   -2.6490   -1.0600 ca        1 SH4     -0.121500
     12 C8          0.8560   -3.6440   -0.7760 c3        1 SH4     -0.105100
     13 C9          2.1040    1.0540   -0.1930 c3        1 SH4     -0.279300
     14 C10         1.7950    2.3920    0.3290 ca        1 SH4     -0.020300
     15 C11         2.3840    2.8600    1.5130 ca        1 SH4     -0.110000
     16 C12         2.1350    4.1410    1.9970 ca        1 SH4     -0.161000
     17 C13         1.2810    5.0090    1.2920 ca        1 SH4      0.021600
     18 N1          0.9630    6.3080    1.7410 n         1 SH4     -0.465100
     19 C14         1.6490    7.0690    2.6650 c         1 SH4      0.658100
     20 O4          2.6840    6.6890    3.2490 o         1 SH4     -0.605100
     21 C15         1.0690    8.4390    2.9570 c3        1 SH4     -0.179100
     22 C16         0.6900    4.5480    0.0920 ca        1 SH4     -0.161000
     23 C17         0.9510    3.2680   -0.3750 ca        1 SH4     -0.110000
     24 H1          1.4930   -2.6000    1.0400 h1        1 SH4      0.082700
     25 H3          2.8980   -4.6340    1.4340 ha        1 SH4      0.141000
     26 H4          5.2160   -5.5410    1.2890 ha        1 SH4      0.112000
     27 H5          6.8290   -4.5910   -0.3590 ha        1 SH4      0.109000
     28 H6          6.1200   -2.7270   -1.8580 ha        1 SH4      0.112000
     29 H7          3.7850   -1.8210   -1.7100 ha        1 SH4      0.141000
     30 H81        -0.2050   -3.3250   -0.6530 hc        1 SH4      0.030033
     31 H82         1.0930   -3.6670   -1.8650 hc        1 SH4      0.030033
     32 H83         0.9850   -4.6670   -0.3490 hc        1 SH4      0.030033
     33 H91         2.1170    1.0790   -1.3130 hc        1 SH4      0.075700
     34 H92         3.1310    0.7480    0.1350 hc        1 SH4      0.075700
     35 H11         3.0440    2.1900    2.0870 ha        1 SH4      0.145500
     36 H12         2.6170    4.4700    2.9310 ha        1 SH4      0.133000
     37 HN1         0.1700    6.7230    1.3070 hn        1 SH4      0.306500
     38 H151        1.7210    8.9480    3.7070 hc        1 SH4      0.058700
     39 H152        0.0390    8.3460    3.3760 hc        1 SH4      0.058700
     40 H153        1.0330    9.0570    2.0280 hc        1 SH4      0.058700
     41 H16         0.0100    5.1960   -0.4810 ha        1 SH4      0.133000
     42 H17         0.4650    2.9210   -1.3010 ha        1 SH4      0.145500
@<TRIPOS>BOND
     1    1    2 1   
     2    2    3 1   
     3    2    4 1   
     4    2   13 1   
     5    4    5 1   
     6    5    6 1   
     7    5   12 1   
     8    5   24 1   
     9    6    7 ar  
    10    6   11 ar  
    11    7    8 ar  
    12    7   25 1   
    13    8    9 ar  
    14    8   26 1   
    15    9   10 ar  
    16    9   27 1   
    17   10   11 ar  
    18   10   28 1   
    19   11   29 1   
    20   12   30 1   
    21   12   31 1   
    22   12   32 1   
    23   13   14 1   
    24   13   33 1   
    25   13   34 1   
    26   14   15 ar  
    27   14   23 ar  
    28   15   16 ar  
    29   15   35 1   
    30   16   17 ar  
    31   16   36 1   
    32   17   18 1   
    33   17   22 ar  
    34   18   19 1   
    35   18   37 1   
    36   19   20 2   
    37   19   21 1   
    38   21   38 1   
    39   21   39 1   
    40   21   40 1   
    41   22   23 ar  
    42   22   41 1   
    43   23   42 1   
@<TRIPOS>SUBSTRUCTURE
     1 SH4         1 TEMP              0 ****  ****    0 ROOT
