@<TRIPOS>MOLECULE
SH4
   42    43     1     0     0
SMALL
bcc


@<TRIPOS>ATOM
      1 O1         -0.4510   -2.7140   -0.4480 o         1 SH4     -0.846500
      2 P1         -0.8570   -1.2960   -0.5050 p5        1 SH4      1.338600
      3 O2         -1.0050   -0.5380   -1.7670 o         1 SH4     -0.846500
      4 O3         -2.3590   -1.2340    0.2410 os        1 SH4     -0.590200
      5 C1         -3.4720   -1.0410   -0.5730 c3        1 SH4      0.228400
      6 C2         -4.2960    0.1270   -0.0840 ca        1 SH4     -0.061300
      7 C3         -5.2150    0.7330   -0.9490 ca        1 SH4     -0.121500
      8 C4         -5.9980    1.8000   -0.5100 ca        1 SH4     -0.144500
      9 C5         -5.8680    2.2740    0.7950 ca        1 SH4     -0.156000
     10 C6         -4.9490    1.6780    1.6590 ca        1 SH4     -0.144500
     11 C7         -4.1670    0.6100    1.2220 ca        1 SH4     -0.121500
     12 C8         -4.3470   -2.2960   -0.5630 c3        1 SH4     -0.105100
     13 C9         -0.0180   -0.3730    0.6750 c3        1 SH4     -0.279300
     14 C10         1.4310   -0.2670    0.4550 ca        1 SH4     -0.020300
     15 C11         1.9790    0.8260   -0.2340 ca        1 SH4     -0.110000
     16 C12         3.3520    0.9640   -0.4120 ca        1 SH4     -0.161000
     17 C13         4.2330   -0.0020    0.1110 ca        1 SH4      0.021600
     18 N1          5.6320    0.0620   -0.0580 n         1 SH4     -0.465100
     19 C14         6.3880    1.1640   -0.4010 c         1 SH4      0.658100
     20 O4          5.9110    2.2960   -0.6170 o         1 SH4     -0.605100
     21 C15         7.8820    0.9330   -0.5140 c3        1 SH4     -0.179100
     22 C16         3.6890   -1.1010    0.8150 ca        1 SH4     -0.161000
     23 C17         2.3170   -1.2210    0.9830 ca        1 SH4     -0.110000
     24 H1         -3.1340   -0.8200   -1.6340 h1        1 SH4      0.082700
     25 H3         -5.3090    0.3670   -1.9820 ha        1 SH4      0.141000
     26 H4         -6.7140    2.2720   -1.1970 ha        1 SH4      0.112000
     27 H5         -6.4830    3.1160    1.1390 ha        1 SH4      0.109000
     28 H6         -4.8390    2.0530    2.6860 ha        1 SH4      0.112000
     29 H7         -3.4310    0.1350    1.8910 ha        1 SH4      0.141000
     30 H81        -5.2690   -2.1170   -1.1650 hc        1 SH4      0.030033
     31 H82        -3.7850   -3.1550   -0.9980 hc        1 SH4      0.030033
     32 H83        -4.6340   -2.5560    0.4820 hc        1 SH4      0.030033
     33 H91        -0.4720    0.6490    0.7020 hc        1 SH4      0.075700
     34 H92        -0.2150   -0.8410    1.6730 hc        1 SH4      0.075700
     35 H11         1.3050    1.5840   -0.6640 ha        1 SH4      0.145500
     36 H12         3.7420    1.8360   -0.9600 ha        1 SH4      0.133000
     37 HN1         6.1200   -0.7850    0.1290 hn        1 SH4      0.306500
     38 H151        8.1020    0.1800   -1.3080 hc        1 SH4      0.058700
     39 H152        8.3710    1.8990   -0.7860 hc        1 SH4      0.058700
     40 H153        8.3000    0.5750    0.4570 hc        1 SH4      0.058700
     41 H16         4.3470   -1.8790    1.2310 ha        1 SH4      0.133000
     42 H17         1.9120   -2.0950    1.5180 ha        1 SH4      0.145500
@<TRIPOS>BOND
     1    1    2 1   
     2    2    3 1   
     3    2    4 1   
     4    2   13 1   
     5    4    5 1   
     6    5    6 1   
     7    5   12 1   
     8    5   24 1   
     9    6    7 ar  
    10    6   11 ar  
    11    7    8 ar  
    12    7   25 1   
    13    8    9 ar  
    14    8   26 1   
    15    9   10 ar  
    16    9   27 1   
    17   10   11 ar  
    18   10   28 1   
    19   11   29 1   
    20   12   30 1   
    21   12   31 1   
    22   12   32 1   
    23   13   14 1   
    24   13   33 1   
    25   13   34 1   
    26   14   15 ar  
    27   14   23 ar  
    28   15   16 ar  
    29   15   35 1   
    30   16   17 ar  
    31   16   36 1   
    32   17   18 1   
    33   17   22 ar  
    34   18   19 1   
    35   18   37 1   
    36   19   20 2   
    37   19   21 1   
    38   21   38 1   
    39   21   39 1   
    40   21   40 1   
    41   22   23 ar  
    42   22   41 1   
    43   23   42 1   
@<TRIPOS>SUBSTRUCTURE
     1 SH4         1 TEMP              0 ****  ****    0 ROOT
