@<TRIPOS>MOLECULE
SH4
   43    44     1     0     0
SMALL
bcc


@<TRIPOS>ATOM
      1 O1         -0.1890    0.5390   -1.2840 o         1 SH4     -0.826500
      2 P1          0.7210   -0.0590   -0.2920 p5        1 SH4      1.315600
      3 O2          0.3480   -0.4460    1.0840 o         1 SH4     -0.826500
      4 O3          1.5060   -1.3170   -1.0070 os        1 SH4     -0.582200
      5 C1          1.6870   -2.4940   -0.2670 c3        1 SH4      0.218400
      6 C2          3.1580   -2.7720   -0.0760 ca        1 SH4     -0.088300
      7 C3          3.6050   -3.3750    1.1050 ca        1 SH4     -0.118500
      8 C4          4.9590   -3.6580    1.2780 ca        1 SH4     -0.142000
      9 C5          5.8760   -3.3370    0.2770 ca        1 SH4     -0.143000
     10 C6          5.4340   -2.7320   -0.9000 ca        1 SH4     -0.142000
     11 C7          4.0810   -2.4510   -1.0770 ca        1 SH4     -0.118500
     12 C8          1.0460   -3.6570   -1.0200 c3        1 SH4     -0.098100
     13 C9          2.1010    1.0490   -0.1450 c3        1 SH4     -0.284300
     14 C10         1.6980    2.3410    0.3790 ca        1 SH4      0.104700
     15 C11         1.6950    2.5900    1.7710 ca        1 SH4     -0.123500
     16 C12         1.2450    3.7920    2.2860 ca        1 SH4     -0.094000
     17 C13         0.8040    4.8000    1.4050 ca        1 SH4     -0.149400
     18 N1          0.2590    6.0460    1.9400 n4        1 SH4     -0.523200
     19 C14         1.3090    7.1320    2.0340 c         1 SH4      0.554100
     20 O4          1.0690    8.1460    1.3940 o         1 SH4     -0.436100
     21 C15         2.4930    6.8440    2.8900 c3        1 SH4     -0.182100
     22 C16         0.8340    4.5930    0.0120 ca        1 SH4     -0.094000
     23 C17         1.2860    3.3820   -0.4840 ca        1 SH4     -0.123500
     24 H1          1.1940   -2.3840    0.7480 h1        1 SH4      0.083700
     25 H3          2.8840   -3.6220    1.8980 ha        1 SH4      0.142000
     26 H4          5.3040   -4.1340    2.2070 ha        1 SH4      0.121500
     27 H5          6.9420   -3.5620    0.4140 ha        1 SH4      0.120000
     28 H6          6.1550   -2.4780   -1.6910 ha        1 SH4      0.121500
     29 H7          3.7180   -1.9700   -1.9990 ha        1 SH4      0.142000
     30 H81         1.2270   -4.6080   -0.4680 hc        1 SH4      0.037033
     31 H82         1.4810   -3.7350   -2.0450 hc        1 SH4      0.037033
     32 H83        -0.0520   -3.4880   -1.1140 hc        1 SH4      0.037033
     33 H91         2.5390    1.1350   -1.1690 hc        1 SH4      0.096200
     34 H92         2.8450    0.5480    0.5190 hc        1 SH4      0.096200
     35 H11         2.0070    1.7830    2.4570 ha        1 SH4      0.180500
     36 H12         1.2200    3.9400    3.3770 ha        1 SH4      0.134500
     37 HN1        -0.1190    5.8640    2.8760 hn        1 SH4      0.456800
     38 H151        2.2050    6.9020    3.9700 hc        1 SH4      0.109367
     39 H152        3.2830    7.6110    2.6810 hc        1 SH4      0.109367
     40 H153        2.9060    5.8230    2.6760 hc        1 SH4      0.109367
     41 H16         0.4900    5.3720   -0.6870 ha        1 SH4      0.134500
     42 H17         1.2710    3.1980   -1.5730 ha        1 SH4      0.180500
     43 H121       -0.5040    6.3640    1.3270 hn        1 SH4      0.456800
@<TRIPOS>BOND
     1    1    2 1   
     2    2    3 1   
     3    2    4 1   
     4    2   13 1   
     5    4    5 1   
     6    5    6 1   
     7    5   12 1   
     8    5   24 1   
     9    6    7 ar  
    10    6   11 ar  
    11    7    8 ar  
    12    7   25 1   
    13    8    9 ar  
    14    8   26 1   
    15    9   10 ar  
    16    9   27 1   
    17   10   11 ar  
    18   10   28 1   
    19   11   29 1   
    20   12   30 1   
    21   12   31 1   
    22   12   32 1   
    23   13   14 1   
    24   13   33 1   
    25   13   34 1   
    26   14   15 ar  
    27   14   23 ar  
    28   15   16 ar  
    29   15   35 1   
    30   16   17 ar  
    31   16   36 1   
    32   17   18 1   
    33   17   22 ar  
    34   18   19 1   
    35   18   37 1   
    36   18   43 1   
    37   19   20 2   
    38   19   21 1   
    39   21   38 1   
    40   21   39 1   
    41   21   40 1   
    42   22   23 ar  
    43   22   41 1   
    44   23   42 1   
@<TRIPOS>SUBSTRUCTURE
     1 SH4         1 TEMP              0 ****  ****    0 ROOT
