@<TRIPOS>MOLECULE
SH4
   42    43     1     0     0
SMALL
bcc


@<TRIPOS>ATOM
      1 O1         -0.3300    0.0630   -0.3000 o         1 SH4     -0.846500
      2 P1          1.0060   -0.1740    0.2840 p5        1 SH4      1.338600
      3 O2          1.2220   -0.5640    1.6950 o         1 SH4     -0.846500
      4 O3          1.6820   -1.4030   -0.6360 os        1 SH4     -0.590200
      5 C1          1.7780   -2.6630   -0.0510 c3        1 SH4      0.228400
      6 C2          3.1940   -3.1840   -0.1360 ca        1 SH4     -0.061300
      7 C3          3.5990   -4.2240    0.7100 ca        1 SH4     -0.121500
      8 C4          4.8950   -4.7300    0.6340 ca        1 SH4     -0.144500
      9 C5          5.8010   -4.2010   -0.2840 ca        1 SH4     -0.156000
     10 C6          5.4060   -3.1600   -1.1250 ca        1 SH4     -0.144500
     11 C7          4.1090   -2.6540   -1.0520 ca        1 SH4     -0.121500
     12 C8          0.8520   -3.6440   -0.7720 c3        1 SH4     -0.105100
     13 C9          2.1060    1.0530   -0.1940 c3        1 SH4     -0.279300
     14 C10         1.7970    2.3920    0.3260 ca        1 SH4     -0.020300
     15 C11         2.3850    2.8610    1.5110 ca        1 SH4     -0.110000
     16 C12         2.1370    4.1430    1.9930 ca        1 SH4     -0.161000
     17 C13         1.2850    5.0110    1.2840 ca        1 SH4      0.021600
     18 N1          0.9690    6.3110    1.7310 ns        1 SH4     -0.465100
     19 C14         1.6550    7.0720    2.6560 c         1 SH4      0.658100
     20 O4          2.6870    6.6920    3.2420 o         1 SH4     -0.605100
     21 C15         1.0760    8.4440    2.9440 c3        1 SH4     -0.179100
     22 C16         0.6970    4.5500    0.0840 ca        1 SH4     -0.161000
     23 C17         0.9570    3.2690   -0.3810 ca        1 SH4     -0.110000
     24 H1          1.4870   -2.5980    1.0430 h1        1 SH4      0.082700
     25 H3          2.8880   -4.6340    1.4430 ha        1 SH4      0.141000
     26 H4          5.2050   -5.5450    1.3040 ha        1 SH4      0.112000
     27 H5          6.8230   -4.5990   -0.3420 ha        1 SH4      0.109000
     28 H6          6.1190   -2.7360   -1.8450 ha        1 SH4      0.112000
     29 H7          3.7860   -1.8260   -1.7030 ha        1 SH4      0.141000
     30 H81        -0.2090   -3.3230   -0.6530 hc        1 SH4      0.030033
     31 H82         1.0910   -3.6690   -1.8610 hc        1 SH4      0.030033
     32 H83         0.9780   -4.6660   -0.3440 hc        1 SH4      0.030033
     33 H91         3.1310    0.7460    0.1370 hc        1 SH4      0.075700
     34 H92         2.1220    1.0770   -1.3130 hc        1 SH4      0.075700
     35 H11         3.0420    2.1910    2.0880 ha        1 SH4      0.145500
     36 H12         2.6170    4.4720    2.9280 ha        1 SH4      0.133000
     37 HN1         0.1780    6.7280    1.2950 hn        1 SH4      0.306500
     38 H151        1.7270    8.9530    3.6950 hc        1 SH4      0.058700
     39 H152        1.0430    9.0610    2.0150 hc        1 SH4      0.058700
     40 H153        0.0440    8.3530    3.3600 hc        1 SH4      0.058700
     41 H16         0.0200    5.1990   -0.4920 ha        1 SH4      0.133000
     42 H17         0.4730    2.9210   -1.3080 ha        1 SH4      0.145500
@<TRIPOS>BOND
     1    1    2 1   
     2    2    3 1   
     3    2    4 1   
     4    2   13 1   
     5    4    5 1   
     6    5    6 1   
     7    5   12 1   
     8    5   24 1   
     9    6    7 ar  
    10    6   11 ar  
    11    7    8 ar  
    12    7   25 1   
    13    8    9 ar  
    14    8   26 1   
    15    9   10 ar  
    16    9   27 1   
    17   10   11 ar  
    18   10   28 1   
    19   11   29 1   
    20   12   30 1   
    21   12   31 1   
    22   12   32 1   
    23   13   14 1   
    24   13   33 1   
    25   13   34 1   
    26   14   15 ar  
    27   14   23 ar  
    28   15   16 ar  
    29   15   35 1   
    30   16   17 ar  
    31   16   36 1   
    32   17   18 1   
    33   17   22 ar  
    34   18   19 1   
    35   18   37 1   
    36   19   20 2   
    37   19   21 1   
    38   21   38 1   
    39   21   39 1   
    40   21   40 1   
    41   22   23 ar  
    42   22   41 1   
    43   23   42 1   
@<TRIPOS>SUBSTRUCTURE
     1 SH4         1 TEMP              0 ****  ****    0 ROOT
