@<TRIPOS>MOLECULE
SHA
   19    19     1     0     0
SMALL
bcc


@<TRIPOS>ATOM
      1 C1          0.3470   -0.4090   -0.1630 ca        1 SHA     -0.241600
      2 C2          1.4170   -1.2630    0.1880 ca        1 SHA     -0.018000
      3 C3          2.0080   -1.1790    1.4400 ca        1 SHA     -0.149000
      4 C4          1.5400   -0.2520    2.3790 ca        1 SHA     -0.010000
      5 C5          0.4830    0.5950    2.0620 ca        1 SHA     -0.203000
      6 C6         -0.1120    0.5220    0.7940 ca        1 SHA      0.179100
      7 O6         -1.1540    1.3500    0.4440 oh        1 SHA     -0.563100
      8 C7         -0.2210   -0.6200   -1.4880 c         1 SHA      0.604700
      9 O7         -0.2100   -1.6080   -2.1950 o         1 SHA     -0.368100
     10 N8         -0.9300    0.6290   -2.0940 n4        1 SHA     -0.462300
     11 O9         -1.0110    0.4640   -3.4310 oh        1 SHA     -0.342300
     12 H2          1.7750   -2.0060   -0.5480 ha        1 SHA      0.176000
     13 H3          2.8440   -1.8500    1.6980 ha        1 SHA      0.178000
     14 H4          2.0100   -0.1920    3.3760 ha        1 SHA      0.175000
     15 H5          0.1090    1.3210    2.8030 ha        1 SHA      0.169000
     16 HO6        -1.4380    1.8500    1.2280 ho        1 SHA      0.476000
     17 HN8        -0.3760    1.4710   -1.8560 hn        1 SHA      0.467300
     18 HO9        -1.6030    1.1550   -3.8040 ho        1 SHA      0.464000
     19 H82        -1.8630    0.7120   -1.6510 hn        1 SHA      0.467300
@<TRIPOS>BOND
     1    1    2 ar  
     2    1    6 ar  
     3    1    8 1   
     4    2    3 ar  
     5    2   12 1   
     6    3    4 ar  
     7    3   13 1   
     8    4    5 ar  
     9    4   14 1   
    10    5    6 ar  
    11    5   15 1   
    12    6    7 1   
    13    7   16 1   
    14    8    9 2   
    15    8   10 1   
    16   10   11 1   
    17   10   17 1   
    18   10   19 1   
    19   11   18 1   
@<TRIPOS>SUBSTRUCTURE
     1 SHA         1 TEMP              0 ****  ****    0 ROOT
