@<TRIPOS>MOLECULE
SHA
   19    19     1     0     0
SMALL
bcc


@<TRIPOS>ATOM
      1 C1          0.0730   -0.3530   -0.0420 ca        1 SHA     -0.244600
      2 C2          1.4760   -0.4210    0.0740 ca        1 SHA     -0.064000
      3 C3          2.0960   -0.0620    1.2570 ca        1 SHA     -0.148000
      4 C4          1.3330    0.3810    2.3520 ca        1 SHA     -0.013000
      5 C5         -0.0480    0.4600    2.2610 ca        1 SHA     -0.207000
      6 C6         -0.6890    0.0920    1.0620 ca        1 SHA      0.229100
      7 O6         -2.0390    0.1590    0.8860 oh        1 SHA     -0.482100
      8 C7         -0.6190   -0.7770   -1.2420 c         1 SHA      0.643700
      9 O7         -1.5300   -1.5390   -1.4720 o         1 SHA     -0.360100
     10 N8         -0.0520   -0.1080   -2.5690 n4        1 SHA     -0.488300
     11 O9         -0.6500    1.0990   -2.6780 oh        1 SHA     -0.345300
     12 H2          2.0850   -0.7980   -0.7630 ha        1 SHA      0.134000
     13 H3          3.1930   -0.1280    1.3500 ha        1 SHA      0.171000
     14 H4          1.8410    0.6640    3.2900 ha        1 SHA      0.172000
     15 H5         -0.6500    0.8030    3.1180 ha        1 SHA      0.172000
     16 HO6        -2.4580    0.4370    1.7190 ho        1 SHA      0.463000
     17 HN8         0.9710    0.0030   -2.4910 hn        1 SHA      0.451300
     18 HO9        -0.4310    1.4900   -3.5540 ho        1 SHA      0.464000
     19 H82        -0.2860   -0.7130   -3.3750 hn        1 SHA      0.451300
@<TRIPOS>BOND
     1    1    2 ar  
     2    1    6 ar  
     3    1    8 1   
     4    2    3 ar  
     5    2   12 1   
     6    3    4 ar  
     7    3   13 1   
     8    4    5 ar  
     9    4   14 1   
    10    5    6 ar  
    11    5   15 1   
    12    6    7 1   
    13    7   16 1   
    14    8    9 2   
    15    8   10 1   
    16   10   11 1   
    17   10   17 1   
    18   10   19 1   
    19   11   18 1   
@<TRIPOS>SUBSTRUCTURE
     1 SHA         1 TEMP              0 ****  ****    0 ROOT
