@<TRIPOS>MOLECULE
SHA
   18    18     1     0     0
SMALL
bcc


@<TRIPOS>ATOM
      1 C1          0.2410   -0.1600   -0.1960 ca        1 SHA     -0.247600
      2 C2          1.5550   -0.1680   -0.6960 ca        1 SHA     -0.059000
      3 C3          1.8010   -0.0660   -2.0580 ca        1 SHA     -0.181000
      4 C4          0.7340    0.0460   -2.9570 ca        1 SHA     -0.065000
      5 C5         -0.5720    0.0390   -2.4980 ca        1 SHA     -0.176000
      6 C6         -0.8280   -0.0790   -1.1120 ca        1 SHA      0.202100
      7 O6         -2.1520   -0.0780   -0.7800 oh        1 SHA     -0.499100
      8 C7         -0.0170   -0.2510    1.2560 c         1 SHA      0.617700
      9 O7         -1.0670   -0.7310    1.7290 o         1 SHA     -0.595100
     10 N8          1.0320    0.1270    2.1540 n         1 SHA     -0.343400
     11 O9          0.6250    0.3790    3.4010 oh        1 SHA     -0.435100
     12 H2          2.4090   -0.2750   -0.0090 ha        1 SHA      0.143000
     13 H3          2.8340   -0.0760   -2.4330 ha        1 SHA      0.141000
     14 H4          0.9350    0.1330   -4.0370 ha        1 SHA      0.140000
     15 H5         -1.4260    0.1170   -3.1860 ha        1 SHA      0.158000
     16 HO6        -2.2640   -0.2830    0.1630 ho        1 SHA      0.459000
     17 HN8         1.5470    0.9400    1.8310 hn        1 SHA      0.302500
     18 HO9         0.3640   -0.4850    3.7780 ho        1 SHA      0.438000
@<TRIPOS>BOND
     1    1    2 ar  
     2    1    6 ar  
     3    1    8 1   
     4    2    3 ar  
     5    2   12 1   
     6    3    4 ar  
     7    3   13 1   
     8    4    5 ar  
     9    4   14 1   
    10    5    6 ar  
    11    5   15 1   
    12    6    7 1   
    13    7   16 1   
    14    8    9 2   
    15    8   10 1   
    16   10   11 1   
    17   10   17 1   
    18   11   18 1   
@<TRIPOS>SUBSTRUCTURE
     1 SHA         1 TEMP              0 ****  ****    0 ROOT
