@<TRIPOS>MOLECULE
SHA
   19    19     1     0     0
SMALL
bcc


@<TRIPOS>ATOM
      1 C1          0.3400   -0.4130   -0.1560 ca        1 SHA     -0.241600
      2 C2          1.4020   -1.2740    0.2040 ca        1 SHA     -0.018000
      3 C3          1.9990   -1.1770    1.4520 ca        1 SHA     -0.149000
      4 C4          1.5470   -0.2280    2.3780 ca        1 SHA     -0.010000
      5 C5          0.4980    0.6260    2.0510 ca        1 SHA     -0.203000
      6 C6         -0.1030    0.5390    0.7870 ca        1 SHA      0.179100
      7 O6         -1.1360    1.3730    0.4280 oh        1 SHA     -0.563100
      8 C7         -0.2360   -0.6390   -1.4740 c         1 SHA      0.604700
      9 O7         -0.2420   -1.6380   -2.1650 o         1 SHA     -0.368100
     10 N8         -0.9300    0.6090   -2.0990 ny        1 SHA     -0.462300
     11 O9         -1.0180    0.4230   -3.4330 oh        1 SHA     -0.342300
     12 H2          1.7480   -2.0330   -0.5210 ha        1 SHA      0.176000
     13 H3          2.8290   -1.8530    1.7180 ha        1 SHA      0.178000
     14 H4          2.0220   -0.1580    3.3720 ha        1 SHA      0.175000
     15 H5          0.1360    1.3680    2.7820 ha        1 SHA      0.169000
     16 HO6        -1.4110    1.8890    1.2050 ho        1 SHA      0.476000
     17 HN8        -1.8610    0.7110   -1.6550 hn        1 SHA      0.467300
     18 HO9        -1.6030    1.1160   -3.8150 ho        1 SHA      0.464000
     19 H82        -0.3650    1.4480   -1.8770 hn        1 SHA      0.467300
@<TRIPOS>BOND
     1    1    2 ar  
     2    1    6 ar  
     3    1    8 1   
     4    2    3 ar  
     5    2   12 1   
     6    3    4 ar  
     7    3   13 1   
     8    4    5 ar  
     9    4   14 1   
    10    5    6 ar  
    11    5   15 1   
    12    6    7 1   
    13    7   16 1   
    14    8    9 2   
    15    8   10 1   
    16   10   11 1   
    17   10   17 1   
    18   10   19 1   
    19   11   18 1   
@<TRIPOS>SUBSTRUCTURE
     1 SHA         1 TEMP              0 ****  ****    0 ROOT
