@<TRIPOS>MOLECULE
SHB
   26    26     1     0     0
SMALL
bcc


@<TRIPOS>ATOM
      1 C1         -1.4980    1.2990    0.3330 c3        1 SHB      0.315900
      2 C2         -2.0800   -0.0560   -0.1220 c3        1 SHB      0.048100
      3 C3         -1.3380   -1.2000    0.5820 c3        1 SHB      0.156100
      4 O4          0.3160   -1.1740   -1.1330 oh        1 SHB     -0.578800
      5 C5          0.6250    0.3090    0.7830 c3        1 SHB      0.077100
      6 C6          2.0900    0.5960    0.5350 c         1 SHB      0.637100
      7 O6A         2.7170    1.6180    0.7980 o         1 SHB     -0.500000
      8 O6B         2.7660   -0.4640   -0.0090 os        1 SHB     -0.457900
      9 CH3         4.1640   -0.2790   -0.2470 c3        1 SHB      0.126700
     10 O5         -0.0870    1.3690    0.1480 os        1 SHB     -0.424600
     11 C4          0.1650   -1.0690    0.2680 c3        1 SHB      0.130100
     12 O3         -1.7670   -2.4710    0.1440 oh        1 SHB     -0.579800
     13 O2         -3.4420   -0.1540    0.2560 oh        1 SHB     -0.602800
     14 O7         -1.9590    2.3500   -0.4700 oh        1 SHB     -0.591800
     15 H1         -1.7880    1.5420    1.3930 h2        1 SHB      0.086700
     16 H2         -1.9750   -0.1670   -1.2380 h1        1 SHB      0.083700
     17 H3         -1.4930   -1.1230    1.6960 h1        1 SHB      0.048700
     18 HO4         1.2530   -1.3430   -1.3050 ho        1 SHB      0.422000
     19 H5          0.4610    0.3660    1.8990 h1        1 SHB      0.077700
     20 HH3         4.4870   -1.2550   -0.6860 h1        1 SHB      0.056033
     21 HH3A        4.3180    0.5660   -0.9610 h1        1 SHB      0.056033
     22 HH3B        4.6870   -0.0690    0.7170 h1        1 SHB      0.056033
     23 H4          0.7410   -1.8790    0.7930 h1        1 SHB      0.073700
     24 HO3        -2.7330   -2.4360    0.0970 ho        1 SHB      0.425000
     25 HO2        -3.8930    0.6040   -0.1400 ho        1 SHB      0.424000
     26 H12        -1.4320    2.3640   -1.2830 ho        1 SHB      0.433000
@<TRIPOS>BOND
     1    1    2 1   
     2    1   10 1   
     3    1   14 1   
     4    1   15 1   
     5    2    3 1   
     6    2   13 1   
     7    2   16 1   
     8    3   11 1   
     9    3   12 1   
    10    3   17 1   
    11    4   11 1   
    12    4   18 1   
    13    5    6 1   
    14    5   10 1   
    15    5   11 1   
    16    5   19 1   
    17    6    7 2   
    18    6    8 1   
    19    8    9 1   
    20    9   20 1   
    21    9   21 1   
    22    9   22 1   
    23   11   23 1   
    24   12   24 1   
    25   13   25 1   
    26   14   26 1   
@<TRIPOS>SUBSTRUCTURE
     1 SHB         1 TEMP              0 ****  ****    0 ROOT
