@<TRIPOS>MOLECULE
SHB
   26    26     1     0     0
SMALL
bcc


@<TRIPOS>ATOM
      1 C1         -0.4920   -0.6150   -2.0070 c3        1 SHB      0.305900
      2 C2          0.5430   -1.3430   -1.5090 c3        1 SHB      0.045100
      3 C3          1.6120   -0.8120   -0.7410 c3        1 SHB      0.117100
      4 O4          1.4360    1.4350   -0.3090 oh        1 SHB     -0.600800
      5 C5         -0.5410    0.1430    0.5270 c3        1 SHB      0.101100
      6 C6         -0.9640    0.9820    1.3770 c         1 SHB      0.637100
      7 O6A        -1.0270    2.1270    1.0950 o         1 SHB     -0.566000
      8 O6B        -1.3480    0.5560    2.6580 os        1 SHB     -0.416900
      9 CH3        -2.1580    1.5480    3.3940 c3        1 SHB      0.125700
     10 O5         -0.9680    0.4450   -1.0080 os        1 SHB     -0.418600
     11 C4          1.1460    0.2180    0.2030 c3        1 SHB      0.134100
     12 O3          2.6220   -0.1970   -1.6680 oh        1 SHB     -0.609800
     13 O2         -0.1420   -2.5170   -0.5680 oh        1 SHB     -0.601800
     14 O7         -0.0630    0.0410   -3.2190 oh        1 SHB     -0.611800
     15 H1         -1.2200   -1.2040   -2.2100 h2        1 SHB      0.114700
     16 H2          0.9470   -1.7890   -2.2650 h1        1 SHB      0.088700
     17 H3          2.0400   -1.5440   -0.2360 h1        1 SHB      0.065700
     18 HO4         1.9850    1.8570    0.2320 ho        1 SHB      0.440000
     19 H5         -0.8730   -0.7590    0.9010 h1        1 SHB      0.118700
     20 HH3        -1.5320    2.2770    3.7970 h1        1 SHB      0.054700
     21 HH3A       -2.7950    1.9690    2.7790 h1        1 SHB      0.054700
     22 HH3B       -2.6280    1.1190    4.0880 h1        1 SHB      0.054700
     23 H4          1.6260    0.1110    1.0390 h1        1 SHB      0.063700
     24 HO3         3.4340   -0.5550   -1.5090 ho        1 SHB      0.439000
     25 HO2         0.0200   -3.3680   -0.9550 ho        1 SHB      0.427000
     26 H12        -0.6600   -0.1260   -3.8840 ho        1 SHB      0.437000
@<TRIPOS>BOND
     1    1    2 1   
     2    1   10 1   
     3    1   14 1   
     4    1   15 1   
     5    2    3 1   
     6    2   13 1   
     7    2   16 1   
     8    3   11 1   
     9    3   12 1   
    10    3   17 1   
    11    4   11 1   
    12    4   18 1   
    13    5    6 1   
    14    5   10 1   
    15    5   11 1   
    16    5   19 1   
    17    6    7 2   
    18    6    8 1   
    19    8    9 1   
    20    9   20 1   
    21    9   21 1   
    22    9   22 1   
    23   11   23 1   
    24   12   24 1   
    25   13   25 1   
    26   14   26 1   
@<TRIPOS>SUBSTRUCTURE
     1 SHB         1 TEMP              0 ****  ****    0 ROOT
