@<TRIPOS>MOLECULE
SHC
   31    30     1     0     0
SMALL
bcc


@<TRIPOS>ATOM
      1 N          -1.7620   -0.2330   -3.4850 n3        1 SHC     -0.883800
      2 CA         -0.4710    0.2570   -3.0220 c3        1 SHC      0.022500
      3 CB          0.0450   -0.4600   -1.7860 c3        1 SHC      0.031700
      4 SG         -0.9350   -0.0460   -0.3570 ss        1 SHC     -0.347200
      5 C1          0.2200   -0.3700    0.9430 c3        1 SHC     -0.016300
      6 C2         -0.4220    0.0110    2.2520 c3        1 SHC     -0.065400
      7 C3          0.5110   -0.2500    3.4170 c3        1 SHC     -0.079400
      8 C4         -0.1330    0.1330    4.7320 c3        1 SHC     -0.078400
      9 C5          0.7970   -0.1260    5.8980 c3        1 SHC     -0.080400
     10 C6          0.1620    0.2540    7.2100 c3        1 SHC     -0.091100
     11 C           0.6650    0.2120   -4.1100 c         1 SHC      0.890600
     12 OXT         1.8400    0.4780   -3.7370 o         1 SHC     -0.836800
     13 O           0.3300   -0.0670   -5.2950 o         1 SHC     -0.836800
     14 H          -1.7110   -1.2310   -3.5860 hn        1 SHC      0.332300
     15 H2         -1.9020    0.1380   -4.4120 hn        1 SHC      0.332300
     16 HA         -0.6140    1.3480   -2.7690 h1        1 SHC      0.059700
     17 HB2         1.1050   -0.1370   -1.6230 h1        1 SHC      0.068200
     18 HB3         0.0340   -1.5670   -1.9240 h1        1 SHC      0.068200
     19 H11         1.1570    0.2180    0.7800 h1        1 SHC      0.051200
     20 H12         0.5030   -1.4500    0.9460 h1        1 SHC      0.051200
     21 H21        -1.3700   -0.5740    2.3920 hc        1 SHC      0.048700
     22 H22        -0.7030    1.0980    2.2320 hc        1 SHC      0.048700
     23 H31         1.4580    0.3340    3.2760 hc        1 SHC      0.037700
     24 H32         0.7920   -1.3360    3.4370 hc        1 SHC      0.037700
     25 H41        -1.0810   -0.4500    4.8710 hc        1 SHC      0.038700
     26 H42        -0.4130    1.2190    4.7100 hc        1 SHC      0.038700
     27 H51         1.7460    0.4570    5.7560 hc        1 SHC      0.037200
     28 H52         1.0790   -1.2120    5.9160 hc        1 SHC      0.037200
     29 H61         0.8630    0.0550    8.0560 hc        1 SHC      0.028367
     30 H62        -0.1030    1.3390    7.2190 hc        1 SHC      0.028367
     31 H63        -0.7720   -0.3350    7.3800 hc        1 SHC      0.028367
@<TRIPOS>BOND
     1    1    2 1   
     2    1   14 1   
     3    1   15 1   
     4    2    3 1   
     5    2   11 1   
     6    2   16 1   
     7    3    4 1   
     8    3   17 1   
     9    3   18 1   
    10    4    5 1   
    11    5    6 1   
    12    5   19 1   
    13    5   20 1   
    14    6    7 1   
    15    6   21 1   
    16    6   22 1   
    17    7    8 1   
    18    7   23 1   
    19    7   24 1   
    20    8    9 1   
    21    8   25 1   
    22    8   26 1   
    23    9   10 1   
    24    9   27 1   
    25    9   28 1   
    26   10   29 1   
    27   10   30 1   
    28   10   31 1   
    29   11   12 1   
    30   11   13 1   
@<TRIPOS>SUBSTRUCTURE
     1 SHC         1 TEMP              0 ****  ****    0 ROOT
