@<TRIPOS>MOLECULE
SHD
   24    24     1     0     0
SMALL
bcc


@<TRIPOS>ATOM
      1 C1          0.1960    0.2030   -0.1110 c3        1 SHD      0.314900
      2 C2          1.6980   -0.0740    0.0940 c3        1 SHD      0.092100
      3 C3          2.2190    0.2080    1.5140 c3        1 SHD      0.115100
      4 C4          1.5090    1.4060    2.1670 c3        1 SHD      0.130100
      5 C5         -0.0110    1.2220    2.0480 c3        1 SHD      0.104100
      6 C6         -0.7700    2.3820    2.6930 c3        1 SHD      0.130400
      7 O1          2.4700    0.7470   -0.7690 oh        1 SHD     -0.589800
      8 O2          1.9880   -0.9000    2.3700 oh        1 SHD     -0.601800
      9 O3          1.9110    1.5560    3.5100 oh        1 SHD     -0.587800
     10 O4         -0.3740    1.2330    0.6630 os        1 SHD     -0.436600
     11 O5         -1.9850    1.8470    3.1950 oh        1 SHD     -0.602800
     12 H11        -0.0120    0.5150   -1.1780 h2        1 SHD      0.067700
     13 O6         -0.5050   -0.9770    0.2110 oh        1 SHD     -0.630800
     14 H2          1.8770   -1.1610   -0.1530 h1        1 SHD      0.059700
     15 H4          1.8340    2.3530    1.6520 h1        1 SHD      0.098700
     16 H5         -0.3190    0.2410    2.5070 h1        1 SHD      0.086700
     17 H16        -0.9760    3.1830    1.9340 h1        1 SHD      0.048700
     18 H26        -0.1600    2.7990    3.5390 h1        1 SHD      0.048700
     19 HO3         2.4270   -1.6650    1.9790 ho        1 SHD      0.415000
     20 HO4         1.7210    0.7230    3.9650 ho        1 SHD      0.421000
     21 HO6        -2.5170    2.5970    3.4840 ho        1 SHD      0.403000
     22 H111        3.3250    0.4180    1.4580 h1        1 SHD      0.072700
     23 H12         2.1940    0.5470   -1.6720 ho        1 SHD      0.409000
     24 H121       -1.4220   -0.7330    0.3960 ho        1 SHD      0.432000
@<TRIPOS>BOND
     1    1    2 1   
     2    1   10 1   
     3    1   12 1   
     4    1   13 1   
     5    2    3 1   
     6    2    7 1   
     7    2   14 1   
     8    3    4 1   
     9    3    8 1   
    10    3   22 1   
    11    4    5 1   
    12    4    9 1   
    13    4   15 1   
    14    5    6 1   
    15    5   10 1   
    16    5   16 1   
    17    6   11 1   
    18    6   17 1   
    19    6   18 1   
    20    7   23 1   
    21    8   19 1   
    22    9   20 1   
    23   11   21 1   
    24   13   24 1   
@<TRIPOS>SUBSTRUCTURE
     1 SHD         1 TEMP              0 ****  ****    0 ROOT
