@<TRIPOS>MOLECULE
SHD
   24    24     1     0     0
SMALL
bcc


@<TRIPOS>ATOM
      1 C1         -0.7840    0.2570   -1.3590 c3        1 SHD      0.310900
      2 C2          0.7290    0.2570   -1.3590 c3        1 SHD      0.051100
      3 C3          1.2930    0.2570    0.0130 c3        1 SHD      0.114100
      4 C4          0.7160   -0.8280    0.8600 c3        1 SHD      0.123100
      5 C5         -0.8030   -0.8250    0.8490 c3        1 SHD      0.151100
      6 C6         -1.2890    0.3900    1.5720 c3        1 SHD      0.098400
      7 O1          1.1950    1.4310   -2.0530 oh        1 SHD     -0.604800
      8 O2          2.7300    0.0740   -0.0700 oh        1 SHD     -0.606800
      9 O3          1.1800   -2.0930    0.3710 oh        1 SHD     -0.594800
     10 O4         -1.3530   -0.8200   -0.5070 os        1 SHD     -0.436600
     11 O5         -2.6600    0.2440    1.8680 oh        1 SHD     -0.596800
     12 H11        -1.0990    1.1200   -1.0280 h2        1 SHD      0.078700
     13 O6         -1.2310    0.0860   -2.6540 oh        1 SHD     -0.599800
     14 H2          1.0460   -0.5370   -1.8310 h1        1 SHD      0.072700
     15 H4          1.0260   -0.7100    1.7780 h1        1 SHD      0.077700
     16 H5         -1.1230   -1.6200    1.3160 h1        1 SHD      0.115700
     17 H16        -1.1600    1.1780    1.0090 h1        1 SHD      0.035200
     18 H26        -0.7870    0.4980    2.4020 h1        1 SHD      0.035200
     19 HO3         3.1390    0.7490    0.3370 ho        1 SHD      0.429000
     20 HO4         1.4800   -2.5810    1.0500 ho        1 SHD      0.425000
     21 HO6        -2.8860    0.8090    2.5140 ho        1 SHD      0.409000
     22 H111        1.1060    1.1190    0.4320 h1        1 SHD      0.056700
     23 H12         1.6080    1.1880   -2.8010 ho        1 SHD      0.424000
     24 H121       -2.0740    0.3550   -2.7140 ho        1 SHD      0.431000
@<TRIPOS>BOND
     1    1    2 1   
     2    1   10 1   
     3    1   12 1   
     4    1   13 1   
     5    2    3 1   
     6    2    7 1   
     7    2   14 1   
     8    3    4 1   
     9    3    8 1   
    10    3   22 1   
    11    4    5 1   
    12    4    9 1   
    13    4   15 1   
    14    5    6 1   
    15    5   10 1   
    16    5   16 1   
    17    6   11 1   
    18    6   17 1   
    19    6   18 1   
    20    7   23 1   
    21    8   19 1   
    22    9   20 1   
    23   11   21 1   
    24   13   24 1   
@<TRIPOS>SUBSTRUCTURE
     1 SHD         1 TEMP              0 ****  ****    0 ROOT
