@<TRIPOS>MOLECULE
SHD
   24    24     1     0     0
SMALL
bcc


@<TRIPOS>ATOM
      1 C1         -0.8020    1.4170    0.0250 c3        1 SHD      0.299900
      2 C2         -1.8130    0.3570   -0.4580 c3        1 SHD      0.095100
      3 C3         -1.3310   -1.0730   -0.1730 c3        1 SHD      0.117100
      4 C4          0.1460   -1.2440   -0.5630 c3        1 SHD      0.093100
      5 C5          1.0080   -0.1590    0.0950 c3        1 SHD      0.067100
      6 C6          2.4580   -0.2390   -0.3930 c3        1 SHD      0.140400
      7 O1         -1.9970    0.4550   -1.8580 oh        1 SHD     -0.578800
      8 O2         -1.5340   -1.4180    1.1830 oh        1 SHD     -0.597800
      9 O3          0.6150   -2.5270   -0.2050 oh        1 SHD     -0.585800
     10 O4          0.5520    1.1490   -0.2640 os        1 SHD     -0.447600
     11 O5          3.2890    0.6370    0.3360 oh        1 SHD     -0.595800
     12 H11        -0.9970    2.4190   -0.4550 h2        1 SHD      0.073700
     13 O6         -0.8960    1.4770    1.4310 oh        1 SHD     -0.637800
     14 H2         -2.7870    0.5300    0.0830 h1        1 SHD      0.073700
     15 H4          0.2450   -1.1890   -1.6830 h1        1 SHD      0.103700
     16 H5          0.9700   -0.2580    1.2160 h1        1 SHD      0.057700
     17 H16         2.8540   -1.2700   -0.1920 h1        1 SHD      0.066700
     18 H26         2.5040   -0.0090   -1.4900 h1        1 SHD      0.066700
     19 HO3        -1.1940   -0.6950    1.7300 ho        1 SHD      0.421000
     20 HO4         0.3080   -2.7070    0.6950 ho        1 SHD      0.416000
     21 HO6         2.9740    1.5330    0.1640 ho        1 SHD      0.407000
     22 H111       -1.9570   -1.8100   -0.7520 h1        1 SHD      0.108700
     23 H12        -2.3940    1.3180   -2.0300 ho        1 SHD      0.409000
     24 H121       -0.1980    2.0660    1.7460 ho        1 SHD      0.429000
@<TRIPOS>BOND
     1    1    2 1   
     2    1   10 1   
     3    1   12 1   
     4    1   13 1   
     5    2    3 1   
     6    2    7 1   
     7    2   14 1   
     8    3    4 1   
     9    3    8 1   
    10    3   22 1   
    11    4    5 1   
    12    4    9 1   
    13    4   15 1   
    14    5    6 1   
    15    5   10 1   
    16    5   16 1   
    17    6   11 1   
    18    6   17 1   
    19    6   18 1   
    20    7   23 1   
    21    8   19 1   
    22    9   20 1   
    23   11   21 1   
    24   13   24 1   
@<TRIPOS>SUBSTRUCTURE
     1 SHD         1 TEMP              0 ****  ****    0 ROOT
