@<TRIPOS>MOLECULE
SHD
   24    24     1     0     0
SMALL
bcc


@<TRIPOS>ATOM
      1 C1          0.2350    0.2140   -0.1330 c3        1 SHD      0.314900
      2 C2          1.7350   -0.0580    0.1010 c3        1 SHD      0.092100
      3 C3          2.2230    0.2090    1.5350 c3        1 SHD      0.115100
      4 C4          1.4940    1.3960    2.1870 c3        1 SHD      0.130100
      5 C5         -0.0230    1.2060    2.0330 c3        1 SHD      0.104100
      6 C6         -0.8020    2.3540    2.6750 c3        1 SHD      0.130400
      7 O1          2.5200    0.7780   -0.7350 oh        1 SHD     -0.589800
      8 O2          1.9790   -0.9100    2.3730 oh        1 SHD     -0.601800
      9 O3          1.8650    1.5320    3.5400 oh        1 SHD     -0.587800
     10 O4         -0.3570    1.2320    0.6410 os        1 SHD     -0.436600
     11 O5         -2.0240    1.8080    3.1440 oh        1 SHD     -0.602800
     12 H11         0.0480    0.5370   -1.2000 h2        1 SHD      0.067700
     13 O6         -0.4660   -0.9730    0.1600 oh        1 SHD     -0.630800
     14 H2          1.9250   -1.1400   -0.1560 h1        1 SHD      0.059700
     15 H4          1.8240    2.3500    1.6900 h1        1 SHD      0.098700
     16 H5         -0.3360    0.2180    2.4740 h1        1 SHD      0.086700
     17 H16        -0.2120    2.7650    3.5390 h1        1 SHD      0.048700
     18 H26        -0.9950    3.1630    1.9220 h1        1 SHD      0.048700
     19 HO3         2.4300   -1.6680    1.9810 ho        1 SHD      0.415000
     20 HO4         1.6700    0.6930    3.9800 ho        1 SHD      0.421000
     21 HO6        -2.5660    2.5520    3.4310 ho        1 SHD      0.403000
     22 H111        3.3290    0.4250    1.5050 h1        1 SHD      0.072700
     23 H12         2.2650    0.5880   -1.6470 ho        1 SHD      0.409000
     24 H121       -1.3880   -0.7360    0.3290 ho        1 SHD      0.432000
@<TRIPOS>BOND
     1    1    2 1   
     2    1   10 1   
     3    1   12 1   
     4    1   13 1   
     5    2    3 1   
     6    2    7 1   
     7    2   14 1   
     8    3    4 1   
     9    3    8 1   
    10    3   22 1   
    11    4    5 1   
    12    4    9 1   
    13    4   15 1   
    14    5    6 1   
    15    5   10 1   
    16    5   16 1   
    17    6   11 1   
    18    6   17 1   
    19    6   18 1   
    20    7   23 1   
    21    8   19 1   
    22    9   20 1   
    23   11   21 1   
    24   13   24 1   
@<TRIPOS>SUBSTRUCTURE
     1 SHD         1 TEMP              0 ****  ****    0 ROOT
