@<TRIPOS>MOLECULE
SHF
   15    14     1     0     0
SMALL
bcc


@<TRIPOS>ATOM
      1 C4          0.0530    0.6520   -0.1250 c         1 SHF      0.572100
      2 C5          0.9350   -0.5470    0.0530 c3        1 SHF     -0.203100
      3 C3         -0.9770    0.8870    0.9340 c3        1 SHF     -0.173400
      4 C2         -1.9040   -0.2880    1.1420 c3        1 SHF     -0.194400
      5 C1         -2.4960   -0.2910    2.5670 c         1 SHF      0.909600
      6 O4          0.2040    1.4100   -1.0960 o         1 SHF     -0.593100
      7 O1         -1.7720    0.1200    3.5200 o         1 SHF     -0.845800
      8 OH1        -3.6700   -0.7350    2.7070 o         1 SHF     -0.845800
      9 H51         0.4360   -1.4360   -0.4050 hc        1 SHF      0.055033
     10 H52         1.9190   -0.3930   -0.4500 hc        1 SHF      0.055033
     11 H53         1.0970   -0.7510    1.1380 hc        1 SHF      0.055033
     12 H31        -0.4440    1.0880    1.9090 hc        1 SHF      0.077700
     13 H32        -1.5750    1.8020    0.6820 hc        1 SHF      0.077700
     14 H21        -2.7370   -0.2660    0.3970 hc        1 SHF      0.026700
     15 H22        -1.3530   -1.2540    1.0160 hc        1 SHF      0.026700
@<TRIPOS>BOND
     1    1    2 1   
     2    1    3 1   
     3    1    6 2   
     4    2    9 1   
     5    2   10 1   
     6    2   11 1   
     7    3    4 1   
     8    3   12 1   
     9    3   13 1   
    10    4    5 1   
    11    4   14 1   
    12    4   15 1   
    13    5    7 1   
    14    5    8 1   
@<TRIPOS>SUBSTRUCTURE
     1 SHF         1 TEMP              0 ****  ****    0 ROOT
