@<TRIPOS>MOLECULE
SHF
   15    13     1     0     0
SMALL
bcc


@<TRIPOS>ATOM
      1 C4          0.7490    0.2090   -0.9870 c1        1 SHF      0.233000
      2 C5          2.2520    0.3830   -0.9910 c2        1 SHF     -0.271000
      3 C3         -0.0170    0.2730    0.3160 c3        1 SHF     -0.202000
      4 C2         -1.3350   -0.4540    0.1620 c3        1 SHF     -0.223000
      5 C1         -2.0660   -0.4570    1.4870 c2        1 SHF      0.329000
      6 O4          0.1570    0.0170   -2.0310 o         1 SHF     -0.354000
      7 O1         -1.9440   -1.4340    2.2710 o         1 SHF     -0.580500
      8 OH1        -2.7990    0.5170    1.8040 o         1 SHF     -0.580500
      9 H51         2.4870    1.1970   -0.4980 ha        1 SHF      0.094333
     10 H52         2.6720   -0.3920   -0.5620 ha        1 SHF      0.094333
     11 H53         2.5700    0.4580   -1.9150 ha        1 SHF      0.094333
     12 H31        -0.1850    1.2070    0.5500 hc        1 SHF      0.117000
     13 H32         0.5080   -0.1510    1.0240 hc        1 SHF      0.117000
     14 H21        -1.8810    0.0000   -0.5100 hc        1 SHF      0.066000
     15 H22        -1.1690   -1.3750   -0.1200 hc        1 SHF      0.066000
@<TRIPOS>BOND
     1    1    3 1   
     2    1    6 1   
     3    2    9 1   
     4    2   10 1   
     5    2   11 1   
     6    3    4 1   
     7    3   12 1   
     8    3   13 1   
     9    4    5 1   
    10    4   14 1   
    11    4   15 1   
    12    5    7 1   
    13    5    8 1   
@<TRIPOS>SUBSTRUCTURE
     1 SHF         1 TEMP              0 ****  ****    0 ROOT
