@<TRIPOS>MOLECULE
SHF
   15    14     1     0     0
SMALL
bcc


@<TRIPOS>ATOM
      1 C4         -2.0590   -0.0410   -0.6860 c         1 SHF      0.572100
      2 C5         -2.6550    0.5440    0.5590 c3        1 SHF     -0.203100
      3 C3         -0.5930    0.1770   -0.8910 c3        1 SHF     -0.173400
      4 C2          0.2560   -0.3220    0.2540 c3        1 SHF     -0.194400
      5 C1          1.5980    0.4340    0.3300 c         1 SHF      0.909600
      6 O4         -2.7690   -0.6500   -1.5010 o         1 SHF     -0.593100
      7 O1          1.6170    1.6590    0.0150 o         1 SHF     -0.845800
      8 OH1         2.6070   -0.2110    0.7330 o         1 SHF     -0.845800
      9 H51        -2.1170    1.4800    0.8440 hc        1 SHF      0.055033
     10 H52        -3.7390    0.7650    0.4140 hc        1 SHF      0.055033
     11 H53        -2.5500   -0.1930    1.3930 hc        1 SHF      0.055033
     12 H31        -0.2690   -0.3140   -1.8460 hc        1 SHF      0.077700
     13 H32        -0.4120    1.2860   -1.0030 hc        1 SHF      0.077700
     14 H21        -0.2640   -0.1600    1.2330 hc        1 SHF      0.026700
     15 H22         0.4550   -1.4160    0.1460 hc        1 SHF      0.026700
@<TRIPOS>BOND
     1    1    2 1   
     2    1    3 1   
     3    1    6 2   
     4    2    9 1   
     5    2   10 1   
     6    2   11 1   
     7    3    4 1   
     8    3   12 1   
     9    3   13 1   
    10    4    5 1   
    11    4   14 1   
    12    4   15 1   
    13    5    7 1   
    14    5    8 1   
@<TRIPOS>SUBSTRUCTURE
     1 SHF         1 TEMP              0 ****  ****    0 ROOT
