@<TRIPOS>MOLECULE
SHF
   15    14     1     0     0
SMALL
bcc


@<TRIPOS>ATOM
      1 C4          0.1460    0.7330    0.0180 c         1 SHF      0.572100
      2 C5          0.9480   -0.5320    0.0700 c3        1 SHF     -0.203100
      3 C3         -0.9270    0.8870    1.0490 c3        1 SHF     -0.173400
      4 C2         -1.9290   -0.2440    1.0480 c3        1 SHF     -0.194400
      5 C1         -2.5980   -0.4040    2.4290 c         1 SHF      0.909600
      6 O4          0.3940    1.6040   -0.8300 o         1 SHF     -0.593100
      7 O1         -1.9070   -0.1710    3.4630 o         1 SHF     -0.845800
      8 OH1        -3.8010   -0.7870    2.4500 o         1 SHF     -0.845800
      9 H51         0.4260   -1.3180   -0.5290 hc        1 SHF      0.055033
     10 H52         1.9660   -0.3750   -0.3580 hc        1 SHF      0.055033
     11 H53         1.0380   -0.8920    1.1240 hc        1 SHF      0.055033
     12 H31        -0.4390    0.9200    2.0670 hc        1 SHF      0.077700
     13 H32        -1.4580    1.8630    0.8980 hc        1 SHF      0.077700
     14 H21        -2.7160   -0.0690    0.2750 hc        1 SHF      0.026700
     15 H22        -1.4270   -1.2180    0.8160 hc        1 SHF      0.026700
@<TRIPOS>BOND
     1    1    2 1   
     2    1    3 1   
     3    1    6 2   
     4    2    9 1   
     5    2   10 1   
     6    2   11 1   
     7    3    4 1   
     8    3   12 1   
     9    3   13 1   
    10    4    5 1   
    11    4   14 1   
    12    4   15 1   
    13    5    7 1   
    14    5    8 1   
@<TRIPOS>SUBSTRUCTURE
     1 SHF         1 TEMP              0 ****  ****    0 ROOT
