@<TRIPOS>MOLECULE
SHG
   23    23     1     0     0
SMALL
bcc


@<TRIPOS>ATOM
      1 C1         -0.6450    0.1820   -1.5780 c3        1 SHG      0.319900
      2 C2          0.8670    0.1820   -1.5780 c3        1 SHG      0.121600
      3 C3          1.4300    0.1820   -0.2070 c3        1 SHG      0.090100
      4 C4          0.8540   -0.9030    0.6400 c3        1 SHG      0.121100
      5 C5         -0.6630   -0.9000    0.6290 c3        1 SHG      0.153100
      6 C6         -1.1490    0.3170    1.3530 c3        1 SHG      0.091400
      7 O1         -1.0920    1.4040   -1.1120 oh        1 SHG     -0.644800
      8 O3          1.1490    1.4630    0.4160 oh        1 SHG     -0.593800
      9 O4          1.3180   -2.1690    0.1510 oh        1 SHG     -0.577800
     10 O5         -1.2140   -0.8950   -0.7270 os        1 SHG     -0.405600
     11 O6         -2.5580    0.2710    1.4580 oh        1 SHG     -0.598800
     12 F2          1.3110   -0.9380   -2.2410 f         1 SHG     -0.228300
     13 H1         -0.9600    0.0590   -2.4940 h2        1 SHG      0.090700
     14 H2          1.1830    0.9760   -2.0500 h1        1 SHG      0.074700
     15 H3          2.3970    0.0610   -0.2610 h1        1 SHG      0.050700
     16 H4          1.1640   -0.7860    1.5580 h1        1 SHG      0.061700
     17 H5         -0.9830   -1.6940    1.0970 h1        1 SHG      0.108700
     18 H6         -0.8850    1.1170    0.8600 h1        1 SHG      0.048200
     19 H6A        -0.7580    0.3410    2.2470 h1        1 SHG      0.048200
     20 HO3         1.9090    1.9030    0.5450 ho        1 SHG      0.413000
     21 HO4         1.6980   -2.6210    0.8140 ho        1 SHG      0.405000
     22 HO6        -2.8100    0.6400    2.2250 ho        1 SHG      0.404000
     23 H11        -1.5640    1.8080   -1.7460 ho        1 SHG      0.446000
@<TRIPOS>BOND
     1    1    2 1   
     2    1    7 1   
     3    1   10 1   
     4    1   13 1   
     5    2    3 1   
     6    2   12 1   
     7    2   14 1   
     8    3    4 1   
     9    3    8 1   
    10    3   15 1   
    11    4    5 1   
    12    4    9 1   
    13    4   16 1   
    14    5    6 1   
    15    5   10 1   
    16    5   17 1   
    17    6   11 1   
    18    6   18 1   
    19    6   19 1   
    20    7   23 1   
    21    8   20 1   
    22    9   21 1   
    23   11   22 1   
@<TRIPOS>SUBSTRUCTURE
     1 SHG         1 TEMP              0 ****  ****    0 ROOT
