@<TRIPOS>MOLECULE
SHG
   23    23     1     0     0
SMALL
bcc


@<TRIPOS>ATOM
      1 C1          0.5400    1.4070   -0.2990 c3        1 SHG      0.326900
      2 C2          1.5520    0.3290    0.1730 c3        1 SHG      0.111600
      3 C3          1.0310   -1.0640   -0.2450 c3        1 SHG      0.072100
      4 C4         -0.4090   -1.2650    0.2520 c3        1 SHG      0.126100
      5 C5         -1.2960   -0.1290   -0.2760 c3        1 SHG      0.110100
      6 C6         -2.7110   -0.2230    0.3040 c3        1 SHG      0.139400
      7 O1          0.8430    2.6070    0.3620 oh        1 SHG     -0.586800
      8 O3          1.8040   -2.0890    0.3560 oh        1 SHG     -0.599800
      9 O4         -0.9400   -2.4770   -0.2520 oh        1 SHG     -0.592800
     10 O5         -0.7780    1.1320    0.1520 os        1 SHG     -0.464600
     11 O6         -3.5670    0.7290   -0.2850 oh        1 SHG     -0.591800
     12 F2          2.8000    0.5540   -0.3800 f         1 SHG     -0.228300
     13 H1          0.5650    1.5310   -1.4170 h2        1 SHG      0.056700
     14 H2          1.6430    0.3810    1.2960 h1        1 SHG      0.094700
     15 H3          1.0730   -1.1670   -1.3650 h1        1 SHG      0.064700
     16 H4         -0.4180   -1.2800    1.3780 h1        1 SHG      0.065700
     17 H5         -1.3340   -0.1550   -1.4000 h1        1 SHG      0.072700
     18 H6         -3.1450   -1.2250    0.0410 h1        1 SHG      0.067200
     19 H6A        -2.6770   -0.0900    1.4170 h1        1 SHG      0.067200
     20 HO3         2.7190   -1.9460    0.0820 ho        1 SHG      0.423000
     21 HO4        -0.3300   -3.1760    0.0200 ho        1 SHG      0.427000
     22 HO6        -3.2090    1.6010   -0.0750 ho        1 SHG      0.408000
     23 H11         0.0290    3.1270    0.4240 ho        1 SHG      0.432000
@<TRIPOS>BOND
     1    1    2 1   
     2    1    7 1   
     3    1   10 1   
     4    1   13 1   
     5    2    3 1   
     6    2   12 1   
     7    2   14 1   
     8    3    4 1   
     9    3    8 1   
    10    3   15 1   
    11    4    5 1   
    12    4    9 1   
    13    4   16 1   
    14    5    6 1   
    15    5   10 1   
    16    5   17 1   
    17    6   11 1   
    18    6   18 1   
    19    6   19 1   
    20    7   23 1   
    21    8   20 1   
    22    9   21 1   
    23   11   22 1   
@<TRIPOS>SUBSTRUCTURE
     1 SHG         1 TEMP              0 ****  ****    0 ROOT
