@<TRIPOS>MOLECULE
SHH
   41    41     1     0     0
SMALL
bcc


@<TRIPOS>ATOM
      1 O1          1.0860   -0.3280    0.1720 oh        1 SHH     -0.351300
      2 O2          2.4190    2.2500    1.6660 o         1 SHH     -0.369100
      3 N1          1.6960    0.8590   -0.0430 n4        1 SHH     -0.479300
      4 C1          2.6890    1.2070    1.1080 c         1 SHH      0.553100
      5 C2          3.7860    0.2130    1.3130 c3        1 SHH     -0.143400
      6 C3          4.5880    0.5600    2.5570 c3        1 SHH     -0.084400
      7 C4          5.7300   -0.4210    2.7350 c3        1 SHH     -0.080400
      8 C5          6.5350   -0.0880    3.9760 c3        1 SHH     -0.079400
      9 C6          7.6710   -1.0750    4.1510 c3        1 SHH     -0.083400
     10 C7          8.4750   -0.7570    5.4010 c3        1 SHH     -0.146400
     11 C8          9.5710   -1.7640    5.5800 c         1 SHH      0.551100
     12 O3          9.8600   -2.7150    4.8720 o         1 SHH     -0.402100
     13 N2         10.4440   -1.5960    6.8160 n4        1 SHH     -0.547200
     14 C9         11.4810   -0.5780    6.6170 ca        1 SHH     -0.074400
     15 C10        12.5510   -0.8470    5.7440 ca        1 SHH     -0.103500
     16 C11        13.5530    0.1080    5.5890 ca        1 SHH     -0.100000
     17 C12        13.4980    1.3130    6.2920 ca        1 SHH     -0.063000
     18 C13        12.4320    1.5710    7.1570 ca        1 SHH     -0.100000
     19 C14        11.4170    0.6330    7.3280 ca        1 SHH     -0.103500
     20 HO1         0.3530   -0.2010    0.8180 ho        1 SHH      0.480000
     21 HN1         1.0110    1.6280   -0.1740 hn        1 SHH      0.482300
     22 H21         4.4550    0.2200    0.4070 hc        1 SHH      0.117700
     23 H22         3.3430   -0.8190    1.4050 hc        1 SHH      0.117700
     24 H31         4.9900    1.6050    2.4690 hc        1 SHH      0.074700
     25 H32         3.9180    0.5340    3.4580 hc        1 SHH      0.074700
     26 H41         6.3990   -0.3910    1.8340 hc        1 SHH      0.059700
     27 H42         5.3250   -1.4640    2.8170 hc        1 SHH      0.059700
     28 H51         5.8660   -0.1150    4.8770 hc        1 SHH      0.056700
     29 H52         6.9450    0.9530    3.8930 hc        1 SHH      0.056700
     30 H61         8.3470   -1.0450    3.2540 hc        1 SHH      0.074700
     31 H62         7.2640   -2.1190    4.2230 hc        1 SHH      0.074700
     32 H71         8.9300    0.2690    5.3190 hc        1 SHH      0.104200
     33 H72         7.8030   -0.7690    6.3020 hc        1 SHH      0.104200
     34 HN2         9.8600   -1.3340    7.6180 hn        1 SHH      0.466300
     35 H101       12.6110   -1.7980    5.1870 ha        1 SHH      0.159000
     36 H111       14.3990   -0.1000    4.9100 ha        1 SHH      0.177500
     37 H121       14.3020    2.0600    6.1700 ha        1 SHH      0.179000
     38 H131       12.3940    2.5210    7.7180 ha        1 SHH      0.177500
     39 H141       10.5930    0.8500    8.0270 ha        1 SHH      0.159000
     40 H12         2.2270    0.7350   -0.9290 hn        1 SHH      0.482300
     41 H221       10.9100   -2.4940    7.0210 hn        1 SHH      0.466300
@<TRIPOS>BOND
     1    1    3 1   
     2    1   20 1   
     3    2    4 2   
     4    3    4 1   
     5    3   21 1   
     6    3   40 1   
     7    4    5 1   
     8    5    6 1   
     9    5   22 1   
    10    5   23 1   
    11    6    7 1   
    12    6   24 1   
    13    6   25 1   
    14    7    8 1   
    15    7   26 1   
    16    7   27 1   
    17    8    9 1   
    18    8   28 1   
    19    8   29 1   
    20    9   10 1   
    21    9   30 1   
    22    9   31 1   
    23   10   11 1   
    24   10   32 1   
    25   10   33 1   
    26   11   12 2   
    27   11   13 1   
    28   13   14 1   
    29   13   34 1   
    30   13   41 1   
    31   14   15 ar  
    32   14   19 ar  
    33   15   16 ar  
    34   15   35 1   
    35   16   17 ar  
    36   16   36 1   
    37   17   18 ar  
    38   17   37 1   
    39   18   19 ar  
    40   18   38 1   
    41   19   39 1   
@<TRIPOS>SUBSTRUCTURE
     1 SHH         1 TEMP              0 ****  ****    0 ROOT
