@<TRIPOS>MOLECULE
SHH
   39    39     1     0     0
SMALL
bcc


@<TRIPOS>ATOM
      1 O1          0.1070   -0.3540    8.6820 oh        1 SHH     -0.438100
      2 O2         -1.2980    0.0250    6.4620 o         1 SHH     -0.559100
      3 N1          0.7380    0.0090    7.5630 n         1 SHH     -0.355400
      4 C1         -0.0630   -0.0550    6.3760 c         1 SHH      0.588100
      5 C2          0.6840   -0.0710    5.0620 c3        1 SHH     -0.154400
      6 C3         -0.2710   -0.0250    3.8890 c3        1 SHH     -0.075400
      7 C4          0.4840   -0.0440    2.5780 c3        1 SHH     -0.078400
      8 C5         -0.4690    0.0040    1.4020 c3        1 SHH     -0.079400
      9 C6          0.2860   -0.0180    0.0910 c3        1 SHH     -0.074400
     10 C7         -0.6680    0.0330   -1.0820 c3        1 SHH     -0.153400
     11 C8          0.0930    0.0050   -2.4000 c         1 SHH      0.665100
     12 O3          1.3340   -0.0620   -2.4360 o         1 SHH     -0.588100
     13 N2         -0.6980    0.0580   -3.5420 n         1 SHH     -0.475100
     14 C9         -0.2790    0.0480   -4.8820 ca        1 SHH      0.070600
     15 C10         1.0750   -0.0200   -5.2710 ca        1 SHH     -0.171500
     16 C11         1.4130   -0.0260   -6.6220 ca        1 SHH     -0.103500
     17 C12         0.4320    0.0350   -7.6080 ca        1 SHH     -0.158000
     18 C13        -0.9100    0.1020   -7.2340 ca        1 SHH     -0.103500
     19 C14        -1.2720    0.1090   -5.8930 ca        1 SHH     -0.171500
     20 HO1        -0.5260    0.3660    8.8760 ho        1 SHH      0.435000
     21 HN1         1.5810   -0.5500    7.4940 hn        1 SHH      0.294500
     22 H21         1.3790    0.8100    5.0240 hc        1 SHH      0.070200
     23 H22         1.3090   -1.0020    5.0090 hc        1 SHH      0.070200
     24 H31        -0.9720   -0.8990    3.9430 hc        1 SHH      0.059200
     25 H32        -0.9010    0.9010    3.9580 hc        1 SHH      0.059200
     26 H41         1.1840    0.8320    2.5300 hc        1 SHH      0.042700
     27 H42         1.1110   -0.9720    2.5140 hc        1 SHH      0.042700
     28 H51        -1.1700   -0.8700    1.4520 hc        1 SHH      0.041700
     29 H52        -1.0940    0.9340    1.4640 hc        1 SHH      0.041700
     30 H61         0.9910    0.8530    0.0360 hc        1 SHH      0.060700
     31 H62         0.9130   -0.9470    0.0220 hc        1 SHH      0.060700
     32 H71        -1.3680   -0.8440   -1.0410 hc        1 SHH      0.064700
     33 H72        -1.2850    0.9690   -1.0300 hc        1 SHH      0.064700
     34 HN2        -1.6830    0.1100   -3.4040 hn        1 SHH      0.313500
     35 H101        1.8770   -0.0690   -4.5150 ha        1 SHH      0.149500
     36 H111        2.4750   -0.0790   -6.9070 ha        1 SHH      0.132500
     37 H121        0.7110    0.0290   -8.6710 ha        1 SHH      0.133000
     38 H131       -1.6930    0.1500   -8.0060 ha        1 SHH      0.132500
     39 H141       -2.3380    0.1630   -5.6270 ha        1 SHH      0.149500
@<TRIPOS>BOND
     1    1    3 1   
     2    1   20 1   
     3    2    4 2   
     4    3    4 1   
     5    3   21 1   
     6    4    5 1   
     7    5    6 1   
     8    5   22 1   
     9    5   23 1   
    10    6    7 1   
    11    6   24 1   
    12    6   25 1   
    13    7    8 1   
    14    7   26 1   
    15    7   27 1   
    16    8    9 1   
    17    8   28 1   
    18    8   29 1   
    19    9   10 1   
    20    9   30 1   
    21    9   31 1   
    22   10   11 1   
    23   10   32 1   
    24   10   33 1   
    25   11   12 2   
    26   11   13 1   
    27   13   14 1   
    28   13   34 1   
    29   14   15 ar  
    30   14   19 ar  
    31   15   16 ar  
    32   15   35 1   
    33   16   17 ar  
    34   16   36 1   
    35   17   18 ar  
    36   17   37 1   
    37   18   19 ar  
    38   18   38 1   
    39   19   39 1   
@<TRIPOS>SUBSTRUCTURE
     1 SHH         1 TEMP              0 ****  ****    0 ROOT
