@<TRIPOS>MOLECULE
SHH
   40    40     1     0     0
SMALL
bcc


@<TRIPOS>ATOM
      1 O1          1.7680    0.6400   -0.7800 oh        1 SHH     -0.359300
      2 O2          1.0500   -0.0140    2.3790 o         1 SHH     -0.375100
      3 N1          1.1130   -0.1790    0.0680 n4        1 SHH     -0.491300
      4 C1          1.8450   -0.0950    1.4700 c         1 SHH      0.599100
      5 C2          3.3310   -0.1270    1.3920 c3        1 SHH     -0.138400
      6 C3          3.9380   -0.0800    2.7840 c3        1 SHH     -0.086400
      7 C4          5.4500   -0.1090    2.6820 c3        1 SHH     -0.080400
      8 C5          6.0850   -0.0560    4.0560 c3        1 SHH     -0.079400
      9 C6          7.5930   -0.1000    3.9390 c3        1 SHH     -0.075400
     10 C7          8.2530   -0.0420    5.3000 c3        1 SHH     -0.155400
     11 C8          9.7690   -0.1040    5.1500 c         1 SHH      0.664100
     12 O3         10.2950   -0.2150    4.0270 o         1 SHH     -0.593100
     13 N2         10.4880   -0.0320    6.3300 n         1 SHH     -0.467100
     14 C9         11.8860   -0.0630    6.4910 ca        1 SHH      0.058600
     15 C10        12.7850   -0.2020    5.4140 ca        1 SHH     -0.167000
     16 C11        14.1580   -0.2260    5.6530 ca        1 SHH     -0.103000
     17 C12        14.6630   -0.1150    6.9460 ca        1 SHH     -0.149000
     18 C13        13.7810    0.0230    8.0170 ca        1 SHH     -0.103000
     19 C14        12.4080    0.0490    7.8030 ca        1 SHH     -0.167000
     20 HO1         1.2670    0.7030   -1.6260 ho        1 SHH      0.475000
     21 HN1         0.1240    0.1040    0.1870 hn        1 SHH      0.460300
     22 H21         3.6610   -1.0590    0.8540 hc        1 SHH      0.118700
     23 H22         3.6760    0.7580    0.7820 hc        1 SHH      0.118700
     24 H31         3.5780   -0.9540    3.3880 hc        1 SHH      0.071700
     25 H32         3.6080    0.8540    3.3120 hc        1 SHH      0.071700
     26 H41         5.8070    0.7620    2.0710 hc        1 SHH      0.054700
     27 H42         5.7770   -1.0440    2.1550 hc        1 SHH      0.054700
     28 H51         5.7260   -0.9210    4.6740 hc        1 SHH      0.047200
     29 H52         5.7700    0.8830    4.5830 hc        1 SHH      0.047200
     30 H61         7.9120   -1.0390    3.4130 hc        1 SHH      0.065200
     31 H62         7.9570    0.7600    3.3150 hc        1 SHH      0.065200
     32 H71         7.9680    0.9080    5.8240 hc        1 SHH      0.065700
     33 H72         7.9080   -0.9030    5.9310 hc        1 SHH      0.065700
     34 HN2         9.9660    0.0600    7.1740 hn        1 SHH      0.314500
     35 H101       12.4190   -0.2920    4.3790 ha        1 SHH      0.149000
     36 H111       14.8470   -0.3350    4.8010 ha        1 SHH      0.137000
     37 H121       15.7480   -0.1350    7.1220 ha        1 SHH      0.139000
     38 H131       14.1710    0.1110    9.0420 ha        1 SHH      0.137000
     39 H141       11.7340    0.1590    8.6670 ha        1 SHH      0.149000
     40 H12         1.1490   -1.1550   -0.2700 hn        1 SHH      0.460300
@<TRIPOS>BOND
     1    1    3 1   
     2    1   20 1   
     3    2    4 2   
     4    3    4 1   
     5    3   21 1   
     6    3   40 1   
     7    4    5 1   
     8    5    6 1   
     9    5   22 1   
    10    5   23 1   
    11    6    7 1   
    12    6   24 1   
    13    6   25 1   
    14    7    8 1   
    15    7   26 1   
    16    7   27 1   
    17    8    9 1   
    18    8   28 1   
    19    8   29 1   
    20    9   10 1   
    21    9   30 1   
    22    9   31 1   
    23   10   11 1   
    24   10   32 1   
    25   10   33 1   
    26   11   12 2   
    27   11   13 1   
    28   13   14 1   
    29   13   34 1   
    30   14   15 ar  
    31   14   19 ar  
    32   15   16 ar  
    33   15   35 1   
    34   16   17 ar  
    35   16   36 1   
    36   17   18 ar  
    37   17   37 1   
    38   18   19 ar  
    39   18   38 1   
    40   19   39 1   
@<TRIPOS>SUBSTRUCTURE
     1 SHH         1 TEMP              0 ****  ****    0 ROOT
