@<TRIPOS>MOLECULE
SHH
   40    40     1     0     0
SMALL
bcc


@<TRIPOS>ATOM
      1 O1          1.5220   -1.1410   -0.3920 oh        1 SHH     -0.359300
      2 O2          1.1540    0.8420    2.2260 o         1 SHH     -0.375100
      3 N1          1.1320    0.0760    0.0390 ny        1 SHH     -0.491300
      4 C1          1.8950    0.3670    1.3960 c         1 SHH      0.599100
      5 C2          3.3380    0.0030    1.3810 c3        1 SHH     -0.138400
      6 C3          3.9900    0.3530    2.7080 c3        1 SHH     -0.086400
      7 C4          5.4550   -0.0290    2.6730 c3        1 SHH     -0.080400
      8 C5          6.1310    0.3030    3.9880 c3        1 SHH     -0.079400
      9 C6          7.5970   -0.0720    3.9330 c3        1 SHH     -0.075400
     10 C7          8.2940    0.2440    5.2380 c3        1 SHH     -0.155400
     11 C8          9.7700   -0.1280    5.1470 c         1 SHH      0.664100
     12 O3         10.2460   -0.5950    4.0960 o         1 SHH     -0.593100
     13 N2         10.5120    0.0910    6.2940 ns        1 SHH     -0.467100
     14 C9         11.8830   -0.1600    6.4950 ca        1 SHH      0.058600
     15 C10        12.7290   -0.6770    5.4930 ca        1 SHH     -0.167000
     16 C11        14.0770   -0.8980    5.7670 ca        1 SHH     -0.103000
     17 C12        14.6100   -0.6150    7.0220 ca        1 SHH     -0.149000
     18 C13        13.7800   -0.1020    8.0190 ca        1 SHH     -0.103000
     19 C14        12.4320    0.1260    7.7690 ca        1 SHH     -0.167000
     20 HO1         0.9760   -1.4030   -1.1690 ho        1 SHH      0.475000
     21 HN1         0.1110    0.1110    0.2130 hn        1 SHH      0.460300
     22 H21         3.8550    0.5420    0.5380 hc        1 SHH      0.118700
     23 H22         3.4250   -1.1040    1.1800 hc        1 SHH      0.118700
     24 H31         3.8850    1.4530    2.9070 hc        1 SHH      0.071700
     25 H32         3.4720   -0.1910    3.5420 hc        1 SHH      0.071700
     26 H41         5.9710    0.5180    1.8390 hc        1 SHH      0.054700
     27 H42         5.5570   -1.1270    2.4670 hc        1 SHH      0.054700
     28 H51         5.6270   -0.2510    4.8230 hc        1 SHH      0.047200
     29 H52         6.0270    1.3990    4.2020 hc        1 SHH      0.047200
     30 H61         8.1050    0.4800    3.0990 hc        1 SHH      0.065200
     31 H62         7.7070   -1.1670    3.7110 hc        1 SHH      0.065200
     32 H71         8.2030    1.3390    5.4670 hc        1 SHH      0.065700
     33 H72         7.8160   -0.3260    6.0770 hc        1 SHH      0.065700
     34 HN2        10.0300    0.4660    7.0810 hn        1 SHH      0.314500
     35 H101       12.3400   -0.9120    4.4890 ha        1 SHH      0.149000
     36 H111       14.7250   -1.3020    4.9740 ha        1 SHH      0.137000
     37 H121       15.6750   -0.7930    7.2270 ha        1 SHH      0.139000
     38 H131       14.1910    0.1240    9.0140 ha        1 SHH      0.137000
     39 H141       11.8000    0.5310    8.5740 ha        1 SHH      0.149000
     40 H12         1.3850    0.8040   -0.6500 hn        1 SHH      0.460300
@<TRIPOS>BOND
     1    1    3 1   
     2    1   20 1   
     3    2    4 2   
     4    3    4 1   
     5    3   21 1   
     6    3   40 1   
     7    4    5 1   
     8    5    6 1   
     9    5   22 1   
    10    5   23 1   
    11    6    7 1   
    12    6   24 1   
    13    6   25 1   
    14    7    8 1   
    15    7   26 1   
    16    7   27 1   
    17    8    9 1   
    18    8   28 1   
    19    8   29 1   
    20    9   10 1   
    21    9   30 1   
    22    9   31 1   
    23   10   11 1   
    24   10   32 1   
    25   10   33 1   
    26   11   12 2   
    27   11   13 1   
    28   13   14 1   
    29   13   34 1   
    30   14   15 ar  
    31   14   19 ar  
    32   15   16 ar  
    33   15   35 1   
    34   16   17 ar  
    35   16   36 1   
    36   17   18 ar  
    37   17   37 1   
    38   18   19 ar  
    39   18   38 1   
    40   19   39 1   
@<TRIPOS>SUBSTRUCTURE
     1 SHH         1 TEMP              0 ****  ****    0 ROOT
