@<TRIPOS>MOLECULE
SHI
   20    20     1     0     0
SMALL
bcc


@<TRIPOS>ATOM
      1 O1          0.3590    0.9340   -0.0780 os        1 SHI     -0.101100
      2 N2          1.2030   -0.0800   -0.0800 nc        1 SHI     -0.411300
      3 C5         -0.1800    1.1260    1.2080 cc        1 SHI      0.274600
      4 C4          0.3580    0.1810    2.0630 cd        1 SHI     -0.324900
      5 C3          1.2550   -0.5810    1.1810 cd        1 SHI      0.507600
      6 O31         1.9800   -1.6580    1.6060 oh        1 SHI     -0.625300
      7 C41         0.1170    0.0500    3.5040 c3        1 SHI     -0.021100
      8 C42         0.6770   -1.2040    4.1440 c3        1 SHI     -0.067500
      9 N1          0.0760   -2.4630    3.6130 nz        1 SHI     -0.828600
     10 C43         0.4470   -1.1410    5.7360 c         1 SHI      0.936600
     11 O41         0.7230   -0.0540    6.2670 o         1 SHI     -0.758300
     12 O42         0.0280   -2.2150    6.2410 o         1 SHI     -0.758300
     13 HC5        -0.8850    1.9480    1.2950 h4        1 SHI      0.077100
     14 H31         2.6500   -1.8700    0.9340 ho        1 SHI      0.458000
     15 H411       -0.9870    0.1300    3.7100 hc        1 SHI      0.099700
     16 H412        0.6050    0.9100    4.0560 hc        1 SHI      0.099700
     17 HC42        1.7890   -1.2650    3.9760 hx        1 SHI      0.102700
     18 HN11        0.6760   -2.8870    2.9090 hn        1 SHI      0.446467
     19 HN12       -0.8420   -2.2780    3.2140 hn        1 SHI      0.446467
     20 H13        -0.0350   -3.0970    4.4360 hn        1 SHI      0.446467
@<TRIPOS>BOND
     1    1    2 1   
     2    1    3 1   
     3    2    5 2   
     4    3    4 2   
     5    3   13 1   
     6    4    5 1   
     7    4    7 1   
     8    5    6 1   
     9    6   14 1   
    10    7    8 1   
    11    7   15 1   
    12    7   16 1   
    13    8    9 1   
    14    8   10 1   
    15    8   17 1   
    16    9   18 1   
    17    9   19 1   
    18    9   20 1   
    19   10   11 1   
    20   10   12 1   
@<TRIPOS>SUBSTRUCTURE
     1 SHI         1 TEMP              0 ****  ****    0 ROOT
