@<TRIPOS>MOLECULE
SHI
   20    20     1     0     0
SMALL
bcc


@<TRIPOS>ATOM
      1 O1          0.5350    0.8060   -0.1490 os        1 SHI     -0.101100
      2 N2          1.3320   -0.2430   -0.0800 nc        1 SHI     -0.411300
      3 C5         -0.0350    1.0760    1.1090 cc        1 SHI      0.274600
      4 C4          0.4320    0.1460    2.0200 cd        1 SHI     -0.324900
      5 C3          1.3210   -0.6920    1.2010 cd        1 SHI      0.507600
      6 O31         1.9810   -1.7810    1.6940 oh        1 SHI     -0.625300
      7 C41         0.1390    0.0870    3.4560 c3        1 SHI     -0.021100
      8 C42         0.6210   -1.1610    4.1660 c3        1 SHI     -0.067500
      9 N1         -0.0210   -2.4150    3.6670 n4        1 SHI     -0.828600
     10 C43         0.3430   -1.0210    5.7450 c         1 SHI      0.936600
     11 O41         0.6510    0.0750    6.2400 o         1 SHI     -0.758300
     12 O42        -0.1400   -2.0530    6.2800 o         1 SHI     -0.758300
     13 HC5        -0.7030    1.9320    1.1390 h4        1 SHI      0.077100
     14 H31         2.6620   -2.0520    1.0540 ho        1 SHI      0.458000
     15 H411       -0.9660    0.2250    3.6210 hc        1 SHI      0.099700
     16 H412        0.6470    0.9480    3.9890 hc        1 SHI      0.099700
     17 HC42        1.7330   -1.2800    4.0380 hx        1 SHI      0.102700
     18 HN11        0.5820   -2.8940    3.0020 hn        1 SHI      0.446467
     19 HN12       -0.9150   -2.2060    3.2310 hn        1 SHI      0.446467
     20 H13        -0.1860   -3.0080    4.5130 hn        1 SHI      0.446467
@<TRIPOS>BOND
     1    1    2 1   
     2    1    3 1   
     3    2    5 2   
     4    3    4 2   
     5    3   13 1   
     6    4    5 1   
     7    4    7 1   
     8    5    6 1   
     9    6   14 1   
    10    7    8 1   
    11    7   15 1   
    12    7   16 1   
    13    8    9 1   
    14    8   10 1   
    15    8   17 1   
    16    9   18 1   
    17    9   19 1   
    18    9   20 1   
    19   10   11 1   
    20   10   12 1   
@<TRIPOS>SUBSTRUCTURE
     1 SHI         1 TEMP              0 ****  ****    0 ROOT
