@<TRIPOS>MOLECULE
SHI
   19    19     1     0     0
SMALL
bcc


@<TRIPOS>ATOM
      1 O1          0.3130   -0.1040   -3.4940 os        1 SHI     -0.158100
      2 N2         -0.9420    0.1610   -3.1400 nc        1 SHI     -0.442300
      3 C5          1.0690   -0.5090   -2.3750 cc        1 SHI      0.238600
      4 C4          0.2550   -0.5070   -1.2680 cd        1 SHI     -0.319900
      5 C3         -1.0500   -0.0610   -1.8050 cd        1 SHI      0.561600
      6 O31        -2.2060    0.1090   -1.1250 oh        1 SHI     -0.616300
      7 C41         0.5310   -0.8650    0.1270 c3        1 SHI     -0.003100
      8 C42         0.4670    0.3570    1.0630 c3        1 SHI      0.017500
      9 N1          1.7670    0.7080    1.6170 n3        1 SHI     -0.883800
     10 C43        -0.6440    0.1040    2.1330 c         1 SHI      0.886600
     11 O41        -0.3500    0.2280    3.3510 o         1 SHI     -0.835800
     12 O42        -1.7980   -0.2030    1.7060 o         1 SHI     -0.835800
     13 HC5         2.1090   -0.7320   -2.5780 h4        1 SHI      0.047100
     14 H31        -2.0090   -0.0250   -0.1600 ho        1 SHI      0.506000
     15 H411        1.5300   -1.3740    0.1890 hc        1 SHI      0.057700
     16 H412       -0.2470   -1.6070    0.4640 hc        1 SHI      0.057700
     17 HC42        0.1200    1.2510    0.4650 h1        1 SHI      0.051700
     18 HN11        1.6210    1.4640    2.2650 hn        1 SHI      0.334300
     19 HN12        2.0990   -0.0690    2.1630 hn        1 SHI      0.334300
@<TRIPOS>BOND
     1    1    2 1   
     2    1    3 1   
     3    2    5 2   
     4    3    4 2   
     5    3   13 1   
     6    4    5 1   
     7    4    7 1   
     8    5    6 1   
     9    6   14 1   
    10    7    8 1   
    11    7   15 1   
    12    7   16 1   
    13    8    9 1   
    14    8   10 1   
    15    8   17 1   
    16    9   18 1   
    17    9   19 1   
    18   10   11 1   
    19   10   12 1   
@<TRIPOS>SUBSTRUCTURE
     1 SHI         1 TEMP              0 ****  ****    0 ROOT
