@<TRIPOS>MOLECULE
SHL
   17    17     1     0     0
SMALL
bcc


@<TRIPOS>ATOM
      1 OAD         0.8350    1.2940    0.3060 o         1 SHL     -0.780300
      2 CAH         1.2790    0.1490    0.0590 c         1 SHL      0.935800
      3 OAA         1.2320   -0.8710    0.7850 o         1 SHL     -0.780300
      4 CAK         1.9500   -0.0360   -1.3300 cc        1 SHL      0.107900
      5 OAG         3.2930    0.2170   -1.2810 os        1 SHL     -0.185200
      6 CAF         4.0300    0.0950   -2.4450 cc        1 SHL      0.050900
      7 CAL         5.4610    0.4030   -2.2310 c3        1 SHL     -0.041900
      8 CAJ         3.4490   -0.2690   -3.6210 cd        1 SHL     -0.097100
      9 OAC         4.2340   -0.3760   -4.7540 oh        1 SHL     -0.517100
     10 CAI         2.0050   -0.5520   -3.7200 c         1 SHL      0.569500
     11 CAE         1.3040   -0.4040   -2.4710 cd        1 SHL     -0.378200
     12 OAB         1.5050   -0.8850   -4.8160 o         1 SHL     -0.643100
     13 H2          5.5810    1.4800   -1.9540 hc        1 SHL      0.053700
     14 H3          5.8680   -0.2220   -1.3980 hc        1 SHL      0.053700
     15 H4          6.0330    0.1950   -3.1680 hc        1 SHL      0.053700
     16 H5          3.6340   -0.6490   -5.4690 ho        1 SHL      0.433000
     17 H6          0.2230   -0.5950   -2.4550 ha        1 SHL      0.165000
@<TRIPOS>BOND
     1    1    2 1   
     2    2    3 1   
     3    2    4 1   
     4    4    5 1   
     5    4   11 2   
     6    5    6 1   
     7    6    7 1   
     8    6    8 2   
     9    7   13 1   
    10    7   14 1   
    11    7   15 1   
    12    8    9 1   
    13    8   10 1   
    14    9   16 1   
    15   10   11 1   
    16   10   12 2   
    17   11   17 1   
@<TRIPOS>SUBSTRUCTURE
     1 SHL         1 TEMP              0 ****  ****    0 ROOT
