@<TRIPOS>MOLECULE
SHL
   17    17     1     0     0
SMALL
bcc


@<TRIPOS>ATOM
      1 OAD         2.9660   -0.0670    1.2810 o         1 SHL     -0.780300
      2 CAH         2.4830    0.0440    0.1300 c         1 SHL      0.935800
      3 OAA         3.0910    0.2440   -0.9470 o         1 SHL     -0.780300
      4 CAK         0.9410   -0.1120    0.0220 cc        1 SHL      0.107900
      5 OAG         0.3010    1.0900    0.1550 os        1 SHL     -0.185200
      6 CAF        -1.0810    1.1120    0.0810 cc        1 SHL      0.050900
      7 CAL        -1.6220    2.4800    0.2410 c3        1 SHL     -0.041900
      8 CAJ        -1.8020   -0.0240   -0.1200 cd        1 SHL     -0.097100
      9 OAC        -3.1800    0.0570   -0.1860 oh        1 SHL     -0.517100
     10 CAI        -1.1530   -1.3410   -0.2680 c         1 SHL      0.569500
     11 CAE         0.2830   -1.2870   -0.1810 cd        1 SHL     -0.378200
     12 OAB        -1.8470   -2.3640   -0.4510 o         1 SHL     -0.643100
     13 H2         -1.2590    3.1340   -0.5900 hc        1 SHL      0.053367
     14 H3         -2.7390    2.4440    0.2250 hc        1 SHL      0.053367
     15 H4         -1.2760    2.9170    1.2100 hc        1 SHL      0.053367
     16 H5         -3.4940   -0.8520   -0.3280 ho        1 SHL      0.433000
     17 H6          0.8470   -2.2230   -0.2810 ha        1 SHL      0.165000
@<TRIPOS>BOND
     1    1    2 1   
     2    2    3 1   
     3    2    4 1   
     4    4    5 1   
     5    4   11 2   
     6    5    6 1   
     7    6    7 1   
     8    6    8 2   
     9    7   13 1   
    10    7   14 1   
    11    7   15 1   
    12    8    9 1   
    13    8   10 1   
    14    9   16 1   
    15   10   11 1   
    16   10   12 2   
    17   11   17 1   
@<TRIPOS>SUBSTRUCTURE
     1 SHL         1 TEMP              0 ****  ****    0 ROOT
