@<TRIPOS>MOLECULE
SHL
   17    14     1     0     0
SMALL
bcc


@<TRIPOS>ATOM
      1 OAD        -2.9090   -0.3640    2.6460 o         1 SHL     -0.515000
      2 CAH        -1.6500   -0.3640    2.6460 c1        1 SHL      0.386000
      3 OAA        -1.0210   -0.3640    3.7360 os        1 SHL     -0.515000
      4 CAK        -0.8940   -0.3640    1.3360 c2        1 SHL      0.083000
      5 OAG        -0.5370    0.8950    0.7030 os        1 SHL     -0.097000
      6 CAF         0.3340    0.9040   -0.4600 c2        1 SHL      0.011000
      7 CAL         0.8640    2.2150   -0.9980 c3        1 SHL     -0.164000
      8 CAJ         0.7160   -0.3980   -1.1300 c1        1 SHL     -0.122000
      9 OAC         1.5740   -0.3900   -2.2450 oh        1 SHL     -0.272000
     10 CAI         0.2820   -1.6700   -0.5480 c1        1 SHL      0.292000
     11 CAE        -0.5200   -1.6740    0.6780 c1        1 SHL     -0.359000
     12 OAB         0.5020   -2.7120   -1.1330 o         1 SHL     -0.404000
     13 H2          0.5670    2.9470   -0.4240 hc        1 SHL      0.092667
     14 H3          1.8400    2.1900   -1.0130 hc        1 SHL      0.092667
     15 H4          0.5280    2.3550   -1.9040 hc        1 SHL      0.092667
     16 H5          1.1360   -0.6870   -2.9570 ho        1 SHL      0.232000
     17 H6         -0.8120   -2.5190    1.0690 ha        1 SHL      0.165000
@<TRIPOS>BOND
     1    1    2 1   
     2    2    4 1   
     3    4    5 1   
     4    4   11 1   
     5    5    6 1   
     6    6    7 1   
     7    6    8 1   
     8    7   13 1   
     9    7   14 1   
    10    7   15 1   
    11    8    9 1   
    12    9   16 1   
    13   10   12 1   
    14   11   17 1   
@<TRIPOS>SUBSTRUCTURE
     1 SHL         1 TEMP              0 ****  ****    0 ROOT
