@<TRIPOS>MOLECULE
SHL
   17    17     1     0     0
SMALL
bcc


@<TRIPOS>ATOM
      1 OAD         0.9540    1.3660    0.3640 o         1 SHL     -0.780300
      2 CAH         1.2920    0.1980    0.0650 c         1 SHL      0.935800
      3 OAA         1.1470   -0.8460    0.7410 o         1 SHL     -0.780300
      4 CAK         1.9510    0.0180   -1.3310 cc        1 SHL      0.107900
      5 OAG         3.3120    0.1450   -1.2690 os        1 SHL     -0.185200
      6 CAF         4.0400    0.0090   -2.4370 cc        1 SHL      0.050900
      7 CAL         5.4930    0.1750   -2.2070 c3        1 SHL     -0.041900
      8 CAJ         3.4350   -0.2450   -3.6290 cd        1 SHL     -0.097100
      9 OAC         4.2130   -0.3710   -4.7650 oh        1 SHL     -0.517100
     10 CAI         1.9720   -0.3910   -3.7420 c         1 SHL      0.569500
     11 CAE         1.2800   -0.2370   -2.4890 cd        1 SHL     -0.378200
     12 OAB         1.4500   -0.6250   -4.8540 o         1 SHL     -0.643100
     13 H2          5.7040    1.2060   -1.8300 hc        1 SHL      0.053367
     14 H3          5.8450   -0.5580   -1.4390 hc        1 SHL      0.053367
     15 H4          6.0450    0.0080   -3.1630 hc        1 SHL      0.053367
     16 H5          3.5940   -0.5520   -5.4930 ho        1 SHL      0.433000
     17 H6          0.1860   -0.3300   -2.4830 ha        1 SHL      0.165000
@<TRIPOS>BOND
     1    1    2 1   
     2    2    3 1   
     3    2    4 1   
     4    4    5 1   
     5    4   11 2   
     6    5    6 1   
     7    6    7 1   
     8    6    8 2   
     9    7   13 1   
    10    7   14 1   
    11    7   15 1   
    12    8    9 1   
    13    8   10 1   
    14    9   16 1   
    15   10   11 1   
    16   10   12 2   
    17   11   17 1   
@<TRIPOS>SUBSTRUCTURE
     1 SHL         1 TEMP              0 ****  ****    0 ROOT
