@<TRIPOS>MOLECULE
SHM
   34    35     1     0     0
SMALL
bcc


@<TRIPOS>ATOM
      1 C1          0.0190   -0.0800   -0.0930 c3        1 SHM      0.050700
      2 C2          1.6000    0.0160    0.0880 c3        1 SHM      0.058700
      3 N3          1.8410   -0.3270    1.4850 n         1 SHM     -0.511900
      4 C4          0.5910   -0.4880    2.1500 c         1 SHM      0.746500
      5 N5         -0.4860   -0.5250    1.2050 n         1 SHM     -0.510900
      6 C6          2.0870    1.3760   -0.4130 c3        1 SHM     -0.008600
      7 S7          0.6980    2.4980   -0.3630 ss        1 SHM     -0.273200
      8 C8         -0.5230    1.2480   -0.6050 c3        1 SHM     -0.051300
      9 C9          3.2610    1.9640    0.3340 c3        1 SHM     -0.074400
     10 C10         3.9030    3.0970   -0.4430 c3        1 SHM     -0.081400
     11 C11         5.0860    3.6740    0.3060 c3        1 SHM     -0.079400
     12 C12         5.7850    4.7410   -0.5100 c3        1 SHM     -0.064400
     13 C13         6.9850    5.3040    0.2120 c3        1 SHM     -0.195400
     14 C14         7.6000    6.4800   -0.5690 c         1 SHM      0.908600
     15 O15         6.8250    7.3620   -1.0390 o         1 SHM     -0.851300
     16 O16         8.8590    6.5110   -0.6860 o         1 SHM     -0.851300
     17 O17         0.4550   -0.6810    3.3710 o         1 SHM     -0.624500
     18 H11        -0.2150   -0.8950   -0.8340 h1        1 SHM      0.082700
     19 H12         2.0860   -0.7920   -0.5310 h1        1 SHM      0.084700
     20 HN3         2.5380    0.1860    1.9760 hn        1 SHM      0.321500
     21 HN5        -1.3380   -0.1180    1.5200 hn        1 SHM      0.303500
     22 H6          2.3800    1.2480   -1.4900 h1        1 SHM      0.084700
     23 H81        -1.4560    1.5690   -0.0830 h1        1 SHM      0.076200
     24 H82        -0.7660    1.1540   -1.6920 h1        1 SHM      0.076200
     25 H11A        2.9340    2.3450    1.3380 hc        1 SHM      0.052200
     26 H21         4.0290    1.1610    0.5060 hc        1 SHM      0.052200
     27 H12A        3.1440    3.9040   -0.6290 hc        1 SHM      0.046700
     28 H22         4.2420    2.7230   -1.4450 hc        1 SHM      0.046700
     29 H13         4.7380    4.1110    1.2790 hc        1 SHM      0.028700
     30 H23         5.8110    2.8530    0.5520 hc        1 SHM      0.028700
     31 H14         5.0760    5.5800   -0.7400 hc        1 SHM      0.045700
     32 H24         6.1120    4.3070   -1.4910 hc        1 SHM      0.045700
     33 H15         7.7600    4.5110    0.3600 hc        1 SHM      0.019700
     34 H25         6.6820    5.6830    1.2210 hc        1 SHM      0.019700
@<TRIPOS>BOND
     1    1    2 1   
     2    1    5 1   
     3    1    8 1   
     4    1   18 1   
     5    2    3 1   
     6    2    6 1   
     7    2   19 1   
     8    3    4 1   
     9    3   20 1   
    10    4    5 1   
    11    4   17 2   
    12    5   21 1   
    13    6    7 1   
    14    6    9 1   
    15    6   22 1   
    16    7    8 1   
    17    8   23 1   
    18    8   24 1   
    19    9   10 1   
    20    9   25 1   
    21    9   26 1   
    22   10   11 1   
    23   10   27 1   
    24   10   28 1   
    25   11   12 1   
    26   11   29 1   
    27   11   30 1   
    28   12   13 1   
    29   12   31 1   
    30   12   32 1   
    31   13   14 1   
    32   13   33 1   
    33   13   34 1   
    34   14   15 1   
    35   14   16 1   
@<TRIPOS>SUBSTRUCTURE
     1 SHM         1 TEMP              0 ****  ****    0 ROOT
