@<TRIPOS>MOLECULE
SHM
   34    35     1     0     0
SMALL
bcc


@<TRIPOS>ATOM
      1 C1          0.0000   -0.0540   -0.0980 c3        1 SHM      0.050700
      2 C2          1.5880    0.0380    0.0040 c3        1 SHM      0.059700
      3 N3          1.9050   -0.4100    1.3560 n         1 SHM     -0.512900
      4 C4          0.6930   -0.6270    2.0730 c         1 SHM      0.746500
      5 N5         -0.4330   -0.5980    1.1880 n         1 SHM     -0.510900
      6 C6          2.0440    1.4360   -0.4150 c3        1 SHM     -0.007600
      7 S7          0.6570    2.5420   -0.2050 ss        1 SHM     -0.277200
      8 C8         -0.5720    1.3060   -0.4780 c3        1 SHM     -0.051300
      9 C9          3.2550    1.9720    0.3120 c3        1 SHM     -0.074400
     10 C10         3.8460    3.1710   -0.4040 c3        1 SHM     -0.081400
     11 C11         5.0660    3.6970    0.3220 c3        1 SHM     -0.078400
     12 C12         5.7200    4.8240   -0.4500 c3        1 SHM     -0.066400
     13 C13         6.9440    5.3550    0.2550 c3        1 SHM     -0.195400
     14 C14         7.7440    6.3040   -0.6560 c         1 SHM      0.908600
     15 O15         7.9330    5.9660   -1.8610 o         1 SHM     -0.851800
     16 O16         8.1910    7.3700   -0.1450 o         1 SHM     -0.851800
     17 O17         0.6240   -0.9120    3.2820 o         1 SHM     -0.624500
     18 H11        -0.2720   -0.8120   -0.8850 h1        1 SHM      0.082700
     19 H12         2.0420   -0.7160   -0.7000 h1        1 SHM      0.085700
     20 HN3         2.6290    0.0650    1.8460 hn        1 SHM      0.321500
     21 HN5        -1.2670   -0.2220    1.5780 hn        1 SHM      0.303500
     22 H6          2.2800    1.3940   -1.5130 h1        1 SHM      0.085700
     23 H81        -0.8710    1.2930   -1.5540 h1        1 SHM      0.076700
     24 H82        -1.4780    1.5790    0.1150 h1        1 SHM      0.076700
     25 H11A        2.9820    2.2680    1.3610 hc        1 SHM      0.052200
     26 H21         4.0350    1.1660    0.3760 hc        1 SHM      0.052200
     27 H12A        3.0730    3.9810   -0.4820 hc        1 SHM      0.046700
     28 H22         4.1330    2.8820   -1.4500 hc        1 SHM      0.046700
     29 H13         5.8050    2.8650    0.4660 hc        1 SHM      0.028700
     30 H23         4.7710    4.0570    1.3420 hc        1 SHM      0.028700
     31 H14         6.0220    4.4670   -1.4710 hc        1 SHM      0.046200
     32 H24         4.9810    5.6550   -0.5960 hc        1 SHM      0.046200
     33 H15         7.6190    4.5080    0.5400 hc        1 SHM      0.020200
     34 H25         6.6540    5.8940    1.1900 hc        1 SHM      0.020200
@<TRIPOS>BOND
     1    1    2 1   
     2    1    5 1   
     3    1    8 1   
     4    1   18 1   
     5    2    3 1   
     6    2    6 1   
     7    2   19 1   
     8    3    4 1   
     9    3   20 1   
    10    4    5 1   
    11    4   17 2   
    12    5   21 1   
    13    6    7 1   
    14    6    9 1   
    15    6   22 1   
    16    7    8 1   
    17    8   23 1   
    18    8   24 1   
    19    9   10 1   
    20    9   25 1   
    21    9   26 1   
    22   10   11 1   
    23   10   27 1   
    24   10   28 1   
    25   11   12 1   
    26   11   29 1   
    27   11   30 1   
    28   12   13 1   
    29   12   31 1   
    30   12   32 1   
    31   13   14 1   
    32   13   33 1   
    33   13   34 1   
    34   14   15 1   
    35   14   16 1   
@<TRIPOS>SUBSTRUCTURE
     1 SHM         1 TEMP              0 ****  ****    0 ROOT
