@<TRIPOS>MOLECULE
SHM
   34    35     1     0     0
SMALL
bcc


@<TRIPOS>ATOM
      1 C1          0.7390   -0.4560   -4.0250 c3        1 SHM      0.050700
      2 C2          0.0120   -1.1430   -2.7850 c3        1 SHM      0.059700
      3 N3         -1.4110   -0.9210   -3.0130 n         1 SHM     -0.512900
      4 C4         -1.5780   -0.0910   -4.1590 c         1 SHM      0.746500
      5 N5         -0.3420    0.0450   -4.8710 n         1 SHM     -0.510900
      6 C6          0.6210   -0.6200   -1.4830 c3        1 SHM     -0.007600
      7 S7          1.3820    0.9570   -1.8400 ss        1 SHM     -0.277200
      8 C8          1.7380    0.5820   -3.5270 c3        1 SHM     -0.051300
      9 C9         -0.3360   -0.4880   -0.3220 c3        1 SHM     -0.074400
     10 C10         0.4050   -0.3240    0.9910 c3        1 SHM     -0.081400
     11 C11        -0.5580   -0.2040    2.1530 c3        1 SHM     -0.078400
     12 C12         0.1810   -0.1490    3.4740 c3        1 SHM     -0.066400
     13 C13        -0.7640   -0.0400    4.6450 c3        1 SHM     -0.195400
     14 C14        -0.0260   -0.2540    5.9790 c         1 SHM      0.908600
     15 O15         0.8080   -1.2010    6.0610 o         1 SHM     -0.851800
     16 O16        -0.3080    0.5220    6.9370 o         1 SHM     -0.851800
     17 O17        -2.6660    0.3660   -4.5530 o         1 SHM     -0.624500
     18 H11         1.2800   -1.2480   -4.6160 h1        1 SHM      0.082700
     19 H12         0.1770   -2.2580   -2.8380 h1        1 SHM      0.085700
     20 HN3        -1.9820   -0.7080   -2.2260 hn        1 SHM      0.321500
     21 HN5        -0.2010    0.9290   -5.3060 hn        1 SHM      0.303500
     22 H6          1.4400   -1.3310   -1.1890 h1        1 SHM      0.085700
     23 H81         1.7040    1.5340   -4.1100 h1        1 SHM      0.076700
     24 H82         2.7730    0.1720   -3.6190 h1        1 SHM      0.076700
     25 H11A       -0.9760   -1.4100   -0.2640 hc        1 SHM      0.052200
     26 H21        -1.0160    0.3920   -0.4740 hc        1 SHM      0.052200
     27 H12A        1.0570    0.5890    0.9430 hc        1 SHM      0.046700
     28 H22         1.0800   -1.2050    1.1570 hc        1 SHM      0.046700
     29 H13        -1.2580   -1.0810    2.1520 hc        1 SHM      0.028700
     30 H23        -1.1840    0.7180    2.0300 hc        1 SHM      0.028700
     31 H14         0.8810    0.7260    3.4740 hc        1 SHM      0.046200
     32 H24         0.8060   -1.0740    3.6050 hc        1 SHM      0.046200
     33 H15        -1.5620   -0.8220    4.5690 hc        1 SHM      0.020200
     34 H25        -1.2640    0.9610    4.6520 hc        1 SHM      0.020200
@<TRIPOS>BOND
     1    1    2 1   
     2    1    5 1   
     3    1    8 1   
     4    1   18 1   
     5    2    3 1   
     6    2    6 1   
     7    2   19 1   
     8    3    4 1   
     9    3   20 1   
    10    4    5 1   
    11    4   17 2   
    12    5   21 1   
    13    6    7 1   
    14    6    9 1   
    15    6   22 1   
    16    7    8 1   
    17    8   23 1   
    18    8   24 1   
    19    9   10 1   
    20    9   25 1   
    21    9   26 1   
    22   10   11 1   
    23   10   27 1   
    24   10   28 1   
    25   11   12 1   
    26   11   29 1   
    27   11   30 1   
    28   12   13 1   
    29   12   31 1   
    30   12   32 1   
    31   13   14 1   
    32   13   33 1   
    33   13   34 1   
    34   14   15 1   
    35   14   16 1   
@<TRIPOS>SUBSTRUCTURE
     1 SHM         1 TEMP              0 ****  ****    0 ROOT
