@<TRIPOS>MOLECULE
SHM
   34    35     1     0     0
SMALL
bcc


@<TRIPOS>ATOM
      1 C1         -0.0200   -0.0290   -0.0880 c3        1 SHM      0.050700
      2 C2          1.5700    0.0520   -0.0210 c3        1 SHM      0.059700
      3 N3          1.9150   -0.4340    1.3110 ns        1 SHM     -0.512900
      4 C4          0.7190   -0.6620    2.0500 c         1 SHM      0.746500
      5 N5         -0.4270   -0.6040    1.1930 ns        1 SHM     -0.510900
      6 C6          2.0260    1.4570   -0.4130 c3        1 SHM     -0.007600
      7 S7          0.6510    2.5650   -0.1430 ss        1 SHM     -0.277200
      8 C8         -0.5920    1.3450   -0.4190 c3        1 SHM     -0.051300
      9 C9          3.2560    1.9670    0.3000 c3        1 SHM     -0.074400
     10 C10         3.8390    3.1810   -0.3990 c3        1 SHM     -0.081400
     11 C11         5.0790    3.6790    0.3120 c3        1 SHM     -0.078400
     12 C12         5.7220    4.8230   -0.4450 c3        1 SHM     -0.066400
     13 C13         6.9660    5.3270    0.2450 c3        1 SHM     -0.195400
     14 C14         7.7510    6.2960   -0.6590 c         1 SHM      0.908600
     15 O15         7.9090    5.9900   -1.8770 o         1 SHM     -0.851800
     16 O16         8.2170    7.3450   -0.1300 o         1 SHM     -0.851800
     17 O17         0.6750   -0.9790    3.2530 o         1 SHM     -0.624500
     18 H11        -0.3160   -0.7640   -0.8880 h1        1 SHM      0.082700
     19 H12         2.0030   -0.6870   -0.7550 h1        1 SHM      0.085700
     20 HN3         2.6540    0.0230    1.7970 hn        1 SHM      0.321500
     21 HN5        -1.2500   -0.2320    1.6120 hn        1 SHM      0.303500
     22 H6          2.2360    1.4430   -1.5170 h1        1 SHM      0.085700
     23 H81        -0.9160    1.3620   -1.4880 h1        1 SHM      0.076700
     24 H82        -1.4820    1.6070    0.2020 h1        1 SHM      0.076700
     25 H11A        4.0330    1.1550    0.3230 hc        1 SHM      0.052200
     26 H21         3.0100    2.2360    1.3610 hc        1 SHM      0.052200
     27 H12A        4.0990    2.9180   -1.4580 hc        1 SHM      0.046700
     28 H22         3.0700    3.9970   -0.4380 hc        1 SHM      0.046700
     29 H13         5.8150    2.8400    0.4160 hc        1 SHM      0.028700
     30 H23         4.8100    4.0140    1.3490 hc        1 SHM      0.028700
     31 H14         4.9860    5.6620   -0.5500 hc        1 SHM      0.046200
     32 H24         5.9980    4.4920   -1.4820 hc        1 SHM      0.046200
     33 H15         6.7020    5.8420    1.2010 hc        1 SHM      0.020200
     34 H25         7.6420    4.4690    0.4910 hc        1 SHM      0.020200
@<TRIPOS>BOND
     1    1    2 1   
     2    1    5 1   
     3    1    8 1   
     4    1   18 1   
     5    2    3 1   
     6    2    6 1   
     7    2   19 1   
     8    3    4 1   
     9    3   20 1   
    10    4    5 1   
    11    4   17 2   
    12    5   21 1   
    13    6    7 1   
    14    6    9 1   
    15    6   22 1   
    16    7    8 1   
    17    8   23 1   
    18    8   24 1   
    19    9   10 1   
    20    9   25 1   
    21    9   26 1   
    22   10   11 1   
    23   10   27 1   
    24   10   28 1   
    25   11   12 1   
    26   11   29 1   
    27   11   30 1   
    28   12   13 1   
    29   12   31 1   
    30   12   32 1   
    31   13   14 1   
    32   13   33 1   
    33   13   34 1   
    34   14   15 1   
    35   14   16 1   
@<TRIPOS>SUBSTRUCTURE
     1 SHM         1 TEMP              0 ****  ****    0 ROOT
