@<TRIPOS>MOLECULE
SHO
   17    16     1     0     0
SMALL
bcc


@<TRIPOS>ATOM
      1 CA          0.0040    0.0390   -0.0040 c3        1 SHO     -0.193400
      2 CB          1.5060   -0.0920    0.0370 c3        1 SHO     -0.066400
      3 CG          2.0500    0.0500    1.4420 c3        1 SHO     -0.081400
      4 CD          3.5620   -0.0730    1.4380 c3        1 SHO      0.128400
      5 C          -0.5140    0.0800   -1.4530 c         1 SHO      0.907600
      6 OXT         0.1170    0.7760   -2.3010 o         1 SHO     -0.852800
      7 OE1         4.0160    0.0510    2.7810 oh        1 SHO     -0.612800
      8 O          -1.5620   -0.5760   -1.7210 o         1 SHO     -0.852800
      9 HAC1       -0.4780   -0.8130    0.5380 hc        1 SHO      0.020700
     10 HAC2       -0.3120    0.9880    0.4980 hc        1 SHO      0.020700
     11 HBC1        1.9510    0.6930   -0.6320 hc        1 SHO      0.044200
     12 HBC2        1.8040   -1.0890   -0.3820 hc        1 SHO      0.044200
     13 HGC1        1.7600    1.0440    1.8720 hc        1 SHO      0.040700
     14 HGC2        1.6150   -0.7390    2.1090 hc        1 SHO      0.040700
     15 HDC1        4.0210    0.7360    0.8080 h1        1 SHO      0.015700
     16 HDC2        3.8770   -1.0700    1.0270 h1        1 SHO      0.015700
     17 HE1         4.9760   -0.0040    2.7480 ho        1 SHO      0.381000
@<TRIPOS>BOND
     1    1    2 1   
     2    1    5 1   
     3    1    9 1   
     4    1   10 1   
     5    2    3 1   
     6    2   11 1   
     7    2   12 1   
     8    3    4 1   
     9    3   13 1   
    10    3   14 1   
    11    4    7 1   
    12    4   15 1   
    13    4   16 1   
    14    5    6 1   
    15    5    8 1   
    16    7   17 1   
@<TRIPOS>SUBSTRUCTURE
     1 SHO         1 TEMP              0 ****  ****    0 ROOT
