@<TRIPOS>MOLECULE
SHO
   17    16     1     0     0
SMALL
bcc


@<TRIPOS>ATOM
      1 CA         -0.7100    0.0000   -0.9020 c3        1 SHO     -0.193400
      2 CB          0.2410    0.0000    0.2680 c3        1 SHO     -0.063400
      3 CG         -0.4900    0.0000    1.5930 c3        1 SHO     -0.082400
      4 CD          0.5010   -0.0000    2.7420 c3        1 SHO      0.128400
      5 C           0.0310    0.0000   -2.2510 c         1 SHO      0.908600
      6 OXT         1.2960    0.0000   -2.2600 o         1 SHO     -0.853800
      7 OE1        -0.2380   -0.0000    3.9580 oh        1 SHO     -0.613800
      8 O          -0.6780    0.0000   -3.2990 o         1 SHO     -0.853800
      9 HAC1       -1.3710   -0.9020   -0.8660 hc        1 SHO      0.020700
     10 HAC2       -1.3700    0.9030   -0.8660 hc        1 SHO      0.020700
     11 HBC1        0.9080    0.8990    0.1960 hc        1 SHO      0.044700
     12 HBC2        0.9080   -0.8990    0.1960 hc        1 SHO      0.044700
     13 HGC1       -1.1510   -0.9020    1.6730 hc        1 SHO      0.039700
     14 HGC2       -1.1510    0.9020    1.6730 hc        1 SHO      0.039700
     15 HDC1        1.1550    0.9120    2.6990 h1        1 SHO      0.015700
     16 HDC2        1.1540   -0.9130    2.6990 h1        1 SHO      0.015700
     17 HE1         0.4120   -0.0000    4.6690 ho        1 SHO      0.381000
@<TRIPOS>BOND
     1    1    2 1   
     2    1    5 1   
     3    1    9 1   
     4    1   10 1   
     5    2    3 1   
     6    2   11 1   
     7    2   12 1   
     8    3    4 1   
     9    3   13 1   
    10    3   14 1   
    11    4    7 1   
    12    4   15 1   
    13    4   16 1   
    14    5    6 1   
    15    5    8 1   
    16    7   17 1   
@<TRIPOS>SUBSTRUCTURE
     1 SHO         1 TEMP              0 ****  ****    0 ROOT
