@<TRIPOS>MOLECULE
SHR
   36    35     1     0     0
SMALL
bcc


@<TRIPOS>ATOM
      1 N1          0.6160    1.9110    4.8240 n3        1 SHR     -0.899800
      2 C10        -0.0090    0.5940    4.8510 c3        1 SHR      0.032500
      3 C9          0.2070   -0.2350    3.5790 c3        1 SHR     -0.072400
      4 C8         -0.3690    0.4110    2.3350 c3        1 SHR     -0.076400
      5 C7         -0.1330   -0.4360    1.1000 c3        1 SHR     -0.079400
      6 C6         -0.6350    0.2750   -0.1600 c3        1 SHR      0.155800
      7 N          -0.3530   -0.4550   -1.3820 n3        1 SHR     -0.796200
      8 C11         0.4070   -0.2740    6.0820 c         1 SHR      0.890600
      9 O5         -0.2870   -1.2940    6.3530 o         1 SHR     -0.861300
     10 O6          1.4040    0.0900    6.7780 o         1 SHR     -0.861300
     11 C4         -0.8270    0.2390   -2.5820 c3        1 SHR      0.059500
     12 C3         -0.1230   -0.2310   -3.8640 c3        1 SHR     -0.051400
     13 C2          1.3480    0.1230   -3.8990 c3        1 SHR     -0.182400
     14 C1          1.9820   -0.0340   -5.2850 c         1 SHR      0.906600
     15 O1          2.6590   -1.0790   -5.5380 o         1 SHR     -0.881800
     16 O2          1.8720    0.9070   -6.1310 o         1 SHR     -0.881800
     17 C5         -2.3770    0.1110   -2.7290 c         1 SHR      0.924600
     18 O3         -2.8720   -0.7420   -3.5180 o         1 SHR     -0.866800
     19 O4         -3.0870    0.9190   -2.0570 o         1 SHR     -0.866800
     20 H12         1.0500    2.0690    5.7200 hn        1 SHR      0.327800
     21 H11         1.3530    1.9160    4.1410 hn        1 SHR      0.327800
     22 H10        -1.1180    0.7820    4.9550 h1        1 SHR      0.042700
     23 H92         1.3040   -0.4190    3.4320 hc        1 SHR      0.038700
     24 H91        -0.2790   -1.2320    3.7480 hc        1 SHR      0.038700
     25 H82        -1.4710    0.5710    2.4730 hc        1 SHR      0.033200
     26 H81         0.0900    1.4230    2.1810 hc        1 SHR      0.033200
     27 H72         0.9640   -0.6540    1.0060 hc        1 SHR      0.027200
     28 H71        -0.6580   -1.4200    1.2120 hc        1 SHR      0.027200
     29 H62        -1.7550    0.4060   -0.1080 h1        1 SHR      0.034700
     30 H61        -0.1850    1.3150   -0.1700 h1        1 SHR      0.034700
     31 H           0.6380   -0.6030   -1.4610 hn        1 SHR      0.325800
     32 H4         -0.6230    1.3530   -2.4860 h1        1 SHR     -0.002300
     33 H32        -0.2600   -1.3360   -3.9860 hc        1 SHR      0.049700
     34 H31        -0.6460    0.2610   -4.7250 hc        1 SHR      0.049700
     35 H22         1.4820    1.1890   -3.5780 hc        1 SHR      0.010700
     36 H21         1.9160   -0.5250   -3.1840 hc        1 SHR      0.010700
@<TRIPOS>BOND
     1    1    2 1   
     2    1   20 1   
     3    1   21 1   
     4    2    3 1   
     5    2    8 1   
     6    2   22 1   
     7    3    4 1   
     8    3   23 1   
     9    3   24 1   
    10    4    5 1   
    11    4   25 1   
    12    4   26 1   
    13    5    6 1   
    14    5   27 1   
    15    5   28 1   
    16    6    7 1   
    17    6   29 1   
    18    6   30 1   
    19    7   11 1   
    20    7   31 1   
    21    8    9 1   
    22    8   10 1   
    23   11   12 1   
    24   11   17 1   
    25   11   32 1   
    26   12   13 1   
    27   12   33 1   
    28   12   34 1   
    29   13   14 1   
    30   13   35 1   
    31   13   36 1   
    32   14   15 1   
    33   14   16 1   
    34   17   18 1   
    35   17   19 1   
@<TRIPOS>SUBSTRUCTURE
     1 SHR         1 TEMP              0 ****  ****    0 ROOT
