@<TRIPOS>MOLECULE
SHR
   36    35     1     0     0
SMALL
bcc


@<TRIPOS>ATOM
      1 N1         -3.8560   -2.6160   -2.5400 n3        1 SHR     -0.900800
      2 C10        -2.6190   -2.2000   -3.1060 c3        1 SHR      0.032500
      3 C9         -1.5350   -2.2710   -2.0560 c3        1 SHR     -0.071400
      4 C8         -1.1400   -0.8700   -1.6430 c3        1 SHR     -0.076400
      5 C7         -0.0120   -0.9400   -0.6370 c3        1 SHR     -0.080400
      6 C6          0.2960    0.4510   -0.1270 c3        1 SHR      0.160800
      7 N           1.3660    0.3870    0.8100 n3        1 SHR     -0.797200
      8 C11        -2.2620   -3.1070   -4.2610 c         1 SHR      0.890600
      9 O5         -2.0990   -4.3400   -4.0650 o         1 SHR     -0.861300
     10 O6         -2.1290   -2.6310   -5.4180 o         1 SHR     -0.861300
     11 C4          1.5230    1.6520    1.4370 c3        1 SHR      0.046500
     12 C3          1.9400    1.4530    2.8770 c3        1 SHR     -0.036400
     13 C2          1.5650    2.6760    3.6840 c3        1 SHR     -0.171400
     14 C1          2.1030    2.5360    5.0910 c         1 SHR      0.901600
     15 O1          3.1690    3.1210    5.4180 o         1 SHR     -0.886300
     16 O2          1.4850    1.8360    5.9350 o         1 SHR     -0.886300
     17 C5          2.5840    2.4470    0.7100 c         1 SHR      0.885600
     18 O3          2.2910    3.5500    0.1800 o         1 SHR     -0.869800
     19 O4          3.7610    2.0050    0.6370 o         1 SHR     -0.869800
     20 H12        -4.2540   -3.2290   -3.0930 hn        1 SHR      0.327800
     21 H11        -4.4070   -1.8910   -2.4430 hn        1 SHR      0.327800
     22 H10        -2.7010   -1.2800   -3.4280 h1        1 SHR      0.042700
     23 H92        -1.8680   -2.7590   -1.2760 hc        1 SHR      0.040200
     24 H91        -0.7560   -2.7350   -2.4220 hc        1 SHR      0.040200
     25 H82        -1.9090   -0.4200   -1.2400 hc        1 SHR      0.031700
     26 H81        -0.8440   -0.3700   -2.4300 hc        1 SHR      0.031700
     27 H72        -0.2780   -1.5110    0.1110 hc        1 SHR      0.030700
     28 H71         0.7840   -1.3130   -1.0650 hc        1 SHR      0.030700
     29 H62        -0.4990    0.8210    0.3100 h1        1 SHR      0.023200
     30 H61         0.5530    1.0250   -0.8780 h1        1 SHR      0.023200
     31 H           2.1390    0.1640    0.3750 hn        1 SHR      0.348800
     32 H4          0.6750    2.1380    1.4080 h1        1 SHR      0.035700
     33 H32         2.9080    1.3180    2.9200 hc        1 SHR      0.038700
     34 H31         1.4850    0.6680    3.2430 hc        1 SHR      0.038700
     35 H22         0.5910    2.7600    3.7150 hc        1 SHR      0.020200
     36 H21         1.9480    3.4730    3.2660 hc        1 SHR      0.020200
@<TRIPOS>BOND
     1    1    2 1   
     2    1   20 1   
     3    1   21 1   
     4    2    3 1   
     5    2    8 1   
     6    2   22 1   
     7    3    4 1   
     8    3   23 1   
     9    3   24 1   
    10    4    5 1   
    11    4   25 1   
    12    4   26 1   
    13    5    6 1   
    14    5   27 1   
    15    5   28 1   
    16    6    7 1   
    17    6   29 1   
    18    6   30 1   
    19    7   11 1   
    20    7   31 1   
    21    8    9 1   
    22    8   10 1   
    23   11   12 1   
    24   11   17 1   
    25   11   32 1   
    26   12   13 1   
    27   12   33 1   
    28   12   34 1   
    29   13   14 1   
    30   13   35 1   
    31   13   36 1   
    32   14   15 1   
    33   14   16 1   
    34   17   18 1   
    35   17   19 1   
@<TRIPOS>SUBSTRUCTURE
     1 SHR         1 TEMP              0 ****  ****    0 ROOT
