@<TRIPOS>MOLECULE
SHT
   49    50     1     0     0
SMALL
bcc


@<TRIPOS>ATOM
      1 S1          0.0000    0.0000    0.0000 ss        1 SHT     -0.074000
      2 OS3         4.6610   -1.4840   -0.5780 o         1 SHT     -0.981000
      3 SG2         4.1380   -1.2500    0.7210 s6        1 SHT      2.380000
      4 OS1         4.4840   -2.5330    1.4610 o         1 SHT     -0.981000
      5 OS2         4.6610   -0.2410    1.5740 o         1 SHT     -0.981000
      6 CD          2.3240   -1.2500    0.7210 c3        1 SHT     -0.609000
      7 CC          1.8130    0.0000    0.0000 c3        1 SHT     -0.144000
      8 SK         -0.3560    0.0000    2.0180 ss        1 SHT     -0.057000
      9 CK6        -0.4110    1.7860    2.3280 c3        1 SHT     -0.191000
     10 CK5        -1.5330    2.4130    1.4990 c3        1 SHT     -0.135000
     11 CK4        -1.5790    3.9200    1.7600 c3        1 SHT     -0.130000
     12 CK3        -2.7010    4.5470    0.9320 DU        1 SHT      0.009000
     13 CK2        -2.7470    6.0300    1.1890 c2        1 SHT     -0.259000
     14 CK1        -2.5710    6.8860    0.1860 c2        1 SHT     -0.258000
     15 CK         -2.6150    8.3340    0.4370 c3        1 SHT      0.158000
     16 OK         -2.8130    8.7500    1.5630 o         1 SHT     -0.404000
     17 N          -2.4350    9.2010   -0.5800 ny        1 SHT      0.702000
     18 CA         -2.4800   10.6440   -0.3290 c3        1 SHT     -0.336000
     19 C          -3.8950   11.1380   -0.4900 c2        1 SHT      0.420000
     20 O          -4.2790   12.0870    0.1510 o         1 SHT     -0.578500
     21 OXT        -4.7260   10.5250   -1.3450 o         1 SHT     -0.578500
     22 CB         -1.5730   11.3630   -1.3280 c3        1 SHT      0.107000
     23 CG2        -0.1370   10.8610   -1.1650 c3        1 SHT     -0.165000
     24 O3'        -2.0220   11.0960   -2.6570 os        1 SHT     -0.604000
     25 P          -2.3890   12.5170   -3.3180 p5        1 SHT      0.999500
     26 O1P        -2.9060   12.2910   -4.8260 o         1 SHT     -0.582167
     27 O2P        -3.5480   13.2280   -2.4550 o         1 SHT     -0.582167
     28 O8P        -1.1870   13.3800   -3.3330 o         1 SHT     -0.582167
     29 HCD1        1.9620   -2.1340    0.2110 h1        1 SHT      0.111500
     30 HCD2        1.9630   -1.2500    1.7430 h1        1 SHT      0.111500
     31 HCC1        2.1740    0.8850    0.5110 h1        1 SHT      0.093500
     32 HCC2        2.1740    0.0000   -1.0210 h1        1 SHT      0.093500
     33 HK61       -0.5970    1.9650    3.3800 h1        1 SHT      0.089500
     34 HK62        0.5360    2.2310    2.0480 h1        1 SHT      0.089500
     35 HK51       -2.4800    1.9690    1.7790 hc        1 SHT      0.070000
     36 HK52       -1.3480    2.2350    0.4470 hc        1 SHT      0.070000
     37 HK41       -1.7650    4.0990    2.8130 hc        1 SHT      0.058000
     38 HK42       -0.6320    4.3650    1.4800 hc        1 SHT      0.058000
     39 HK31       -2.5160    4.3690   -0.1210 ha        1 SHT      0.034500
     40 HK32       -3.6490    4.1030    1.2110 ha        1 SHT      0.034500
     41 HC2K       -3.5580    5.4600    0.7510 DU        1 SHT      0.044000
     42 HC1K       -3.4820    7.4560    0.3200 DU        1 SHT      0.020000
     43 HN         -3.1420    9.0020   -1.2600 hn        1 SHT      0.061500
     44 HCA        -2.1390   10.8460    0.6790 hx        1 SHT      0.110000
     45 HCB        -1.6050   12.4300   -1.1430 h1        1 SHT      0.111000
     46 HG21        0.0880   10.1480   -1.9500 hc        1 SHT      0.037333
     47 HG22        0.5480   11.6970   -1.2300 hc        1 SHT      0.037333
     48 HG23       -0.0290   10.3800   -0.2000 hc        1 SHT      0.037333
     49 H2         -1.5390    9.0020   -0.9760 hn        1 SHT      0.061500
@<TRIPOS>BOND
     1    1    7 1   
     2    1    8 1   
     3    2    3 1   
     4    3    4 1   
     5    3    5 1   
     6    3    6 1   
     7    6    7 1   
     8    6   29 1   
     9    6   30 1   
    10    7   31 1   
    11    7   32 1   
    12    8    9 1   
    13    9   10 1   
    14    9   33 1   
    15    9   34 1   
    16   10   11 1   
    17   10   35 1   
    18   10   36 1   
    19   11   12 1   
    20   11   37 1   
    21   11   38 1   
    22   12   13 1   
    23   12   39 1   
    24   12   40 1   
    25   12   41 1   
    26   13   14 1   
    27   13   41 1   
    28   14   15 1   
    29   14   42 1   
    30   15   16 1   
    31   15   17 1   
    32   15   42 1   
    33   17   18 1   
    34   17   43 1   
    35   17   49 1   
    36   18   19 1   
    37   18   22 1   
    38   18   44 1   
    39   19   20 1   
    40   19   21 1   
    41   22   23 1   
    42   22   24 1   
    43   22   45 1   
    44   23   46 1   
    45   23   47 1   
    46   23   48 1   
    47   24   25 1   
    48   25   26 1   
    49   25   27 1   
    50   25   28 1   
@<TRIPOS>SUBSTRUCTURE
     1 SHT         1 TEMP              0 ****  ****    0 ROOT
