@<TRIPOS>MOLECULE
SHU
   20    19     1     0     0
SMALL
bcc


@<TRIPOS>ATOM
      1 C4          0.0870   -0.2130    0.2590 c         1 SHU      0.581100
      2 C5          1.3570   -1.0350    0.2580 c3        1 SHU     -0.306400
      3 C6          2.3780   -0.6410    1.2850 c         1 SHU      0.589100
      4 O6          2.9170   -1.4840    2.0130 o         1 SHU     -0.561100
      5 C7          2.7290    0.8080    1.3540 c3        1 SHU     -0.207100
      6 C3         -0.6730   -0.3030   -1.0240 c3        1 SHU     -0.167400
      7 C2         -2.0540    0.2970   -0.9900 c3        1 SHU     -0.195400
      8 C1         -2.5640    0.5610   -2.4220 c         1 SHU      0.909600
      9 O1         -1.7140    0.8250   -3.3220 o         1 SHU     -0.847800
     10 OH1        -3.8100    0.5080   -2.6170 o         1 SHU     -0.847800
     11 O4L        -0.2510    0.4510    1.2450 o         1 SHU     -0.557100
     12 HC51        1.0650   -2.1100    0.4110 hc        1 SHU      0.087200
     13 HC52        1.8370   -0.9550   -0.7550 hc        1 SHU      0.087200
     14 HC1         1.8510    1.3690    1.7660 hc        1 SHU      0.068033
     15 HC2         2.9510    1.2000    0.3320 hc        1 SHU      0.068033
     16 HC3         3.6130    0.9750    2.0140 hc        1 SHU      0.068033
     17 HC31       -0.0820    0.2340   -1.8240 hc        1 SHU      0.079700
     18 HC32       -0.7320   -1.3810   -1.3330 hc        1 SHU      0.079700
     19 HC21       -2.7680   -0.3790   -0.4590 hc        1 SHU      0.037200
     20 HC22       -2.0370    1.2740   -0.4440 hc        1 SHU      0.037200
@<TRIPOS>BOND
     1    1    2 1   
     2    1    6 1   
     3    1   11 2   
     4    2    3 1   
     5    2   12 1   
     6    2   13 1   
     7    3    4 2   
     8    3    5 1   
     9    5   14 1   
    10    5   15 1   
    11    5   16 1   
    12    6    7 1   
    13    6   17 1   
    14    6   18 1   
    15    7    8 1   
    16    7   19 1   
    17    7   20 1   
    18    8    9 1   
    19    8   10 1   
@<TRIPOS>SUBSTRUCTURE
     1 SHU         1 TEMP              0 ****  ****    0 ROOT
