@<TRIPOS>MOLECULE
SHU
   20    19     1     0     0
SMALL
bcc


@<TRIPOS>ATOM
      1 C4         -0.0260   -0.7840    0.5480 c         1 SHU      0.597100
      2 C5          0.4480    0.6400    0.5630 c3        1 SHU     -0.324400
      3 C6          1.7850    0.8430    1.2060 c         1 SHU      0.599100
      4 O6          1.9700    1.6920    2.0880 o         1 SHU     -0.573100
      5 C7          2.8970   -0.0090    0.6830 c3        1 SHU     -0.208100
      6 C3         -0.8480   -1.1940   -0.6380 c3        1 SHU     -0.163400
      7 C2         -1.8660   -0.1680   -1.0810 c3        1 SHU     -0.200400
      8 C1         -1.3910    0.6740   -2.2810 c         1 SHU      0.906600
      9 O1         -0.1440    0.8250   -2.4640 o         1 SHU     -0.843800
     10 OH1        -2.2760    1.1830   -3.0210 o         1 SHU     -0.843800
     11 O4L         0.2610   -1.5890    1.4480 o         1 SHU     -0.597100
     12 HC51        0.5030    1.0100   -0.5130 hc        1 SHU      0.131700
     13 HC52       -0.3290    1.2590    1.0870 hc        1 SHU      0.131700
     14 HC1         2.9690    0.1070   -0.4260 hc        1 SHU      0.063033
     15 HC2         2.6740   -1.0790    0.9200 hc        1 SHU      0.063033
     16 HC3         3.8720    0.2750    1.1470 hc        1 SHU      0.063033
     17 HC31       -0.1210   -1.3620   -1.4840 hc        1 SHU      0.065700
     18 HC32       -1.3490   -2.1710   -0.4100 hc        1 SHU      0.065700
     19 HC21       -2.8120   -0.6880   -1.3760 hc        1 SHU      0.033700
     20 HC22       -2.1150    0.5360   -0.2480 hc        1 SHU      0.033700
@<TRIPOS>BOND
     1    1    2 1   
     2    1    6 1   
     3    1   11 2   
     4    2    3 1   
     5    2   12 1   
     6    2   13 1   
     7    3    4 2   
     8    3    5 1   
     9    5   14 1   
    10    5   15 1   
    11    5   16 1   
    12    6    7 1   
    13    6   17 1   
    14    6   18 1   
    15    7    8 1   
    16    7   19 1   
    17    7   20 1   
    18    8    9 1   
    19    8   10 1   
@<TRIPOS>SUBSTRUCTURE
     1 SHU         1 TEMP              0 ****  ****    0 ROOT
