@<TRIPOS>MOLECULE
SHU
   20    19     1     0     0
SMALL
bcc


@<TRIPOS>ATOM
      1 C4          0.4040    1.2020    0.8810 c         1 SHU      0.595100
      2 C5         -0.9990    1.0930    1.4110 c3        1 SHU     -0.312400
      3 C6         -1.1190    0.2150    2.6250 c         1 SHU      0.604100
      4 O6         -1.7280    0.5940    3.6350 o         1 SHU     -0.583100
      5 C7         -0.5050   -1.1380    2.5100 c3        1 SHU     -0.228100
      6 C3          0.5670    0.9850   -0.5970 c3        1 SHU     -0.166400
      7 C2          0.5160   -0.4830   -0.9590 c3        1 SHU     -0.194400
      8 C1         -0.9200   -1.0360   -0.9860 c         1 SHU      0.898600
      9 O1         -1.8470   -0.2930   -1.4240 o         1 SHU     -0.844300
     10 OH1        -1.1050   -2.2090   -0.5510 o         1 SHU     -0.844300
     11 O4L         1.3620    1.4940    1.6100 o         1 SHU     -0.583100
     12 HC51       -1.6710    0.6570    0.6080 hc        1 SHU      0.113700
     13 HC52       -1.3650    2.1270    1.6480 hc        1 SHU      0.113700
     14 HC1        -0.7570   -1.7700    3.3940 hc        1 SHU      0.080700
     15 HC2        -0.8670   -1.6430    1.5690 hc        1 SHU      0.080700
     16 HC3         0.6060   -1.0300    2.4370 hc        1 SHU      0.080700
     17 HC31       -0.2670    1.5120   -1.1380 hc        1 SHU      0.059200
     18 HC32        1.5450    1.4270   -0.9230 hc        1 SHU      0.059200
     19 HC21        0.9460   -0.6180   -1.9830 hc        1 SHU      0.035200
     20 HC22        1.1290   -1.0860   -0.2430 hc        1 SHU      0.035200
@<TRIPOS>BOND
     1    1    2 1   
     2    1    6 1   
     3    1   11 2   
     4    2    3 1   
     5    2   12 1   
     6    2   13 1   
     7    3    4 2   
     8    3    5 1   
     9    5   14 1   
    10    5   15 1   
    11    5   16 1   
    12    6    7 1   
    13    6   17 1   
    14    6   18 1   
    15    7    8 1   
    16    7   19 1   
    17    7   20 1   
    18    8    9 1   
    19    8   10 1   
@<TRIPOS>SUBSTRUCTURE
     1 SHU         1 TEMP              0 ****  ****    0 ROOT
