@<TRIPOS>MOLECULE
SHV
   22    20     1     0     0
SMALL
bcc


@<TRIPOS>ATOM
      1 C1          1.6810    1.9450    2.9060 c1        1 SHV      0.327000
      2 O1          2.9400    1.9450    2.9060 os        1 SHV     -0.590000
      3 O2          1.0510    1.9450    3.9960 o         1 SHV     -0.587000
      4 C2          0.9240    1.9450    1.5960 c3        1 SHV     -0.222000
      5 C3          0.6730    0.5190    1.1580 c3        1 SHV     -0.144000
      6 C4         -0.0910    0.5190   -0.1480 c3        1 SHV     -0.157000
      7 C5         -0.3350   -0.9080   -0.5890 c3        1 SHV     -0.157000
      8 C6         -1.1050   -0.9080   -1.8910 c3        1 SHV     -0.160000
      9 C7         -1.3450   -2.3340   -2.3350 c3        1 SHV     -0.207000
     10 H21         1.4510    2.4060    0.9160 hc        1 SHV      0.058000
     11 H22         0.0710    2.4040    1.7130 hc        1 SHV      0.058000
     12 H31         0.1510    0.0560    1.8410 hc        1 SHV      0.083000
     13 H32         1.5270    0.0610    1.0360 hc        1 SHV      0.083000
     14 H41         0.4300    0.9850   -0.8290 hc        1 SHV      0.065000
     15 H42        -0.9460    0.9720   -0.0240 hc        1 SHV      0.065000
     16 H51        -0.8520   -1.3750    0.0950 hc        1 SHV      0.075000
     17 H52         0.5200   -1.3600   -0.7160 hc        1 SHV      0.075000
     18 H61        -1.9620   -0.4580   -1.7630 hc        1 SHV      0.072000
     19 H62        -0.5890   -0.4370   -2.5740 hc        1 SHV      0.072000
     20 H71        -0.4890   -2.7830   -2.4650 hc        1 SHV      0.063667
     21 H72        -1.8430   -2.3340   -3.1740 hc        1 SHV      0.063667
     22 H73        -1.8600   -2.8050   -1.6520 hc        1 SHV      0.063667
@<TRIPOS>BOND
     1    1    3 1   
     2    1    4 1   
     3    4    5 1   
     4    4   10 1   
     5    4   11 1   
     6    5    6 1   
     7    5   12 1   
     8    5   13 1   
     9    6    7 1   
    10    6   14 1   
    11    6   15 1   
    12    7    8 1   
    13    7   16 1   
    14    7   17 1   
    15    8    9 1   
    16    8   18 1   
    17    8   19 1   
    18    9   20 1   
    19    9   21 1   
    20    9   22 1   
@<TRIPOS>SUBSTRUCTURE
     1 SHV         1 TEMP              0 ****  ****    0 ROOT
