@<TRIPOS>MOLECULE
SHV
   22    21     1     0     0
SMALL
bcc


@<TRIPOS>ATOM
      1 C1          0.0320    0.0840    0.0260 c         1 SHV      0.907600
      2 O1          1.0370   -0.6710    0.1690 o         1 SHV     -0.853800
      3 O2         -0.3510    0.9180    0.8970 o         1 SHV     -0.853800
      4 C2         -0.7500   -0.0090   -1.2960 c3        1 SHV     -0.193400
      5 C3         -2.2380   -0.0610   -1.0520 c3        1 SHV     -0.065400
      6 C4         -3.0270    0.0320   -2.3420 c3        1 SHV     -0.078400
      7 C5         -4.5170   -0.0420   -2.0880 c3        1 SHV     -0.078400
      8 C6         -5.3080    0.0600   -3.3750 c3        1 SHV     -0.081400
      9 C7         -6.7920   -0.0150   -3.1250 c3        1 SHV     -0.089100
     10 H21        -0.4950    0.8940   -1.9080 hc        1 SHV      0.018700
     11 H22        -0.4160   -0.9130   -1.8630 hc        1 SHV      0.018700
     12 H31        -2.4960   -1.0170   -0.5240 hc        1 SHV      0.043700
     13 H32        -2.5200    0.7810   -0.3650 hc        1 SHV      0.043700
     14 H41        -2.7830    0.9960   -2.8610 hc        1 SHV      0.025700
     15 H42        -2.7220   -0.8000   -3.0300 hc        1 SHV      0.025700
     16 H51        -4.7620   -1.0080   -1.5730 hc        1 SHV      0.035700
     17 H52        -4.8200    0.7860   -1.3940 hc        1 SHV      0.035700
     18 H61        -5.0010   -0.7670   -4.0680 hc        1 SHV      0.032700
     19 H62        -5.0610    1.0270   -3.8880 hc        1 SHV      0.032700
     20 H71        -7.1200    0.8170   -2.4550 hc        1 SHV      0.024367
     21 H72        -7.3560    0.0640   -4.0860 hc        1 SHV      0.024367
     22 H73        -7.0600   -0.9820   -2.6360 hc        1 SHV      0.024367
@<TRIPOS>BOND
     1    1    2 1   
     2    1    3 1   
     3    1    4 1   
     4    4    5 1   
     5    4   10 1   
     6    4   11 1   
     7    5    6 1   
     8    5   12 1   
     9    5   13 1   
    10    6    7 1   
    11    6   14 1   
    12    6   15 1   
    13    7    8 1   
    14    7   16 1   
    15    7   17 1   
    16    8    9 1   
    17    8   18 1   
    18    8   19 1   
    19    9   20 1   
    20    9   21 1   
    21    9   22 1   
@<TRIPOS>SUBSTRUCTURE
     1 SHV         1 TEMP              0 ****  ****    0 ROOT
