@<TRIPOS>MOLECULE
SHV
   22    21     1     0     0
SMALL
bcc


@<TRIPOS>ATOM
      1 C1         -0.0750    0.0000   -2.7880 c         1 SHV      0.907600
      2 O1          0.5960    0.0000   -3.8610 o         1 SHV     -0.854800
      3 O2         -1.3390    0.0000   -2.7520 o         1 SHV     -0.854800
      4 C2          0.7160   -0.0000   -1.4690 c3        1 SHV     -0.193400
      5 C3         -0.1850   -0.0000   -0.2590 c3        1 SHV     -0.062400
      6 C4          0.6050   -0.0000    1.0330 c3        1 SHV     -0.079400
      7 C5         -0.3070   -0.0000    2.2410 c3        1 SHV     -0.078400
      8 C6          0.4810   -0.0000    3.5350 c3        1 SHV     -0.081400
      9 C7         -0.4250    0.0000    4.7390 c3        1 SHV     -0.089100
     10 H21         1.3770    0.9030   -1.4580 hc        1 SHV      0.018700
     11 H22         1.3770   -0.9030   -1.4580 hc        1 SHV      0.018700
     12 H31        -0.8540   -0.8990   -0.3000 hc        1 SHV      0.044700
     13 H32        -0.8540    0.8990   -0.3000 hc        1 SHV      0.044700
     14 H41         1.2720    0.9020    1.0670 hc        1 SHV      0.024700
     15 H42         1.2720   -0.9020    1.0670 hc        1 SHV      0.024700
     16 H51        -0.9730   -0.9020    2.2070 hc        1 SHV      0.036700
     17 H52        -0.9730    0.9020    2.2070 hc        1 SHV      0.036700
     18 H61         1.1470    0.9020    3.5650 hc        1 SHV      0.032700
     19 H62         1.1470   -0.9020    3.5650 hc        1 SHV      0.032700
     20 H71         0.1750    0.0000    5.6810 hc        1 SHV      0.024700
     21 H72        -1.0810    0.9040    4.7380 hc        1 SHV      0.024700
     22 H73        -1.0810   -0.9040    4.7380 hc        1 SHV      0.024700
@<TRIPOS>BOND
     1    1    2 1   
     2    1    3 1   
     3    1    4 1   
     4    4    5 1   
     5    4   10 1   
     6    4   11 1   
     7    5    6 1   
     8    5   12 1   
     9    5   13 1   
    10    6    7 1   
    11    6   14 1   
    12    6   15 1   
    13    7    8 1   
    14    7   16 1   
    15    7   17 1   
    16    8    9 1   
    17    8   18 1   
    18    8   19 1   
    19    9   20 1   
    20    9   21 1   
    21    9   22 1   
@<TRIPOS>SUBSTRUCTURE
     1 SHV         1 TEMP              0 ****  ****    0 ROOT
