@<TRIPOS>MOLECULE
SHW
   67    64     1     0     0
SMALL
bcc


@<TRIPOS>ATOM
      1 C1         -0.7220   -0.7770   -4.3890 c1        1 SHW      0.042000
      2 O1         -0.0730    0.1350   -3.9220 o         1 SHW     -0.371000
      3 S1         -1.6830   -1.8440   -3.3050 s         1 SHW      0.240000
      4 C2         -0.7030   -1.0360   -5.8970 c3        1 SHW     -0.241000
      5 C3          0.7080   -1.3860   -6.3330 c3        1 SHW      0.051000
      6 O3          1.5460   -1.4190   -5.2170 oh        1 SHW     -0.353000
      7 C4          1.2110   -0.3370   -7.3160 c3        1 SHW     -0.197000
      8 C5          2.2960   -0.9500   -8.2070 c3        1 SHW     -0.151000
      9 C6          2.9780    0.1540   -9.0140 c3        1 SHW     -0.160000
     10 C7          4.1460   -0.4300   -9.7850 c3        1 SHW     -0.157000
     11 C8          4.8280    0.6710  -10.5840 c3        1 SHW     -0.209000
     12 O23         3.8760    0.3140    7.1010 o         1 SHW     -1.234500
     13 P24         3.1500   -0.1150    8.3560 p3        1 SHW      2.529000
     14 O26         2.8510   -1.5940    8.2840 os        1 SHW     -1.263000
     15 O27         1.7820    0.6990    8.4850 os        1 SHW     -0.719000
     16 C28         0.7830    0.5100    7.4890 c3        1 SHW      0.076000
     17 O28         4.0180    0.1650    9.5600 o         1 SHW     -1.234500
     18 C29        -0.3870    1.4520    7.7580 c3        1 SHW     -0.111000
     19 C30         0.1310    2.7360    8.3810 c3        1 SHW     -0.197500
     20 C31        -1.3640    0.7870    8.7100 c3        1 SHW     -0.197500
     21 C32        -1.0940    1.7740    6.4480 c3        1 SHW      0.016000
     22 O33        -2.1600    2.6470    6.6950 oh        1 SHW     -0.341000
     23 C34        -1.6210    0.4960    5.8310 c2        1 SHW      0.269000
     24 O35        -1.2770   -0.5810    6.2770 o         1 SHW     -0.403000
     25 N36        -2.4980    0.5550    4.6920 n         1 SHW     -0.341000
     26 C37        -2.5730   -0.5580    3.7840 c3        1 SHW     -0.033000
     27 C38        -3.4890   -0.2020    2.6130 c3        1 SHW     -0.234000
     28 C39        -3.2340   -1.1670    1.4540 c2        1 SHW      0.300000
     29 O40        -3.1380   -2.3580    1.6690 o         1 SHW     -0.489000
     30 N41        -3.1950   -0.6770    0.1090 n         1 SHW     -0.345000
     31 C42        -3.0920   -1.6040   -0.9950 c3        1 SHW      0.010000
     32 C43        -2.7530   -0.8400   -2.2730 c3        1 SHW     -0.348000
     33 H2         -1.3020   -1.7770   -6.1070 hc        1 SHW      0.115000
     34 H2A        -1.0000   -0.2330   -6.3690 hc        1 SHW      0.115000
     35 H3          0.7070   -2.2650   -6.7660 h1        1 SHW      0.091000
     36 HO3         2.0050   -2.1790   -5.2130 ho        1 SHW      0.228000
     37 H4          0.4680   -0.0290   -7.8720 hc        1 SHW      0.099500
     38 H4A         1.5840    0.4190   -6.8230 hc        1 SHW      0.099500
     39 H5          2.9590   -1.4040   -7.6480 hc        1 SHW      0.077000
     40 H5A         1.8880   -1.5970   -8.8200 hc        1 SHW      0.077000
     41 H6          2.3360    0.5440   -9.6400 hc        1 SHW      0.084500
     42 H6A         3.3040    0.8490   -8.4050 hc        1 SHW      0.084500
     43 H7          4.7870   -0.8230   -9.1590 hc        1 SHW      0.071000
     44 H7A         3.8200   -1.1230  -10.3960 hc        1 SHW      0.071000
     45 H8          5.3410    1.2450   -9.9780 hc        1 SHW      0.067667
     46 H8A         5.4330    0.2700  -11.2460 hc        1 SHW      0.067667
     47 H8B         4.1500    1.2080  -11.0460 hc        1 SHW      0.067667
     48 H28         0.4680   -0.4170    7.5150 h1        1 SHW      0.032500
     49 H28A        1.1610    0.7020    6.6060 h1        1 SHW      0.032500
     50 H30         0.6260    3.2490    7.7090 hc        1 SHW      0.073833
     51 H30A       -0.6250    3.2690    8.7080 hc        1 SHW      0.073833
     52 H30B        0.7260    2.5190    9.1310 hc        1 SHW      0.073833
     53 H31        -1.2310   -0.1850    8.6890 hc        1 SHW      0.073833
     54 H31A       -1.2100    1.1180    9.6220 hc        1 SHW      0.073833
     55 H31B       -2.2810    0.9970    8.4370 hc        1 SHW      0.073833
     56 H32        -0.4630    2.1960    5.8330 h1        1 SHW      0.110000
     57 HO33       -2.1270    3.3290    6.1180 ho        1 SHW      0.213000
     58 HN36       -2.9680    1.3140    4.5200 hn        1 SHW      0.227000
     59 H37        -2.9340   -1.3400    4.2540 h1        1 SHW      0.089000
     60 H37A       -1.6760   -0.7660    3.4460 h1        1 SHW      0.089000
     61 H38        -3.3050    0.7140    2.3210 hc        1 SHW      0.146000
     62 H38A       -4.4230   -0.2710    2.8950 hc        1 SHW      0.146000
     63 HN41       -3.2540    0.2170   -0.0520 hn        1 SHW      0.332000
     64 H42        -2.3870   -2.2560   -0.8080 h1        1 SHW      0.074500
     65 H42A       -3.9490   -2.0720   -1.1100 h1        1 SHW      0.074500
     66 H43        -3.5790   -0.6350   -2.7600 h1        1 SHW      0.184500
     67 H43A       -2.2950   -0.0070   -2.0430 h1        1 SHW      0.184500
@<TRIPOS>BOND
     1    1    2 1   
     2    1    4 1   
     3    3   32 1   
     4    4    5 1   
     5    4   33 1   
     6    4   34 1   
     7    5    6 1   
     8    5    7 1   
     9    5   35 1   
    10    6   36 1   
    11    7    8 1   
    12    7   37 1   
    13    7   38 1   
    14    8    9 1   
    15    8   39 1   
    16    8   40 1   
    17    9   10 1   
    18    9   41 1   
    19    9   42 1   
    20   10   11 1   
    21   10   43 1   
    22   10   44 1   
    23   11   45 1   
    24   11   46 1   
    25   11   47 1   
    26   12   13 1   
    27   13   15 1   
    28   13   17 1   
    29   15   16 1   
    30   16   18 1   
    31   16   48 1   
    32   16   49 1   
    33   18   19 1   
    34   18   20 1   
    35   18   21 1   
    36   19   50 1   
    37   19   51 1   
    38   19   52 1   
    39   20   53 1   
    40   20   54 1   
    41   20   55 1   
    42   21   22 1   
    43   21   23 1   
    44   21   56 1   
    45   22   57 1   
    46   23   24 1   
    47   23   25 1   
    48   25   26 1   
    49   25   58 1   
    50   26   27 1   
    51   26   59 1   
    52   26   60 1   
    53   27   28 1   
    54   27   61 1   
    55   27   62 1   
    56   28   29 1   
    57   28   30 1   
    58   30   31 1   
    59   30   63 1   
    60   31   32 1   
    61   31   64 1   
    62   31   65 1   
    63   32   66 1   
    64   32   67 1   
@<TRIPOS>SUBSTRUCTURE
     1 SHW         1 TEMP              0 ****  ****    0 ROOT
