@<TRIPOS>MOLECULE
SHW
   67    66     1     0     0
SMALL
bcc


@<TRIPOS>ATOM
      1 C1         -4.6110   -1.2090   -1.3440 c         1 SHW      0.538700
      2 O1         -5.0080   -2.1780   -0.6820 o         1 SHW     -0.560100
      3 S1         -3.1760   -0.3150   -1.2040 ss        1 SHW     -0.215700
      4 C2         -5.4500   -0.6400   -2.4630 c3        1 SHW     -0.211400
      5 C3         -6.8870   -0.3810   -2.0210 c3        1 SHW      0.144100
      6 O3         -7.7220   -0.1960   -3.1580 oh        1 SHW     -0.608800
      7 C4         -6.9640    0.8150   -1.0790 c3        1 SHW     -0.113400
      8 C5         -8.3530    0.9750   -0.5020 c3        1 SHW     -0.075400
      9 C6         -8.4490    2.2130    0.3630 c3        1 SHW     -0.081400
     10 C7         -9.8320    2.3630    0.9590 c3        1 SHW     -0.078400
     11 C8         -9.9330    3.5970    1.8180 c3        1 SHW     -0.092100
     12 O23        -0.0360    0.5680    1.4390 o         1 SHW     -0.923167
     13 P24         0.8940    0.4640    2.6240 p5        1 SHW      1.347900
     14 O26         1.5050   -0.9250    2.5840 o         1 SHW     -0.923167
     15 O27         2.2410    1.4210    2.1510 os        1 SHW     -0.560200
     16 O28         0.4880    1.0460    3.9340 o         1 SHW     -0.923167
     17 C29         4.2460    0.7320    0.9410 c3        1 SHW     -0.109000
     18 C30         5.0570    1.9970    0.6680 c3        1 SHW     -0.080100
     19 C31         4.6540    0.1930    2.3000 c3        1 SHW     -0.080100
     20 C32         4.6090   -0.2850   -0.1580 c3        1 SHW      0.092100
     21 O33         4.0060    0.0110   -1.4060 oh        1 SHW     -0.616800
     22 C34         4.3650   -1.7690    0.1890 c         1 SHW      0.621100
     23 O35         5.2990   -2.5870   -0.0150 o         1 SHW     -0.694100
     24 N36         3.1170   -2.1590    0.5910 n         1 SHW     -0.540900
     25 C37         2.8590   -3.5410    0.9080 c3        1 SHW      0.111000
     26 C38         1.5160   -3.7530    1.6060 c3        1 SHW     -0.174400
     27 C39         0.3630   -3.5450    0.6400 c         1 SHW      0.660100
     28 O40        -0.1310   -4.5340    0.0310 o         1 SHW     -0.723100
     29 N41        -0.0930   -2.2720    0.4500 n         1 SHW     -0.541900
     30 C42        -1.1580   -1.9840   -0.4690 c3        1 SHW      0.120000
     31 C43        -2.1880   -1.0100    0.0860 c3        1 SHW     -0.072300
     32 H2         -4.9920    0.3100   -2.8480 hc        1 SHW      0.068700
     33 H2A        -5.4610   -1.3830   -3.3050 hc        1 SHW      0.068700
     34 H3         -7.3030   -1.3030   -1.5230 h1        1 SHW      0.093700
     35 HO3        -7.4060    0.5920   -3.6140 ho        1 SHW      0.389000
     36 H4         -6.2200    0.6680   -0.2520 hc        1 SHW      0.056700
     37 H4A        -6.6730    1.7460   -1.6320 hc        1 SHW      0.056700
     38 H5         -9.0970    1.0330   -1.3400 hc        1 SHW      0.041200
     39 H5A        -8.6110    0.0690    0.1070 hc        1 SHW      0.041200
     40 H6         -7.6880    2.1550    1.1860 hc        1 SHW      0.044700
     41 H6A        -8.2030    3.1210   -0.2490 hc        1 SHW      0.044700
     42 H7        -10.5920    2.4140    0.1340 hc        1 SHW      0.033200
     43 H7A       -10.0730    1.4560    1.5740 hc        1 SHW      0.033200
     44 H8         -9.1970    3.5530    2.6560 hc        1 SHW      0.029367
     45 H8A        -9.7220    4.5140    1.2160 hc        1 SHW      0.029367
     46 H8B       -10.9580    3.6880    2.2520 hc        1 SHW      0.029367
     47 H28         2.1250    0.3060    0.4290 h1        1 SHW     -0.004300
     48 H28A        2.6540    2.0310    0.2370 h1        1 SHW     -0.004300
     49 H30         4.7270    2.8040    1.3660 hc        1 SHW      0.030700
     50 H30A        6.1480    1.8110    0.8210 hc        1 SHW      0.030700
     51 H30B        4.8980    2.3370   -0.3830 hc        1 SHW      0.030700
     52 H31         4.0130   -0.6690    2.6060 hc        1 SHW      0.030700
     53 H31A        5.7250   -0.1290    2.2840 hc        1 SHW      0.030700
     54 H31B        4.5200    0.9950    3.0650 hc        1 SHW      0.030700
     55 H32         5.7160   -0.2040   -0.3760 h1        1 SHW      0.063700
     56 HO33        3.0480    0.0070   -1.2780 ho        1 SHW      0.419000
     57 HN36        2.5370   -1.4870    1.1070 hn        1 SHW      0.399500
     58 H37         2.8900   -4.1380   -0.0490 h1        1 SHW      0.023200
     59 H37A        3.6740   -3.9470    1.5770 h1        1 SHW      0.023200
     60 H38         1.4720   -4.8120    1.9660 hc        1 SHW      0.095200
     61 H38A        1.4240   -3.0490    2.4870 hc        1 SHW      0.095200
     62 HN41        0.2650   -1.4950    1.0180 hn        1 SHW      0.410500
     63 H42        -0.7090   -1.5260   -1.4010 h1        1 SHW      0.033700
     64 H42A       -1.6670   -2.9460   -0.7700 h1        1 SHW      0.033700
     65 H43        -1.6550   -0.1120    0.5540 h1        1 SHW      0.150700
     66 H43A       -2.8220   -1.4900    0.8650 h1        1 SHW      0.150700
     67 C28         2.7380    1.1220    0.9080 c3        1 SHW      0.230400
@<TRIPOS>BOND
     1    1    2 2   
     2    1    3 1   
     3    1    4 1   
     4    3   31 1   
     5    4    5 1   
     6    4   32 1   
     7    4   33 1   
     8    5    6 1   
     9    5    7 1   
    10    5   34 1   
    11    6   35 1   
    12    7    8 1   
    13    7   36 1   
    14    7   37 1   
    15    8    9 1   
    16    8   38 1   
    17    8   39 1   
    18    9   10 1   
    19    9   40 1   
    20    9   41 1   
    21   10   11 1   
    22   10   42 1   
    23   10   43 1   
    24   11   44 1   
    25   11   45 1   
    26   11   46 1   
    27   12   13 1   
    28   13   14 1   
    29   13   15 1   
    30   13   16 1   
    31   15   67 1   
    32   17   18 1   
    33   17   19 1   
    34   17   20 1   
    35   17   67 1   
    36   18   49 1   
    37   18   50 1   
    38   18   51 1   
    39   19   52 1   
    40   19   53 1   
    41   19   54 1   
    42   20   21 1   
    43   20   22 1   
    44   20   55 1   
    45   21   56 1   
    46   22   23 2   
    47   22   24 1   
    48   24   25 1   
    49   24   57 1   
    50   25   26 1   
    51   25   58 1   
    52   25   59 1   
    53   26   27 1   
    54   26   60 1   
    55   26   61 1   
    56   27   28 2   
    57   27   29 1   
    58   29   30 1   
    59   29   62 1   
    60   30   31 1   
    61   30   63 1   
    62   30   64 1   
    63   31   65 1   
    64   31   66 1   
    65   47   67 1   
    66   48   67 1   
@<TRIPOS>SUBSTRUCTURE
     1 SHW         1 TEMP              0 ****  ****    0 ROOT
