@<TRIPOS>MOLECULE
SHX
   46    48     1     0     0
SMALL
bcc


@<TRIPOS>ATOM
      1 CL          0.4330    1.4320    0.1680 cl        1 SHX      0.040600
      2 C8          1.9740    0.7850    0.0950 ca        1 SHX     -0.201200
      3 C7          2.7770    0.5740    1.2820 ca        1 SHX      0.544600
      4 C19         2.2010    0.9450    2.6070 c3        1 SHX     -0.187400
      5 N2          4.0150    0.0570    1.2080 nb        1 SHX     -0.642000
      6 C6          4.5150   -0.2790   -0.0290 cp        1 SHX      0.688000
      7 C5          5.8980   -0.8520   -0.1300 cp        1 SHX      0.322300
      8 C4          6.5960   -1.1830    1.0450 ca        1 SHX     -0.142300
      9 C3          7.8900   -1.7180    0.9360 ca        1 SHX     -0.067000
     10 C2          8.4430   -1.9050   -0.3260 ca        1 SHX     -0.174300
     11 C1          7.6710   -1.5480   -1.4550 ca        1 SHX      0.415200
     12 N1          6.4360   -1.0360   -1.3760 nb        1 SHX     -0.761000
     13 N3          3.8240   -0.1200   -1.1900 nb        1 SHX     -0.790000
     14 C9          2.5740    0.4100   -1.1190 ca        1 SHX      0.497200
     15 N4          1.8700    0.5510   -2.4150 n4        1 SHX     -0.750700
     16 C10         2.8110    0.6960   -3.5890 c3        1 SHX      0.079500
     17 C11         3.6190   -0.5960   -3.7810 c         1 SHX      0.543100
     18 N5          5.0960   -0.5090   -3.8180 n4        1 SHX     -0.772400
     19 O           3.1020   -1.6980   -3.9030 o         1 SHX     -0.390100
     20 C12         2.0190    0.9740   -4.8860 c3        1 SHX     -0.046100
     21 C13         1.0730    2.1020   -4.6950 ca        1 SHX     -0.193300
     22 C18         1.4800    3.4180   -4.9420 ca        1 SHX     -0.130000
     23 C17         0.5670    4.4670   -4.8220 ca        1 SHX     -0.106000
     24 C16        -0.7550    4.2060   -4.4620 ca        1 SHX     -0.077000
     25 C15        -1.1670    2.8920   -4.2200 ca        1 SHX     -0.106000
     26 C14        -0.2590    1.8430   -4.3360 ca        1 SHX     -0.130000
     27 H1          1.9430    2.0360    2.6100 hc        1 SHX      0.104700
     28 H2          1.2650    0.3540    2.7850 hc        1 SHX      0.104700
     29 H3          2.9130    0.7460    3.4490 hc        1 SHX      0.104700
     30 H4          6.1530   -1.0330    2.0440 ha        1 SHX      0.194000
     31 H5          8.4540   -1.9840    1.8470 ha        1 SHX      0.190000
     32 H6          9.4540   -2.3220   -0.4580 ha        1 SHX      0.191000
     33 H7          8.0840   -1.6860   -2.4730 h4        1 SHX      0.036100
     34 H8          1.2610    1.3950   -2.3950 hn        1 SHX      0.494800
     35 H9          3.4780    1.5820   -3.3630 hx        1 SHX      0.136700
     36 H10         5.4680   -1.2200   -4.4600 hn        1 SHX      0.496800
     37 H11         5.4090    0.4160   -4.1140 hn        1 SHX      0.496800
     38 H12         2.7680    1.2220   -5.6880 hc        1 SHX      0.104700
     39 H13         1.4710    0.0440   -5.2060 hc        1 SHX      0.104700
     40 H14         2.5140    3.6310   -5.2570 ha        1 SHX      0.136000
     41 H15         0.8890    5.5010   -5.0320 ha        1 SHX      0.169500
     42 H16        -1.4810    5.0340   -4.3850 ha        1 SHX      0.175000
     43 H17        -2.2190    2.6850   -3.9600 ha        1 SHX      0.169500
     44 H18        -0.6070    0.8070   -4.2050 ha        1 SHX      0.136000
     45 H42         1.2720   -0.2800   -2.5580 hn        1 SHX      0.494800
     46 H53         5.5200   -0.7160   -2.8300 hn        1 SHX      0.496800
@<TRIPOS>BOND
     1    1    2 1   
     2    2    3 ar  
     3    2   14 ar  
     4    3    4 1   
     5    3    5 ar  
     6    4   27 1   
     7    4   28 1   
     8    4   29 1   
     9    5    6 ar  
    10    6    7 1   
    11    6   13 ar  
    12    7    8 ar  
    13    7   12 ar  
    14    8    9 ar  
    15    8   30 1   
    16    9   10 ar  
    17    9   31 1   
    18   10   11 ar  
    19   10   32 1   
    20   11   12 ar  
    21   11   33 1   
    22   13   14 ar  
    23   14   15 1   
    24   15   16 1   
    25   15   34 1   
    26   15   45 1   
    27   16   17 1   
    28   16   20 1   
    29   16   35 1   
    30   17   18 1   
    31   17   19 2   
    32   18   36 1   
    33   18   37 1   
    34   18   46 1   
    35   20   21 1   
    36   20   38 1   
    37   20   39 1   
    38   21   22 ar  
    39   21   26 ar  
    40   22   23 ar  
    41   22   40 1   
    42   23   24 ar  
    43   23   41 1   
    44   24   25 ar  
    45   24   42 1   
    46   25   26 ar  
    47   25   43 1   
    48   26   44 1   
@<TRIPOS>SUBSTRUCTURE
     1 SHX         1 TEMP              0 ****  ****    0 ROOT
