@<TRIPOS>MOLECULE
SHX
   45    47     1     0     0
SMALL
bcc


@<TRIPOS>ATOM
      1 Cl          0.2790    0.7770   -0.0960 cl        1 SHX     -0.022400
      2 C8          1.9240    0.4150   -0.1130 ca        1 SHX     -0.275200
      3 C7          2.6700    0.3080    1.0890 ca        1 SHX      0.522600
      4 C19         1.9870    0.5250    2.3990 c3        1 SHX     -0.171400
      5 N2          3.9940    0.0070    1.0800 nb        1 SHX     -0.696000
      6 C6          4.5890   -0.1810   -0.1310 cp        1 SHX      0.668000
      7 C5          6.0510   -0.5340   -0.1500 cp        1 SHX      0.331300
      8 C4          6.8600   -0.1540    0.9380 ca        1 SHX     -0.172300
      9 C3          8.2140   -0.5100    0.9240 ca        1 SHX     -0.087000
     10 C2          8.7170   -1.2250   -0.1580 ca        1 SHX     -0.205300
     11 C1          7.8340   -1.5550   -1.2070 ca        1 SHX      0.395200
     12 N1          6.5340   -1.2240   -1.2220 nb        1 SHX     -0.719000
     13 N3          3.9570   -0.0810   -1.3390 nb        1 SHX     -0.846000
     14 C9          2.6190    0.1950   -1.3460 ca        1 SHX      0.691200
     15 N4          1.9340    0.1750   -2.5670 nu        1 SHX     -0.854900
     16 C10         2.6260    0.3750   -3.8130 c3        1 SHX      0.185500
     17 C11         3.2530   -0.9610   -4.2830 c         1 SHX      0.524100
     18 N5          4.6200   -1.2650   -3.7590 nz        1 SHX     -0.776400
     19 O           2.7510   -1.7910   -5.0220 o         1 SHX     -0.408100
     20 C12         1.6950    0.8510   -4.9520 c3        1 SHX     -0.042100
     21 C13         1.0270    2.1280   -4.5930 ca        1 SHX     -0.131300
     22 C18         1.7050    3.3450   -4.7390 ca        1 SHX     -0.123000
     23 C17         1.0680    4.5430   -4.4240 ca        1 SHX     -0.117500
     24 C16        -0.2500    4.5350   -3.9650 ca        1 SHX     -0.103000
     25 C15        -0.9310    3.3260   -3.8240 ca        1 SHX     -0.117500
     26 C14        -0.2960    2.1250   -4.1360 ca        1 SHX     -0.123000
     27 H1          2.6860    0.4120    3.2650 hc        1 SHX      0.082367
     28 H2          1.1570   -0.2190    2.5100 hc        1 SHX      0.082367
     29 H3          1.5510    1.5560    2.4220 hc        1 SHX      0.082367
     30 H4          6.4460    0.4080    1.7900 ha        1 SHX      0.178000
     31 H5          8.8670   -0.2270    1.7660 ha        1 SHX      0.165000
     32 H6          9.7720   -1.5310   -0.2050 ha        1 SHX      0.166000
     33 H7          8.1960   -2.1260   -2.0820 h4        1 SHX      0.025100
     34 H8          0.9910    0.5180   -2.5480 hn        1 SHX      0.473800
     35 H9          3.4620    1.1340   -3.7040 h1        1 SHX      0.088700
     36 H10         4.6700   -0.9480   -2.7480 hn        1 SHX      0.481467
     37 H11         4.8240   -2.2660   -3.8140 hn        1 SHX      0.481467
     38 H12         2.3260    0.9860   -5.8710 hc        1 SHX      0.084700
     39 H13         0.9350    0.0540   -5.1770 hc        1 SHX      0.084700
     40 H14         2.7390    3.3570   -5.1140 ha        1 SHX      0.132500
     41 H15         1.6030    5.4980   -4.5460 ha        1 SHX      0.149000
     42 H16        -0.7550    5.4840   -3.7230 ha        1 SHX      0.151000
     43 H17        -1.9750    3.3190   -3.4730 ha        1 SHX      0.149000
     44 H18        -0.8460    1.1760   -4.0440 ha        1 SHX      0.132500
     45 H53         5.3270   -0.7540   -4.2910 hn        1 SHX      0.481467
@<TRIPOS>BOND
     1    1    2 1   
     2    2    3 ar  
     3    2   14 ar  
     4    3    4 1   
     5    3    5 ar  
     6    4   27 1   
     7    4   28 1   
     8    4   29 1   
     9    5    6 ar  
    10    6    7 1   
    11    6   13 ar  
    12    7    8 ar  
    13    7   12 ar  
    14    8    9 ar  
    15    8   30 1   
    16    9   10 ar  
    17    9   31 1   
    18   10   11 ar  
    19   10   32 1   
    20   11   12 ar  
    21   11   33 1   
    22   13   14 ar  
    23   14   15 1   
    24   15   16 1   
    25   15   34 1   
    26   16   17 1   
    27   16   20 1   
    28   16   35 1   
    29   17   18 1   
    30   17   19 2   
    31   18   36 1   
    32   18   37 1   
    33   18   45 1   
    34   20   21 1   
    35   20   38 1   
    36   20   39 1   
    37   21   22 ar  
    38   21   26 ar  
    39   22   23 ar  
    40   22   40 1   
    41   23   24 ar  
    42   23   41 1   
    43   24   25 ar  
    44   24   42 1   
    45   25   26 ar  
    46   25   43 1   
    47   26   44 1   
@<TRIPOS>SUBSTRUCTURE
     1 SHX         1 TEMP              0 ****  ****    0 ROOT
