@<TRIPOS>MOLECULE
SHX
   44    46     1     0     0
SMALL
bcc


@<TRIPOS>ATOM
      1 CL          0.9300    3.3200   -0.5340 cl        1 SHX     -0.064400
      2 C8         -0.3030    2.1840   -0.3110 ca        1 SHX     -0.291200
      3 C7         -1.6310    2.5900   -0.0520 ca        1 SHX      0.492600
      4 C19        -1.9520    4.0480    0.0280 c3        1 SHX     -0.159400
      5 N2         -2.6290    1.6890    0.1210 nb        1 SHX     -0.721000
      6 C6         -2.2860    0.3700    0.0310 cp        1 SHX      0.639000
      7 C5         -3.3970   -0.6270    0.2170 cp        1 SHX      0.360300
      8 C4         -4.2610   -0.4720    1.3200 ca        1 SHX     -0.201300
      9 C3         -5.2930   -1.3980    1.4920 ca        1 SHX     -0.099000
     10 C2         -5.4330   -2.4350    0.5710 ca        1 SHX     -0.234300
     11 C1         -4.5210   -2.5050   -0.5000 ca        1 SHX      0.390200
     12 N1         -3.5180   -1.6310   -0.6880 nb        1 SHX     -0.646000
     13 N3         -1.0450   -0.1340   -0.2100 nb        1 SHX     -0.750000
     14 C9         -0.0270    0.7740   -0.3780 ca        1 SHX      0.696200
     15 N4          1.2770    0.3240   -0.5520 nh        1 SHX     -0.826900
     16 C10         1.5600   -1.0690   -0.8180 c3        1 SHX      0.160500
     17 C11         1.0160   -1.5070   -2.2030 c         1 SHX      0.617100
     18 N5         -0.0930   -2.3080   -2.2440 n         1 SHX     -0.635000
     19 O           1.6100   -1.1640   -3.2470 o         1 SHX     -0.622100
     20 C12         3.0720   -1.3650   -0.8230 c3        1 SHX     -0.042100
     21 C13         3.7130   -1.0680    0.4840 ca        1 SHX     -0.080300
     22 C18         3.4660   -1.8860    1.5940 ca        1 SHX     -0.123000
     23 C17         4.0790   -1.6180    2.8160 ca        1 SHX     -0.127000
     24 C16         4.9470   -0.5330    2.9400 ca        1 SHX     -0.128000
     25 C15         5.1980    0.2840    1.8390 ca        1 SHX     -0.127000
     26 C14         4.5840    0.0190    0.6150 ca        1 SHX     -0.123000
     27 H1         -1.6890    4.5370   -0.9430 hc        1 SHX      0.065700
     28 H2         -3.0350    4.2290    0.2380 hc        1 SHX      0.065700
     29 H3         -1.3450    4.5160    0.8420 hc        1 SHX      0.065700
     30 H4         -4.1280    0.3620    2.0230 ha        1 SHX      0.160000
     31 H5         -5.9840   -1.3040    2.3420 ha        1 SHX      0.143000
     32 H6         -6.2320   -3.1820    0.6700 ha        1 SHX      0.147000
     33 H7         -4.5990   -3.3070   -1.2560 h4        1 SHX      0.025100
     34 H8          1.9110    0.9770   -0.9630 hn        1 SHX      0.443800
     35 H9          1.0860   -1.6840    0.0060 h1        1 SHX      0.090700
     36 H10        -0.6800   -2.3850   -1.4480 hn        1 SHX      0.317500
     37 H11        -0.5030   -2.4940   -3.1280 hn        1 SHX      0.317500
     38 H12         3.1910   -2.4560   -1.0640 hc        1 SHX      0.074200
     39 H13         3.5630   -0.7870   -1.6520 hc        1 SHX      0.074200
     40 H14         2.7830   -2.7440    1.4970 ha        1 SHX      0.130500
     41 H15         3.8800   -2.2650    3.6830 ha        1 SHX      0.132000
     42 H16         5.4310   -0.3220    3.9050 ha        1 SHX      0.131000
     43 H17         5.8820    1.1410    1.9330 ha        1 SHX      0.132000
     44 H18         4.7880    0.6660   -0.2510 ha        1 SHX      0.130500
@<TRIPOS>BOND
     1    1    2 1   
     2    2    3 ar  
     3    2   14 ar  
     4    3    4 1   
     5    3    5 ar  
     6    4   27 1   
     7    4   28 1   
     8    4   29 1   
     9    5    6 ar  
    10    6    7 1   
    11    6   13 ar  
    12    7    8 ar  
    13    7   12 ar  
    14    8    9 ar  
    15    8   30 1   
    16    9   10 ar  
    17    9   31 1   
    18   10   11 ar  
    19   10   32 1   
    20   11   12 ar  
    21   11   33 1   
    22   13   14 ar  
    23   14   15 1   
    24   15   16 1   
    25   15   34 1   
    26   16   17 1   
    27   16   20 1   
    28   16   35 1   
    29   17   18 1   
    30   17   19 2   
    31   18   36 1   
    32   18   37 1   
    33   20   21 1   
    34   20   38 1   
    35   20   39 1   
    36   21   22 ar  
    37   21   26 ar  
    38   22   23 ar  
    39   22   40 1   
    40   23   24 ar  
    41   23   41 1   
    42   24   25 ar  
    43   24   42 1   
    44   25   26 ar  
    45   25   43 1   
    46   26   44 1   
@<TRIPOS>SUBSTRUCTURE
     1 SHX         1 TEMP              0 ****  ****    0 ROOT
