@<TRIPOS>MOLECULE
SHX
   45    47     1     0     0
SMALL
bcc


@<TRIPOS>ATOM
      1 CL          0.2830    0.7720   -0.0880 cl        1 SHX     -0.022400
      2 C8          1.9310    0.4240   -0.1070 ca        1 SHX     -0.275200
      3 C7          2.6810    0.3310    1.0930 ca        1 SHX      0.522600
      4 C19         2.0000    0.5520    2.4040 c3        1 SHX     -0.171400
      5 N2          4.0080    0.0410    1.0820 nb        1 SHX     -0.696000
      6 C6          4.6010   -0.1500   -0.1290 cp        1 SHX      0.668000
      7 C5          6.0660   -0.4910   -0.1490 cp        1 SHX      0.331300
      8 C4          6.8750   -0.0960    0.9340 ca        1 SHX     -0.172300
      9 C3          8.2320   -0.4410    0.9180 ca        1 SHX     -0.087000
     10 C2          8.7380   -1.1600   -0.1610 ca        1 SHX     -0.205300
     11 C1          7.8540   -1.5050   -1.2050 ca        1 SHX      0.395200
     12 N1          6.5520   -1.1850   -1.2180 nb        1 SHX     -0.719000
     13 N3          3.9650   -0.0640   -1.3350 nb        1 SHX     -0.846000
     14 C9          2.6240    0.2010   -1.3410 ca        1 SHX      0.691200
     15 N4          1.9360    0.1660   -2.5600 nh        1 SHX     -0.854900
     16 C10         2.6230    0.3620   -3.8090 c3        1 SHX      0.185500
     17 C11         3.2590   -0.9710   -4.2710 c         1 SHX      0.524100
     18 N5          4.6310   -1.2610   -3.7490 n4        1 SHX     -0.776400
     19 O           2.7620   -1.8110   -5.0030 o         1 SHX     -0.408100
     20 C12         1.6850    0.8220   -4.9480 c3        1 SHX     -0.042100
     21 C13         1.0080    2.0970   -4.5980 ca        1 SHX     -0.131300
     22 C18         1.6760    3.3170   -4.7540 ca        1 SHX     -0.123000
     23 C17         1.0300    4.5130   -4.4460 ca        1 SHX     -0.117500
     24 C16        -0.2870    4.4990   -3.9830 ca        1 SHX     -0.103000
     25 C15        -0.9580    3.2850   -3.8310 ca        1 SHX     -0.117500
     26 C14        -0.3140    2.0870   -4.1360 ca        1 SHX     -0.123000
     27 H1          1.5560    1.5790    2.4210 hc        1 SHX      0.082367
     28 H2          2.7030    0.4500    3.2680 hc        1 SHX      0.082367
     29 H3          1.1770   -0.1980    2.5220 hc        1 SHX      0.082367
     30 H4          6.4580    0.4680    1.7830 ha        1 SHX      0.178000
     31 H5          8.8850   -0.1470    1.7560 ha        1 SHX      0.165000
     32 H6          9.7950   -1.4570   -0.2080 ha        1 SHX      0.166000
     33 H7          8.2190   -2.0790   -2.0770 h4        1 SHX      0.025100
     34 H8          0.9900    0.5010   -2.5400 hn        1 SHX      0.473800
     35 H9          3.4530    1.1290   -3.7080 h1        1 SHX      0.088700
     36 H10         4.8430   -2.2600   -3.7970 hn        1 SHX      0.481467
     37 H11         4.6800   -0.9360   -2.7400 hn        1 SHX      0.481467
     38 H12         0.9310    0.0180   -5.1650 hc        1 SHX      0.084700
     39 H13         2.3120    0.9560   -5.8700 hc        1 SHX      0.084700
     40 H14         2.7090    3.3350   -5.1330 ha        1 SHX      0.132500
     41 H15         1.5570    5.4710   -4.5770 ha        1 SHX      0.149000
     42 H16        -0.7980    5.4450   -3.7460 ha        1 SHX      0.151000
     43 H17        -2.0000    3.2720   -3.4770 ha        1 SHX      0.149000
     44 H18        -0.8560    1.1340   -4.0360 ha        1 SHX      0.132500
     45 H53         5.3310   -0.7480   -4.2870 hn        1 SHX      0.481467
@<TRIPOS>BOND
     1    1    2 1   
     2    2    3 ar  
     3    2   14 ar  
     4    3    4 1   
     5    3    5 ar  
     6    4   27 1   
     7    4   28 1   
     8    4   29 1   
     9    5    6 ar  
    10    6    7 1   
    11    6   13 ar  
    12    7    8 ar  
    13    7   12 ar  
    14    8    9 ar  
    15    8   30 1   
    16    9   10 ar  
    17    9   31 1   
    18   10   11 ar  
    19   10   32 1   
    20   11   12 ar  
    21   11   33 1   
    22   13   14 ar  
    23   14   15 1   
    24   15   16 1   
    25   15   34 1   
    26   16   17 1   
    27   16   20 1   
    28   16   35 1   
    29   17   18 1   
    30   17   19 2   
    31   18   36 1   
    32   18   37 1   
    33   18   45 1   
    34   20   21 1   
    35   20   38 1   
    36   20   39 1   
    37   21   22 ar  
    38   21   26 ar  
    39   22   23 ar  
    40   22   40 1   
    41   23   24 ar  
    42   23   41 1   
    43   24   25 ar  
    44   24   42 1   
    45   25   26 ar  
    46   25   43 1   
    47   26   44 1   
@<TRIPOS>SUBSTRUCTURE
     1 SHX         1 TEMP              0 ****  ****    0 ROOT
