@<TRIPOS>MOLECULE
SHY
   57    57     1     0     0
SMALL
bcc


@<TRIPOS>ATOM
      1 N1         -3.6270   -0.0660    5.2830 n1        1 SHY     -0.293000
      2 C3         -4.1880   -0.6540    4.1800 c1        1 SHY      0.127000
      3 N2         -5.4320   -1.3020    4.2830 n2        1 SHY     -0.397000
      4 C4         -3.4570   -0.6070    2.8350 c2        1 SHY     -0.050000
      5 C9         -3.8260    0.3290    1.8880 c2        1 SHY     -0.109000
      6 C8         -3.2800    0.2840    0.6250 c1        1 SHY     -0.117000
      7 C7         -2.3530   -0.7080    0.2990 c1        1 SHY     -0.074000
      8 C6         -1.9840   -1.6430    1.2460 c1        1 SHY     -0.105000
      9 C5         -2.5310   -1.5970    2.5110 c1        1 SHY     -0.096000
     10 C10        -1.9200   -0.8870   -1.1330 c3        1 SHY      0.035000
     11 N11        -1.2840   -2.2040   -1.3080 n3        1 SHY     -0.231000
     12 C12        -1.6770   -3.6390   -1.7400 c3        1 SHY     -0.120000
     13 C13        -0.6500   -4.0390   -2.8580 c3        1 SHY      0.020000
     14 C14        -0.0210   -2.9020   -3.1710 c3        1 SHY     -0.207000
     15 C15        -0.0840   -1.9900   -1.8710 c3        1 SHY     -0.026000
     16 C16         0.0180   -0.4330   -2.2580 c3        1 SHY     -0.148000
     17 C17         1.3100    0.0190   -1.7850 c2        1 SHY      0.317000
     18 N19         1.1040    0.4230   -0.3490 n         1 SHY     -0.336000
     19 C20        -0.1170    0.8450   -0.2780 c2        1 SHY      0.324000
     20 O21        -0.5480    1.7010    0.4740 o         1 SHY     -0.292000
     21 C22        -0.8910    0.1730   -1.5050 c3        1 SHY     -0.148000
     22 C23         2.1630    0.6690    0.6390 c3        1 SHY      0.025000
     23 C24         3.0430    1.9110    0.1800 c2        1 SHY     -0.117000
     24 C32         3.4160    2.0590   -1.1690 c2        1 SHY     -0.113000
     25 C31         4.1530    3.1430   -1.5580 c1        1 SHY     -0.119000
     26 C30         4.5400    4.1110   -0.6080 c1        1 SHY      0.018000
     27 O29         5.3410    5.2490   -0.7110 os        1 SHY     -0.218000
     28 C28         5.5520    5.7540    0.5960 c3        1 SHY      0.099000
     29 O20         0.3340   -5.0600   -2.3330 oh        1 SHY     -0.316000
     30 O27         4.8580    4.9670    1.4710 os        1 SHY     -0.216000
     31 C26         4.1750    3.9670    0.7160 c2        1 SHY      0.002000
     32 C25         3.4260    2.8670    1.1130 c2        1 SHY     -0.090000
     33 O24         2.3260   -0.1520   -2.3040 o         1 SHY     -0.315000
     34 H1N        -4.0830   -0.0960    6.1280 DU        1 SHY      0.138000
     35 H2N1       -5.8680   -1.3130    5.0710 hn        1 SHY      0.194000
     36 H2N2       -5.7820   -1.7900    3.5390 hn        1 SHY      0.194000
     37 H9         -4.4570    1.0050    2.1110 ha        1 SHY      0.146000
     38 H8         -3.5400    0.9390   -0.0360 ha        1 SHY      0.134000
     39 H6         -1.3430   -2.3310    1.0210 ha        1 SHY      0.144000
     40 H5         -2.2700   -2.2540    3.1740 ha        1 SHY      0.149000
     41 H10        -2.7300   -0.8100   -1.7520 h1        1 SHY      0.099000
     42 H121       -1.6030   -4.3010   -0.9210 h1        1 SHY      0.099000
     43 H122       -2.5940   -3.6440   -2.1050 h1        1 SHY      0.099000
     44 H13        -1.1170   -4.3880   -3.6300 h1        1 SHY      0.125000
     45 H141        0.9670   -3.0940   -3.4230 hc        1 SHY      0.107000
     46 H142       -0.4710   -2.4660   -3.9030 hc        1 SHY      0.107000
     47 H15         0.6230   -2.2330   -1.2560 h1        1 SHY      0.127000
     48 H16        -0.1220   -0.2640   -3.2600 hc        1 SHY      0.140000
     49 H22        -1.3130    0.8530   -2.0150 hc        1 SHY      0.136000
     50 H231        2.7860   -0.1990    0.7220 h1        1 SHY      0.119500
     51 H232        1.7380    0.8700    1.5510 h1        1 SHY      0.119500
     52 H32         3.2570    1.3070   -1.8170 ha        1 SHY      0.158000
     53 H31         4.4150    3.2490   -2.5000 ha        1 SHY      0.157000
     54 H281        5.2190    6.7000    0.6530 h2        1 SHY      0.111500
     55 H282        6.5380    5.7250    0.8190 h2        1 SHY      0.111500
     56 H20         0.6410   -4.8010   -1.5740 ho        1 SHY      0.206000
     57 H25         3.2220    2.7480    2.0020 ha        1 SHY      0.167000
@<TRIPOS>BOND
     1    1    2 1   
     2    2    4 1   
     3    3   35 1   
     4    3   36 1   
     5    4    5 1   
     6    4    9 1   
     7    5    6 1   
     8    5   37 1   
     9    6   38 1   
    10    7    8 1   
    11    7   10 1   
    12    8   39 1   
    13    9   40 1   
    14   10   11 1   
    15   10   21 1   
    16   10   41 1   
    17   11   12 1   
    18   11   15 1   
    19   12   13 1   
    20   12   42 1   
    21   12   43 1   
    22   13   14 1   
    23   13   29 1   
    24   13   44 1   
    25   14   15 1   
    26   14   45 1   
    27   14   46 1   
    28   15   16 1   
    29   15   47 1   
    30   16   17 1   
    31   16   21 1   
    32   16   48 1   
    33   17   18 1   
    34   17   33 1   
    35   18   19 1   
    36   18   22 1   
    37   19   20 1   
    38   19   21 1   
    39   21   49 1   
    40   22   23 1   
    41   22   50 1   
    42   22   51 1   
    43   23   24 1   
    44   23   32 1   
    45   24   25 1   
    46   24   52 1   
    47   25   53 1   
    48   26   27 1   
    49   26   31 1   
    50   27   28 1   
    51   28   30 1   
    52   28   54 1   
    53   28   55 1   
    54   29   56 1   
    55   30   31 1   
    56   31   32 1   
    57   32   57 1   
@<TRIPOS>SUBSTRUCTURE
     1 SHY         1 TEMP              0 ****  ****    0 ROOT
