@<TRIPOS>MOLECULE
SHY
   57    62     1     0     0
SMALL
bcc


@<TRIPOS>ATOM
      1 N1          4.6760   -0.3040    5.4860 n2        1 SHY     -0.836100
      2 C3          4.2210   -0.6910    4.3300 ce        1 SHY      0.639800
      3 N2          4.9510   -1.5720    3.5050 nh        1 SHY     -0.892800
      4 C4          2.8760   -0.3120    3.7880 ca        1 SHY     -0.189900
      5 C9          2.5020    1.0350    3.7650 ca        1 SHY     -0.107000
      6 C8          1.2500    1.4010    3.2790 ca        1 SHY     -0.109000
      7 C7          0.3590    0.4280    2.8060 ca        1 SHY     -0.076300
      8 C6          0.7350   -0.9190    2.8400 ca        1 SHY     -0.109000
      9 C5          1.9900   -1.2870    3.3260 ca        1 SHY     -0.107000
     10 C10        -0.9900    0.8760    2.3090 c3        1 SHY      0.232800
     11 N11        -2.0540   -0.0920    2.6430 n3        1 SHY     -0.693600
     12 C12        -2.9020    0.2890    3.7680 c3        1 SHY      0.116800
     13 C13        -4.3360    0.5910    3.2610 c3        1 SHY      0.119100
     14 C14        -4.3390    0.2310    1.7700 c3        1 SHY     -0.094400
     15 C15        -2.9250   -0.2940    1.4620 c3        1 SHY      0.170500
     16 C16        -2.2780    0.3900    0.2500 c3        1 SHY     -0.153700
     17 C17        -1.7280   -0.6250   -0.7530 c         1 SHY      0.709500
     18 N19        -0.3340   -0.4470   -0.8740 n         1 SHY     -0.509400
     19 C20         0.1330    0.5940   -0.0400 c         1 SHY      0.716500
     20 O21         1.2950    1.0090   -0.0460 o         1 SHY     -0.580500
     21 C22        -1.0340    1.1420    0.7820 c3        1 SHY     -0.148700
     22 C23         0.4940   -1.1720   -1.8030 c3        1 SHY      0.150300
     23 C24         0.6760   -0.5030   -3.1380 ca        1 SHY     -0.126300
     24 C32         1.5910    0.5440   -3.2610 ca        1 SHY     -0.112000
     25 C31         1.8310    1.1820   -4.4910 ca        1 SHY     -0.119000
     26 C30         1.1080    0.7160   -5.5710 ca        1 SHY      0.064100
     27 O29         1.1390    1.1490   -6.8920 os        1 SHY     -0.333900
     28 C28         0.1910    0.3340   -7.6210 c3        1 SHY      0.321200
     29 O20        -5.3020   -0.2230    3.8990 oh        1 SHY     -0.587800
     30 O27        -0.4050   -0.5960   -6.6870 os        1 SHY     -0.332900
     31 C26         0.1720   -0.3440   -5.4460 ca        1 SHY      0.047100
     32 C25        -0.0690   -0.9700   -4.2410 ca        1 SHY     -0.092000
     33 O24        -2.3790   -1.4760   -1.3650 o         1 SHY     -0.579500
     34 H1N         4.0280    0.2340    6.0190 hn        1 SHY      0.393400
     35 H2N1        5.9070   -1.7020    3.7580 hn        1 SHY      0.399300
     36 H2N2        4.8170   -1.4000    2.5330 hn        1 SHY      0.399300
     37 H9          3.1960    1.8090    4.1270 ha        1 SHY      0.144500
     38 H8          0.9670    2.4650    3.2590 ha        1 SHY      0.141500
     39 H6          0.0430   -1.7000    2.4890 ha        1 SHY      0.141500
     40 H5          2.2760   -2.3500    3.3510 ha        1 SHY      0.144500
     41 H10        -1.2030    1.8760    2.8040 h1        1 SHY      0.047700
     42 H121       -2.4930    1.1660    4.3370 h1        1 SHY      0.062700
     43 H122       -2.9310   -0.5970    4.4630 h1        1 SHY      0.062700
     44 H13        -4.5940    1.6720    3.4230 h1        1 SHY      0.040700
     45 H141       -4.5920    1.1290    1.1570 hc        1 SHY      0.070700
     46 H142       -5.1010   -0.5620    1.5640 hc        1 SHY      0.070700
     47 H15        -2.9770   -1.4080    1.2870 h1        1 SHY      0.097700
     48 H16        -2.9920    1.0670   -0.2820 hc        1 SHY      0.102700
     49 H22        -1.0940    2.2440    0.5940 hc        1 SHY      0.096700
     50 H231        1.5080   -1.3020   -1.3240 h1        1 SHY      0.077700
     51 H232        0.0240   -2.1880   -1.9540 h1        1 SHY      0.077700
     52 H32         2.1380    0.8870   -2.3660 ha        1 SHY      0.159000
     53 H31         2.5530    2.0020   -4.5820 ha        1 SHY      0.157000
     54 H281       -0.6130    0.9970   -8.0250 h2        1 SHY      0.072700
     55 H282        0.7440   -0.2460   -8.3990 h2        1 SHY      0.072700
     56 H20        -5.2390   -0.0470    4.8460 ho        1 SHY      0.404000
     57 H25        -0.8000   -1.7840   -4.1400 ha        1 SHY      0.165000
@<TRIPOS>BOND
     1    1    2 2   
     2    1   34 1   
     3    2    3 1   
     4    2    4 1   
     5    3   35 1   
     6    3   36 1   
     7    4    5 ar  
     8    4    9 ar  
     9    5    6 ar  
    10    5   37 1   
    11    6    7 ar  
    12    6   38 1   
    13    7    8 ar  
    14    7   10 1   
    15    8    9 ar  
    16    8   39 1   
    17    9   40 1   
    18   10   11 1   
    19   10   21 1   
    20   10   41 1   
    21   11   12 1   
    22   11   15 1   
    23   12   13 1   
    24   12   42 1   
    25   12   43 1   
    26   13   14 1   
    27   13   29 1   
    28   13   44 1   
    29   14   15 1   
    30   14   45 1   
    31   14   46 1   
    32   15   16 1   
    33   15   47 1   
    34   16   17 1   
    35   16   21 1   
    36   16   48 1   
    37   17   18 1   
    38   17   33 2   
    39   18   19 1   
    40   18   22 1   
    41   19   20 2   
    42   19   21 1   
    43   21   49 1   
    44   22   23 1   
    45   22   50 1   
    46   22   51 1   
    47   23   24 ar  
    48   23   32 ar  
    49   24   25 ar  
    50   24   52 1   
    51   25   26 ar  
    52   25   53 1   
    53   26   27 1   
    54   26   31 ar  
    55   27   28 1   
    56   28   30 1   
    57   28   54 1   
    58   28   55 1   
    59   29   56 1   
    60   30   31 1   
    61   31   32 ar  
    62   32   57 1   
@<TRIPOS>SUBSTRUCTURE
     1 SHY         1 TEMP              0 ****  ****    0 ROOT
