@<TRIPOS>MOLECULE
SHY
   58    63     1     0     0
SMALL
bcc


@<TRIPOS>ATOM
      1 N1          0.5430   -0.9840    0.7430 n2        1 SHY     -0.673100
      2 C3          1.4240   -0.1870    0.3140 ce        1 SHY      0.638800
      3 N2          2.0150    0.9970    1.1010 n4        1 SHY     -0.894600
      4 C4          2.0490   -0.2190   -1.0260 ca        1 SHY     -0.221900
      5 C9          1.2750    0.0760   -2.1530 ca        1 SHY     -0.088000
      6 C8          1.8810    0.0990   -3.4080 ca        1 SHY     -0.096500
      7 C7          3.2510   -0.1670   -3.5420 ca        1 SHY     -0.013300
      8 C6          4.0020   -0.5180   -2.4120 ca        1 SHY     -0.096500
      9 C5          3.4050   -0.5420   -1.1540 ca        1 SHY     -0.088000
     10 C10         3.8660   -0.0660   -4.9150 c3        1 SHY      0.217800
     11 N11         4.9840   -1.0080   -5.1060 n3        1 SHY     -0.703600
     12 C12         4.6390   -2.2340   -5.8230 c3        1 SHY      0.146800
     13 C13         5.3720   -2.2600   -7.1890 c3        1 SHY      0.124100
     14 C14         6.2340   -0.9900   -7.2300 c3        1 SHY     -0.133400
     15 C15         6.0680   -0.3250   -5.8520 c3        1 SHY      0.174500
     16 C16         5.7430    1.1750   -5.9340 c3        1 SHY     -0.152700
     17 C17         6.7250    2.0090   -5.1120 c         1 SHY      0.707500
     18 N19         6.0320    2.6100   -4.0330 n         1 SHY     -0.505400
     19 C20         4.6680    2.2740   -4.0420 c         1 SHY      0.717500
     20 O21         3.8480    2.6850   -3.2090 o         1 SHY     -0.622500
     21 C22         4.3730    1.3620   -5.2370 c3        1 SHY     -0.149700
     22 C23         6.6300    3.5690   -3.1360 c3        1 SHY      0.152300
     23 C24         6.4950    5.0020   -3.5660 ca        1 SHY     -0.136300
     24 C32         5.2780    5.6620   -3.3910 ca        1 SHY     -0.118000
     25 C31         5.1050    7.0130   -3.7400 ca        1 SHY     -0.122000
     26 C30         6.2080    7.6520   -4.2680 ca        1 SHY      0.074100
     27 O29         6.3310    8.9670   -4.6950 os        1 SHY     -0.328900
     28 C28         7.6920    9.1310   -5.1650 c3        1 SHY      0.320200
     29 O20         6.1530   -3.4390   -7.1990 oh        1 SHY     -0.586800
     30 O27         8.3710    7.8630   -5.0010 os        1 SHY     -0.326900
     31 C26         7.4480    6.9800   -4.4530 ca        1 SHY      0.056100
     32 C25         7.6190    5.6550   -4.1150 ca        1 SHY     -0.092000
     33 O24         7.9320    2.1380   -5.3190 o         1 SHY     -0.552500
     34 H1N         0.1230   -0.9300    1.6450 hn        1 SHY      0.461400
     35 H2N1        3.0370    0.9140    1.0840 hn        1 SHY      0.456800
     36 H2N2        1.6960    1.0390    2.0690 hn        1 SHY      0.456800
     37 H9          0.1990    0.2850   -2.0580 ha        1 SHY      0.144500
     38 H8          1.2740    0.3400   -4.2950 ha        1 SHY      0.168500
     39 H6          5.0700   -0.7790   -2.5090 ha        1 SHY      0.168500
     40 H5          4.0000   -0.8380   -0.2770 ha        1 SHY      0.144500
     41 H10         3.0330   -0.2820   -5.6590 h1        1 SHY      0.060700
     42 H121        5.0020   -3.0960   -5.1940 h1        1 SHY      0.074700
     43 H122        3.5340   -2.3500   -5.9790 h1        1 SHY      0.074700
     44 H13         4.6410   -2.2800   -8.0400 h1        1 SHY      0.048700
     45 H141        7.3090   -1.2450   -7.4040 hc        1 SHY      0.070200
     46 H142        5.8980   -0.3160   -8.0550 hc        1 SHY      0.070200
     47 H15         7.0130   -0.4800   -5.2550 h1        1 SHY      0.098700
     48 H16         5.7420    1.5490   -6.9880 hc        1 SHY      0.112700
     49 H22         3.6320    1.8890   -5.8910 hc        1 SHY      0.106700
     50 H231        6.1340    3.4440   -2.1300 h1        1 SHY      0.073700
     51 H232        7.7240    3.3040   -3.0440 h1        1 SHY      0.073700
     52 H32         4.4210    5.1080   -2.9730 ha        1 SHY      0.144000
     53 H31         4.1460    7.5270   -3.5990 ha        1 SHY      0.159000
     54 H281        8.2000    9.8940   -4.5260 h2        1 SHY      0.081200
     55 H282        7.6640    9.3830   -6.2540 h2        1 SHY      0.081200
     56 H20         6.5960   -3.4800   -8.0560 ho        1 SHY      0.412000
     57 H25         8.5740    5.1330   -4.2670 ha        1 SHY      0.168000
     58 H23         1.7570    1.8640    0.6200 hn        1 SHY      0.456800
@<TRIPOS>BOND
     1    1    2 2   
     2    1   34 1   
     3    2    3 1   
     4    2    4 1   
     5    3   35 1   
     6    3   36 1   
     7    3   58 1   
     8    4    5 ar  
     9    4    9 ar  
    10    5    6 ar  
    11    5   37 1   
    12    6    7 ar  
    13    6   38 1   
    14    7    8 ar  
    15    7   10 1   
    16    8    9 ar  
    17    8   39 1   
    18    9   40 1   
    19   10   11 1   
    20   10   21 1   
    21   10   41 1   
    22   11   12 1   
    23   11   15 1   
    24   12   13 1   
    25   12   42 1   
    26   12   43 1   
    27   13   14 1   
    28   13   29 1   
    29   13   44 1   
    30   14   15 1   
    31   14   45 1   
    32   14   46 1   
    33   15   16 1   
    34   15   47 1   
    35   16   17 1   
    36   16   21 1   
    37   16   48 1   
    38   17   18 1   
    39   17   33 2   
    40   18   19 1   
    41   18   22 1   
    42   19   20 2   
    43   19   21 1   
    44   21   49 1   
    45   22   23 1   
    46   22   50 1   
    47   22   51 1   
    48   23   24 ar  
    49   23   32 ar  
    50   24   25 ar  
    51   24   52 1   
    52   25   26 ar  
    53   25   53 1   
    54   26   27 1   
    55   26   31 ar  
    56   27   28 1   
    57   28   30 1   
    58   28   54 1   
    59   28   55 1   
    60   29   56 1   
    61   30   31 1   
    62   31   32 ar  
    63   32   57 1   
@<TRIPOS>SUBSTRUCTURE
     1 SHY         1 TEMP              0 ****  ****    0 ROOT
