@<TRIPOS>MOLECULE
SHY
   58    63     1     0     0
SMALL
bcc


@<TRIPOS>ATOM
      1 N1          0.5570   -0.9780    0.7200 n2        1 SHY     -0.673100
      2 C3          1.4250   -0.1740    0.2780 ce        1 SHY      0.638800
      3 N2          1.9970    1.0320    1.0460 n4        1 SHY     -0.894600
      4 C4          2.0530   -0.2170   -1.0610 ca        1 SHY     -0.221900
      5 C9          1.2800    0.0640   -2.1920 ca        1 SHY     -0.088000
      6 C8          1.8890    0.0810   -3.4450 ca        1 SHY     -0.096500
      7 C7          3.2620   -0.1740   -3.5740 ca        1 SHY     -0.013300
      8 C6          4.0110   -0.5140   -2.4380 ca        1 SHY     -0.096500
      9 C5          3.4110   -0.5330   -1.1830 ca        1 SHY     -0.088000
     10 C10         3.8820   -0.0710   -4.9440 c3        1 SHY      0.217800
     11 N11         5.0000   -1.0140   -5.1310 n3        1 SHY     -0.701600
     12 C12         4.6630   -2.2280   -5.8710 c3        1 SHY      0.110800
     13 C13         5.4260   -2.2440   -7.2230 c3        1 SHY      0.125100
     14 C14         6.2910   -0.9780   -7.2330 c3        1 SHY     -0.095400
     15 C15         6.0980   -0.3250   -5.8530 c3        1 SHY      0.170500
     16 C16         5.7740    1.1750   -5.9310 c3        1 SHY     -0.151700
     17 C17         6.7420    2.0060   -5.0880 c         1 SHY      0.706500
     18 N19         6.0290    2.6060   -4.0210 n         1 SHY     -0.505400
     19 C20         4.6650    2.2710   -4.0570 c         1 SHY      0.716500
     20 O21         3.8290    2.6820   -3.2400 o         1 SHY     -0.623500
     21 C22         4.3920    1.3590   -5.2570 c3        1 SHY     -0.149700
     22 C23         6.6080    3.5670   -3.1140 c3        1 SHY      0.152300
     23 C24         6.4810    4.9990   -3.5480 ca        1 SHY     -0.136300
     24 C32         5.2600    5.6580   -3.3970 ca        1 SHY     -0.119000
     25 C31         5.0940    7.0090   -3.7500 ca        1 SHY     -0.122000
     26 C30         6.2070    7.6490   -4.2580 ca        1 SHY      0.074100
     27 O29         6.3370    8.9630   -4.6830 os        1 SHY     -0.328900
     28 C28         7.7060    9.1270   -5.1290 c3        1 SHY      0.320200
     29 O20         6.2990   -3.3530   -7.3020 oh        1 SHY     -0.581800
     30 O27         8.3820    7.8590   -4.9500 os        1 SHY     -0.326900
     31 C26         7.4490    6.9770   -4.4180 ca        1 SHY      0.056100
     32 C25         7.6150    5.6520   -4.0760 ca        1 SHY     -0.092000
     33 O24         7.9520    2.1340   -5.2700 o         1 SHY     -0.550500
     34 H1N         0.1360   -0.9150    1.6200 hn        1 SHY      0.461400
     35 H2N1        1.7290    1.8870    0.5470 hn        1 SHY      0.457133
     36 H2N2        1.6720    1.0880    2.0110 hn        1 SHY      0.457133
     37 H9          0.2020    0.2660   -2.1010 ha        1 SHY      0.144500
     38 H8          1.2830    0.3130   -4.3350 ha        1 SHY      0.168000
     39 H6          5.0810   -0.7690   -2.5320 ha        1 SHY      0.168000
     40 H5          4.0050   -0.8180   -0.3010 ha        1 SHY      0.144500
     41 H10         3.0530   -0.2830   -5.6920 h1        1 SHY      0.060700
     42 H121        5.0080   -3.0950   -5.2400 h1        1 SHY      0.064700
     43 H122        3.5590   -2.3360   -6.0430 h1        1 SHY      0.064700
     44 H13         4.7060   -2.2570   -8.0830 h1        1 SHY      0.048700
     45 H141        7.3670   -1.2440   -7.3890 hc        1 SHY      0.078700
     46 H142        5.9730   -0.3010   -8.0620 hc        1 SHY      0.078700
     47 H15         7.0310   -0.4850   -5.2390 h1        1 SHY      0.099700
     48 H16         5.7920    1.5560   -6.9820 hc        1 SHY      0.113700
     49 H22         3.6620    1.8840   -5.9240 hc        1 SHY      0.106700
     50 H231        6.0950    3.4420   -2.1170 h1        1 SHY      0.073200
     51 H232        7.7010    3.3020   -3.0010 h1        1 SHY      0.073200
     52 H32         4.3960    5.1040   -2.9940 ha        1 SHY      0.144000
     53 H31         4.1320    7.5230   -3.6290 ha        1 SHY      0.159000
     54 H281        8.2020    9.8910   -4.4810 h2        1 SHY      0.081700
     55 H282        7.6990    9.3770   -6.2180 h2        1 SHY      0.081700
     56 H20         5.7490   -4.1420   -7.3890 ho        1 SHY      0.408000
     57 H25         8.5730    5.1300   -4.2100 ha        1 SHY      0.168000
     58 H23         3.0200    0.9630    1.0340 hn        1 SHY      0.457133
@<TRIPOS>BOND
     1    1    2 2   
     2    1   34 1   
     3    2    3 1   
     4    2    4 1   
     5    3   35 1   
     6    3   36 1   
     7    3   58 1   
     8    4    5 ar  
     9    4    9 ar  
    10    5    6 ar  
    11    5   37 1   
    12    6    7 ar  
    13    6   38 1   
    14    7    8 ar  
    15    7   10 1   
    16    8    9 ar  
    17    8   39 1   
    18    9   40 1   
    19   10   11 1   
    20   10   21 1   
    21   10   41 1   
    22   11   12 1   
    23   11   15 1   
    24   12   13 1   
    25   12   42 1   
    26   12   43 1   
    27   13   14 1   
    28   13   29 1   
    29   13   44 1   
    30   14   15 1   
    31   14   45 1   
    32   14   46 1   
    33   15   16 1   
    34   15   47 1   
    35   16   17 1   
    36   16   21 1   
    37   16   48 1   
    38   17   18 1   
    39   17   33 2   
    40   18   19 1   
    41   18   22 1   
    42   19   20 2   
    43   19   21 1   
    44   21   49 1   
    45   22   23 1   
    46   22   50 1   
    47   22   51 1   
    48   23   24 ar  
    49   23   32 ar  
    50   24   25 ar  
    51   24   52 1   
    52   25   26 ar  
    53   25   53 1   
    54   26   27 1   
    55   26   31 ar  
    56   27   28 1   
    57   28   30 1   
    58   28   54 1   
    59   28   55 1   
    60   29   56 1   
    61   30   31 1   
    62   31   32 ar  
    63   32   57 1   
@<TRIPOS>SUBSTRUCTURE
     1 SHY         1 TEMP              0 ****  ****    0 ROOT
