@<TRIPOS>MOLECULE
SHY
   58    63     1     0     0
SMALL
bcc


@<TRIPOS>ATOM
      1 N1          0.5560   -1.0040    0.7430 n2        1 SHY     -0.673100
      2 C3          1.4360   -0.2060    0.3150 ce        1 SHY      0.638800
      3 N2          2.0320    0.9730    1.1070 nz        1 SHY     -0.894600
      4 C4          2.0570   -0.2320   -1.0270 ca        1 SHY     -0.221900
      5 C9          1.2800    0.0700   -2.1500 ca        1 SHY     -0.088000
      6 C8          1.8820    0.0980   -3.4070 ca        1 SHY     -0.096500
      7 C7          3.2510   -0.1680   -3.5470 ca        1 SHY     -0.013300
      8 C6          4.0060   -0.5250   -2.4210 ca        1 SHY     -0.096500
      9 C5          3.4130   -0.5550   -1.1620 ca        1 SHY     -0.088000
     10 C10         3.8610   -0.0600   -4.9220 c3        1 SHY      0.217800
     11 N11         4.9780   -1.0020   -5.1210 n3        1 SHY     -0.703600
     12 C12         4.6300   -2.2240   -5.8430 c3        1 SHY      0.146800
     13 C13         5.3590   -2.2430   -7.2110 c3        1 SHY      0.124100
     14 C14         6.2210   -0.9740   -7.2490 c3        1 SHY     -0.133400
     15 C15         6.0600   -0.3160   -5.8670 c3        1 SHY      0.174500
     16 C16         5.7360    1.1850   -5.9410 c3        1 SHY     -0.152700
     17 C17         6.7210    2.0140   -5.1180 c         1 SHY      0.707500
     18 N19         6.0320    2.6100   -4.0330 n         1 SHY     -0.505400
     19 C20         4.6680    2.2750   -4.0390 c         1 SHY      0.717500
     20 O21         3.8510    2.6820   -3.2020 o         1 SHY     -0.622500
     21 C22         4.3680    1.3700   -5.2380 c3        1 SHY     -0.149700
     22 C23         6.6330    3.5640   -3.1330 c3        1 SHY      0.152300
     23 C24         6.4970    5.0000   -3.5550 ca        1 SHY     -0.136300
     24 C32         5.2820    5.6590   -3.3730 ca        1 SHY     -0.118000
     25 C31         5.1090    7.0130   -3.7140 ca        1 SHY     -0.122000
     26 C30         6.2110    7.6540   -4.2430 ca        1 SHY      0.074100
     27 O29         6.3330    8.9700   -4.6630 os        1 SHY     -0.328900
     28 C28         7.6920    9.1360   -5.1380 c3        1 SHY      0.320200
     29 O20         6.1390   -3.4230   -7.2300 oh        1 SHY     -0.586800
     30 O27         8.3700    7.8660   -4.9830 os        1 SHY     -0.326900
     31 C26         7.4490    6.9820   -4.4360 ca        1 SHY      0.056100
     32 C25         7.6210    5.6540   -4.1050 ca        1 SHY     -0.092000
     33 O24         7.9270    2.1430   -5.3280 o         1 SHY     -0.552500
     34 H1N         0.1400   -0.9550    1.6460 hn        1 SHY      0.461400
     35 H2N1        3.0540    0.8890    1.0860 hn        1 SHY      0.456800
     36 H2N2        1.7730    1.8430    0.6300 hn        1 SHY      0.456800
     37 H9          0.2040    0.2790   -2.0500 ha        1 SHY      0.144500
     38 H8          1.2710    0.3440   -4.2910 ha        1 SHY      0.168500
     39 H6          5.0730   -0.7860   -2.5240 ha        1 SHY      0.168500
     40 H5          4.0110   -0.8560   -0.2880 ha        1 SHY      0.144500
     41 H10         3.0260   -0.2720   -5.6640 h1        1 SHY      0.060700
     42 H121        3.5240   -2.3380   -5.9960 h1        1 SHY      0.074700
     43 H122        4.9940   -3.0890   -5.2200 h1        1 SHY      0.074700
     44 H13         4.6250   -2.2590   -8.0600 h1        1 SHY      0.048700
     45 H141        5.8830   -0.2950   -8.0690 hc        1 SHY      0.070200
     46 H142        7.2950   -1.2280   -7.4270 hc        1 SHY      0.070200
     47 H15         7.0070   -0.4750   -5.2740 h1        1 SHY      0.098700
     48 H16         5.7320    1.5650   -6.9920 hc        1 SHY      0.112700
     49 H22         3.6260    1.9000   -5.8870 hc        1 SHY      0.106700
     50 H231        7.7280    3.2980   -3.0460 h1        1 SHY      0.073700
     51 H232        6.1410    3.4340   -2.1260 h1        1 SHY      0.073700
     52 H32         4.4260    5.1040   -2.9540 ha        1 SHY      0.144000
     53 H31         4.1510    7.5270   -3.5670 ha        1 SHY      0.159000
     54 H281        8.2030    9.8950   -4.4960 h2        1 SHY      0.081200
     55 H282        7.6600    9.3930   -6.2250 h2        1 SHY      0.081200
     56 H20         6.5790   -3.4590   -8.0890 ho        1 SHY      0.412000
     57 H25         8.5740    5.1330   -4.2630 ha        1 SHY      0.168000
     58 H23         1.7150    1.0110    2.0750 hn        1 SHY      0.456800
@<TRIPOS>BOND
     1    1    2 2   
     2    1   34 1   
     3    2    3 1   
     4    2    4 1   
     5    3   35 1   
     6    3   36 1   
     7    3   58 1   
     8    4    5 ar  
     9    4    9 ar  
    10    5    6 ar  
    11    5   37 1   
    12    6    7 ar  
    13    6   38 1   
    14    7    8 ar  
    15    7   10 1   
    16    8    9 ar  
    17    8   39 1   
    18    9   40 1   
    19   10   11 1   
    20   10   21 1   
    21   10   41 1   
    22   11   12 1   
    23   11   15 1   
    24   12   13 1   
    25   12   42 1   
    26   12   43 1   
    27   13   14 1   
    28   13   29 1   
    29   13   44 1   
    30   14   15 1   
    31   14   45 1   
    32   14   46 1   
    33   15   16 1   
    34   15   47 1   
    35   16   17 1   
    36   16   21 1   
    37   16   48 1   
    38   17   18 1   
    39   17   33 2   
    40   18   19 1   
    41   18   22 1   
    42   19   20 2   
    43   19   21 1   
    44   21   49 1   
    45   22   23 1   
    46   22   50 1   
    47   22   51 1   
    48   23   24 ar  
    49   23   32 ar  
    50   24   25 ar  
    51   24   52 1   
    52   25   26 ar  
    53   25   53 1   
    54   26   27 1   
    55   26   31 ar  
    56   27   28 1   
    57   28   30 1   
    58   28   54 1   
    59   28   55 1   
    60   29   56 1   
    61   30   31 1   
    62   31   32 ar  
    63   32   57 1   
@<TRIPOS>SUBSTRUCTURE
     1 SHY         1 TEMP              0 ****  ****    0 ROOT
