@<TRIPOS>MOLECULE
SI1
   58    58     1     0     0
SMALL
bcc


@<TRIPOS>ATOM
      1 N4         -9.8170    0.1230   -0.8110 nh        1 SI1     -0.957800
      2 N5         -8.8980    1.5420    0.9350 n2        1 SI1     -0.826100
      3 C18        -8.7810    0.6790   -0.0290 ce        1 SI1      0.649800
      4 C14        -7.4210    0.1260   -0.3290 ca        1 SI1     -0.135900
      5 C13        -6.3470    0.9990   -0.5310 ca        1 SI1     -0.103000
      6 C12        -5.0810    0.4860   -0.8100 ca        1 SI1     -0.124500
      7 C17        -4.8810   -0.8960   -0.8800 ca        1 SI1     -0.115300
      8 C16        -5.9550   -1.7640   -0.6680 ca        1 SI1     -0.124500
      9 C15        -7.2240   -1.2560   -0.3950 ca        1 SI1     -0.103000
     10 C11        -3.5140   -1.4340   -1.2020 c3        1 SI1      0.128300
     11 N3         -2.5530   -1.3060   -0.1390 n         1 SI1     -0.547900
     12 C10        -1.7260   -0.2070   -0.0270 c         1 SI1      0.631100
     13 O5         -1.6710    0.6720   -0.9110 o         1 SI1     -0.617100
     14 C8         -0.8400   -0.1240    1.2430 c3        1 SI1      0.032700
     15 N2          0.4270    0.5030    0.9490 n         1 SI1     -0.554900
     16 C7          1.6230   -0.1760    1.0990 c         1 SI1      0.655100
     17 O4          1.6820   -1.2870    1.6540 o         1 SI1     -0.585100
     18 C5          2.8890    0.5620    0.5910 c3        1 SI1      0.181500
     19 C6          3.1950    1.7240    1.5660 c3        1 SI1      0.114400
     20 O3          3.5260    1.1760    2.8280 oh        1 SI1     -0.588800
     21 N1          3.9850   -0.3430    0.4080 n3        1 SI1     -0.909100
     22 S1          4.9600   -0.3760   -0.8800 s6        1 SI1      1.460900
     23 O2          5.3400   -1.7020   -1.1610 o         1 SI1     -0.649800
     24 O1          4.3880    0.3740   -1.9300 o         1 SI1     -0.649800
     25 C1          6.3510    0.4660   -0.3130 c3        1 SI1     -0.317600
     26 C4          7.4020    0.5550   -1.3980 c3        1 SI1     -0.058400
     27 C3          8.6340    1.2930   -0.9200 c3        1 SI1     -0.072400
     28 C2          9.6770    1.3770   -2.0050 c3        1 SI1     -0.095100
     29 C9         -1.6510    0.6350    2.2960 c3        1 SI1     -0.106100
     30 H41       -10.6550    0.6520   -0.8850 hn        1 SI1      0.399300
     31 H42        -9.5280   -0.3060   -1.6590 hn        1 SI1      0.399300
     32 H51        -9.8150    1.8930    1.1110 hn        1 SI1      0.383400
     33 H14        -6.4980    2.0870   -0.4610 ha        1 SI1      0.147500
     34 H17        -4.2280    1.1660   -0.9760 ha        1 SI1      0.145000
     35 H16        -5.8030   -2.8530   -0.7180 ha        1 SI1      0.145000
     36 H15        -8.0630   -1.9460   -0.2190 ha        1 SI1      0.147500
     37 H11        -3.1160   -0.8860   -2.1070 h1        1 SI1      0.072700
     38 H12        -3.5920   -2.5300   -1.4560 h1        1 SI1      0.072700
     39 H31        -2.6930   -1.8730    0.6640 hn        1 SI1      0.311500
     40 H81        -0.6260   -1.1660    1.6350 h1        1 SI1      0.102700
     41 H21         0.3870    1.2920    0.3430 hn        1 SI1      0.325500
     42 H52         2.6550    1.0360   -0.4150 h1        1 SI1      0.097700
     43 H61         4.0620    2.3260    1.1780 h1        1 SI1      0.034700
     44 H62         2.2950    2.3890    1.6430 h1        1 SI1      0.034700
     45 H32         3.5470    1.9110    3.4530 ho        1 SI1      0.408000
     46 H13         4.0650   -0.9960    1.1580 hn        1 SI1      0.476800
     47 H22         6.8070   -0.0380    0.5800 h1        1 SI1      0.107200
     48 H23         6.1010    1.5060    0.0250 h1        1 SI1      0.107200
     49 H43         6.9710    1.0850   -2.2900 hc        1 SI1      0.061700
     50 H44         7.6900   -0.4820   -1.7220 hc        1 SI1      0.061700
     51 H33         9.0610    0.7670   -0.0250 hc        1 SI1      0.039200
     52 H34         8.3470    2.3260   -0.5900 hc        1 SI1      0.039200
     53 H24        10.5760    1.9250   -1.6340 hc        1 SI1      0.036367
     54 H25         9.9920    0.3560   -2.3290 hc        1 SI1      0.036367
     55 H26         9.2760    1.9190   -2.8960 hc        1 SI1      0.036367
     56 H91        -2.5990    0.0790    2.4950 hc        1 SI1      0.052700
     57 H92        -1.0740    0.7130    3.2480 hc        1 SI1      0.052700
     58 H93        -1.9050    1.6630    1.9430 hc        1 SI1      0.052700
@<TRIPOS>BOND
     1    1    3 1   
     2    1   30 1   
     3    1   31 1   
     4    2    3 2   
     5    2   32 1   
     6    3    4 1   
     7    4    5 ar  
     8    4    9 ar  
     9    5    6 ar  
    10    5   33 1   
    11    6    7 ar  
    12    6   34 1   
    13    7    8 ar  
    14    7   10 1   
    15    8    9 ar  
    16    8   35 1   
    17    9   36 1   
    18   10   11 1   
    19   10   37 1   
    20   10   38 1   
    21   11   12 1   
    22   11   39 1   
    23   12   13 2   
    24   12   14 1   
    25   14   15 1   
    26   14   29 1   
    27   14   40 1   
    28   15   16 1   
    29   15   41 1   
    30   16   17 2   
    31   16   18 1   
    32   18   19 1   
    33   18   21 1   
    34   18   42 1   
    35   19   20 1   
    36   19   43 1   
    37   19   44 1   
    38   20   45 1   
    39   21   22 1   
    40   21   46 1   
    41   22   23 2   
    42   22   24 2   
    43   22   25 1   
    44   25   26 1   
    45   25   47 1   
    46   25   48 1   
    47   26   27 1   
    48   26   49 1   
    49   26   50 1   
    50   27   28 1   
    51   27   51 1   
    52   27   52 1   
    53   28   53 1   
    54   28   54 1   
    55   28   55 1   
    56   29   56 1   
    57   29   57 1   
    58   29   58 1   
@<TRIPOS>SUBSTRUCTURE
     1 SI1         1 TEMP              0 ****  ****    0 ROOT
