@<TRIPOS>MOLECULE
SI1
   62    64     1     0     0
SMALL
bcc


@<TRIPOS>ATOM
      1 N4       -196.9890 -166.4840 -423.8100 nz        1 SI1     -0.112000
      2 N5       -195.3080 -164.7090 -424.2770 n2        1 SI1     -0.112000
      3 C18      -195.6200 -165.9310 -424.1790 c2        1 SI1      0.071000
      4 C14      -194.6290 -167.0220 -424.4180 ca        1 SI1     -0.064000
      5 C13      -194.7400 -167.8430 -425.5460 ca        1 SI1     -0.076000
      6 C12      -193.7550 -168.7970 -425.8040 ca        1 SI1     -0.086500
      7 C17      -192.6590 -168.9310 -424.9410 ca        1 SI1     -0.144000
      8 C16      -192.5570 -168.1090 -423.8120 ca        1 SI1     -0.086500
      9 C15      -193.5380 -167.1510 -423.5500 ca        1 SI1     -0.076000
     10 C11      -191.6510 -170.0070 -425.1790 c3        1 SI1     -0.076000
     11 N3       -190.5120 -169.5320 -426.0550 ny        1 SI1     -0.099000
     12 C10      -189.6420 -170.6680 -426.5140 c2        1 SI1      0.226000
     13 O5       -190.1890 -171.6250 -427.0360 o         1 SI1     -0.117000
     14 C8       -188.1290 -170.4990 -426.3190 c3        1 SI1     -0.071000
     15 N2       -187.4310 -171.8240 -426.3330 ny        1 SI1     -0.122000
     16 C7       -187.6460 -172.6730 -425.0830 c2        1 SI1      0.295000
     17 O4       -188.5470 -172.3070 -424.3490 o         1 SI1     -0.272000
     18 C5       -186.7230 -173.9160 -424.9440 c3        1 SI1      0.009000
     19 C6       -187.3800 -175.0280 -425.8000 c3        1 SI1     -0.044000
     20 O3       -187.5060 -174.5200 -427.1170 oh        1 SI1     -0.405000
     21 N1       -185.3830 -173.5720 -425.2880 n8        1 SI1     -0.406000
     22 S1        569.1690  497.7680    0.3160 s4        1 SI1      2.823000
     23 O2        570.3050  497.0530    0.3340 o         1 SI1     -0.747000
     24 O1        568.4150  497.9470    0.2190 o         1 SI1     -0.751000
     25 C1        568.6410  498.4000    0.6950 c2        1 SI1     -1.062000
     26 C4        569.6280  499.4290    0.2630 DU        1 SI1     -0.122000
     27 C3        569.9220  500.5100    0.2420 c3        1 SI1     -0.165000
     28 C2        571.0340  501.4120    0.7140 c3        1 SI1     -0.226000
     29 C9       -187.6020 -169.5650 -427.4080 c3        1 SI1     -0.264000
     30 H41      -197.7240 -165.7690 -423.8710 hn        1 SI1      0.266333
     31 H42      -197.2280 -167.2550 -424.4420 hn        1 SI1      0.266333
     32 H51      -195.9290 -163.9400 -424.1280 hn        1 SI1      0.247000
     33 H14      -195.5830 -167.7350 -426.2500 ha        1 SI1      0.178000
     34 H17      -193.8590 -169.4500 -426.6880 ha        1 SI1      0.166500
     35 H16      -191.7130 -168.2150 -423.1100 ha        1 SI1      0.166500
     36 H15      -193.4380 -166.4940 -422.6670 ha        1 SI1      0.178000
     37 H11      -191.2020 -170.3620 -424.2050 hx        1 SI1      0.172500
     38 H12      -192.1310 -170.8890 -425.7030 hx        1 SI1      0.172500
     39 H31      -190.9140 -169.0730 -426.8880 hn        1 SI1      0.273000
     40 H81      -187.9290 -170.0470 -425.2950 hx        1 SI1      0.172000
     41 H21      -186.4160 -171.6490 -426.4360 hn        1 SI1      0.304000
     42 H52      -186.8290 -174.2050 -423.8490 h1        1 SI1      0.180000
     43 H61      -186.7380 -175.9490 -425.7720 h1        1 SI1      0.135000
     44 H62      -188.4000 -175.2680 -425.3940 h1        1 SI1      0.135000
     45 H32      -187.5490 -175.2700 -427.7290 ho        1 SI1      0.277000
     46 H13      -185.0310 -174.0690 -426.0820 hn        1 SI1      0.225500
     47 H22       568.4610  497.6550    0.5360 DU        1 SI1      0.264000
     48 H23       567.6360  498.9280    0.6180 DU        1 SI1      0.253000
     49 H43       569.1860  499.8910    0.1870 DU        1 SI1      0.109000
     50 H44       570.5720  498.9090    0.5800 ha        1 SI1      0.127000
     51 H33       569.0010  501.1220    0.0470 hc        1 SI1      0.101000
     52 H34       570.2170  500.0280    0.2640 ha        1 SI1      0.127000
     53 H24       570.7500  501.9130    0.6720 DU        1 SI1      0.089500
     54 H25       571.9760  500.8340    0.8800 hc        1 SI1      0.091000
     55 H26       571.2330  502.2030    0.9490 DU        1 SI1      0.089500
     56 H91      -186.5000 -169.3910 -427.2800 hc        1 SI1      0.149333
     57 H92      -187.7770 -169.9770 -428.4340 hc        1 SI1      0.149333
     58 H93      -188.1060 -168.5700 -427.3260 hc        1 SI1      0.149333
     59 H431     -196.9620 -166.8440 -422.8480 hn        1 SI1      0.266333
     60 H321     -189.9560 -168.8340 -425.5460 hn        1 SI1      0.273000
     61 H221     -187.7310 -172.3980 -427.1460 hn        1 SI1      0.304000
     62 H121     -184.7490 -173.6050 -424.5140 hn        1 SI1      0.225500
@<TRIPOS>BOND
     1    1    3 1   
     2    1   30 1   
     3    1   31 1   
     4    1   59 1   
     5    2    3 1   
     6    2   32 1   
     7    3    4 1   
     8    4    5 1   
     9    4    9 1   
    10    5    6 1   
    11    5   33 1   
    12    6    7 1   
    13    6   34 1   
    14    7    8 1   
    15    7   10 1   
    16    8    9 1   
    17    8   35 1   
    18    9   36 1   
    19   10   11 1   
    20   10   37 1   
    21   10   38 1   
    22   11   12 1   
    23   11   39 1   
    24   11   60 1   
    25   12   13 1   
    26   12   14 1   
    27   14   15 1   
    28   14   29 1   
    29   14   40 1   
    30   15   16 1   
    31   15   41 1   
    32   15   61 1   
    33   16   17 1   
    34   16   18 1   
    35   18   19 1   
    36   18   21 1   
    37   18   42 1   
    38   19   20 1   
    39   19   43 1   
    40   19   44 1   
    41   20   45 1   
    42   21   46 1   
    43   21   62 1   
    44   22   23 1   
    45   22   26 1   
    46   22   47 1   
    47   24   48 1   
    48   25   26 1   
    49   25   47 1   
    50   25   48 1   
    51   26   27 1   
    52   26   49 1   
    53   26   50 1   
    54   26   52 1   
    55   27   28 1   
    56   27   49 1   
    57   27   51 1   
    58   28   53 1   
    59   28   54 1   
    60   28   55 1   
    61   29   56 1   
    62   29   57 1   
    63   29   58 1   
    64   53   55 1   
@<TRIPOS>SUBSTRUCTURE
     1 SI1         1 TEMP              0 ****  ****    0 ROOT
