@<TRIPOS>MOLECULE
SI1
   62    63     1     0     0
SMALL
bcc


@<TRIPOS>ATOM
      1 N4       -185.6710 -169.2430 -425.5880 n4        1 SI1     -0.112000
      2 N5       -184.9840 -167.6360 -427.3610 n2        1 SI1     -0.111000
      3 C18      -184.8170 -168.7230 -426.7350 c2        1 SI1      0.071000
      4 C14      -183.7130 -169.6690 -427.0750 ca        1 SI1     -0.065000
      5 C13      -183.7250 -170.3040 -428.3220 ca        1 SI1     -0.076000
      6 C12      -182.6560 -171.1240 -428.6880 ca        1 SI1     -0.087000
      7 C17      -181.5720 -171.3020 -427.8180 ca        1 SI1     -0.143000
      8 C16      -181.5670 -170.6620 -426.5720 ca        1 SI1     -0.087000
      9 C15      -182.6370 -169.8460 -426.1980 ca        1 SI1     -0.076000
     10 C11      -180.4710 -172.2410 -428.1850 c3        1 SI1     -0.076000
     11 N3       -179.4820 -171.6080 -429.1390 n4        1 SI1     -0.099000
     12 C10      -178.5620 -172.6220 -429.7590 c2        1 SI1      0.227000
     13 O5       -179.0630 -173.6260 -430.2370 o         1 SI1     -0.117000
     14 C8       -177.0660 -172.2760 -429.7730 c3        1 SI1     -0.071000
     15 N2       -176.2290 -173.5050 -429.9500 n4        1 SI1     -0.121000
     16 C7       -176.1490 -174.4080 -428.7210 c2        1 SI1      0.295000
     17 O4       -176.9610 -174.1740 -427.8440 o         1 SI1     -0.271000
     18 C5       -175.0780 -175.5340 -428.7810 c3        1 SI1      0.009000
     19 C6       -175.7290 -176.6930 -429.5760 c3        1 SI1     -0.044000
     20 O3       -176.1150 -176.1690 -430.8350 oh        1 SI1     -0.405000
     21 N1       -173.8560 -175.0220 -429.3080 n3        1 SI1     -0.406000
     22 S1        538.1870  503.6860    0.5450 ss        1 SI1      1.630000
     23 O2        539.1470  503.2080    0.3530 os        1 SI1     -0.721000
     24 O1        538.2720  503.6920    0.2050 os        1 SI1     -0.626000
     25 C1        536.8300  504.2300    0.2090 DU        1 SI1     -0.663000
     26 C4        537.0860  505.4440    0.1120 c3        1 SI1      0.261000
     27 C3        537.7990  506.5410    0.3470 c3        1 SI1     -0.245000
     28 C2        538.2290  507.6520    0.2690 c3        1 SI1     -0.234000
     29 C9       -176.8160 -171.2510 -430.8770 c3        1 SI1     -0.264000
     30 H41      -186.2000 -170.0640 -425.9040 hn        1 SI1      0.266333
     31 H42      -186.3350 -168.5370 -425.2480 hn        1 SI1      0.266333
     32 H51      -185.7060 -166.9700 -427.1770 hn        1 SI1      0.247000
     33 H14      -184.5640 -170.1550 -429.0240 ha        1 SI1      0.178000
     34 H17      -182.6880 -171.6410 -429.6630 ha        1 SI1      0.166000
     35 H16      -180.7290 -170.8030 -425.8680 ha        1 SI1      0.166000
     36 H15      -182.6050 -169.3310 -425.2220 ha        1 SI1      0.178000
     37 H11      -179.8950 -172.5710 -427.2710 hx        1 SI1      0.172500
     38 H12      -180.8960 -173.1570 -428.6990 hx        1 SI1      0.172500
     39 H31      -178.9420 -170.8870 -428.6450 hn        1 SI1      0.273000
     40 H81      -176.7740 -171.8360 -428.7660 hx        1 SI1      0.172000
     41 H21      -175.2690 -173.2050 -430.1950 hn        1 SI1      0.304000
     42 H52      -174.9780 -175.8630 -427.6960 h1        1 SI1      0.180000
     43 H61      -176.6390 -177.0640 -429.0310 h1        1 SI1      0.135000
     44 H62      -174.9890 -177.5320 -429.6860 h1        1 SI1      0.135000
     45 H32      -176.1660 -176.9030 -431.4660 ho        1 SI1      0.277000
     46 H13      -173.5790 -175.4510 -430.1680 hn        1 SI1      0.225500
     47 H22       536.2690  503.4810    0.8570 ha        1 SI1      0.198000
     48 H23       536.0330  504.5490    0.4610 ha        1 SI1      0.198000
     49 H43       536.1030  505.8290    0.4980 hc        1 SI1      0.187000
     50 H44       537.6840  505.1250    0.0090 DU        1 SI1      0.294000
     51 H33       537.1290  506.9560    0.5470 hc        1 SI1      0.192500
     52 H34       538.7060  506.1060    0.8320 hc        1 SI1      0.192500
     53 H24       537.3410  508.1070    0.7730 hc        1 SI1      0.112333
     54 H25       538.9280  507.2750    0.0550 hc        1 SI1      0.112333
     55 H26       538.7500  508.4510    0.6860 hc        1 SI1      0.112333
     56 H91      -175.7350 -170.9510 -430.9010 hc        1 SI1      0.149333
     57 H92      -177.4120 -170.3260 -430.6750 hc        1 SI1      0.149333
     58 H93      -177.0930 -171.6470 -431.8870 hc        1 SI1      0.149333
     59 H431     -185.0630 -169.5230 -424.8100 hn        1 SI1      0.266333
     60 H321     -180.0140 -171.1470 -429.8950 hn        1 SI1      0.273000
     61 H221     -176.5810 -174.0900 -430.7340 hn        1 SI1      0.304000
     62 H121     -173.1100 -175.0000 -428.6420 hn        1 SI1      0.225500
@<TRIPOS>BOND
     1    1    3 1   
     2    1   30 1   
     3    1   31 1   
     4    1   59 1   
     5    2    3 1   
     6    2   32 1   
     7    3    4 1   
     8    4    5 1   
     9    4    9 1   
    10    5    6 1   
    11    5   33 1   
    12    6    7 1   
    13    6   34 1   
    14    7    8 1   
    15    7   10 1   
    16    8    9 1   
    17    8   35 1   
    18    9   36 1   
    19   10   11 1   
    20   10   37 1   
    21   10   38 1   
    22   11   12 1   
    23   11   39 1   
    24   11   60 1   
    25   12   13 1   
    26   12   14 1   
    27   14   15 1   
    28   14   29 1   
    29   14   40 1   
    30   15   16 1   
    31   15   41 1   
    32   15   61 1   
    33   16   17 1   
    34   16   18 1   
    35   18   19 1   
    36   18   21 1   
    37   18   42 1   
    38   19   20 1   
    39   19   43 1   
    40   19   44 1   
    41   20   45 1   
    42   21   46 1   
    43   21   62 1   
    44   22   23 1   
    45   22   25 1   
    46   23   24 1   
    47   24   25 1   
    48   25   26 1   
    49   25   47 1   
    50   25   48 1   
    51   25   50 1   
    52   26   27 1   
    53   26   49 1   
    54   26   50 1   
    55   27   28 1   
    56   27   51 1   
    57   27   52 1   
    58   28   53 1   
    59   28   54 1   
    60   28   55 1   
    61   29   56 1   
    62   29   57 1   
    63   29   58 1   
@<TRIPOS>SUBSTRUCTURE
     1 SI1         1 TEMP              0 ****  ****    0 ROOT
