@<TRIPOS>MOLECULE
SI1
   62    60     1     0     0
SMALL
bcc


@<TRIPOS>ATOM
      1 N4       -264.6220 -248.9100 -657.9420 n4        1 SI1     -0.112000
      2 N5       -263.8600 -247.5450 -659.8800 n2        1 SI1     -0.111000
      3 C18      -264.3490 -248.6130 -659.4100 c2        1 SI1      0.071000
      4 C14      -264.7410 -249.7580 -660.2850 ca        1 SI1     -0.065000
      5 C13      -265.8090 -249.5970 -661.1750 ca        1 SI1     -0.076000
      6 C12      -266.1370 -250.6320 -662.0520 ca        1 SI1     -0.087000
      7 C17      -265.3970 -251.8210 -662.0490 ca        1 SI1     -0.143000
      8 C16      -264.3250 -251.9720 -661.1600 ca        1 SI1     -0.087000
      9 C15      -263.9960 -250.9420 -660.2770 ca        1 SI1     -0.076000
     10 C11      -265.8150 -252.9630 -662.9150 c3        1 SI1     -0.076000
     11 N3       -265.2740 -252.8500 -664.3210 n4        1 SI1     -0.099000
     12 C10      -265.7800 -253.9380 -665.2230 c2        1 SI1      0.227000
     13 O5       -266.2660 -254.9360 -664.7200 o         1 SI1     -0.117000
     14 C8       -265.6490 -253.7030 -666.7380 c3        1 SI1     -0.071000
     15 N2       -264.9630 -254.8690 -667.3810 n4        1 SI1     -0.122000
     16 C7       -263.5470 -255.1050 -666.8810 c2        1 SI1      0.295000
     17 O4       -263.2520 -254.4940 -665.8630 o         1 SI1     -0.272000
     18 C5       -262.6910 -256.1280 -667.6810 c3        1 SI1      0.009000
     19 C6       -263.0670 -257.5170 -667.1040 c3        1 SI1     -0.044000
     20 O3       -264.4770 -257.6320 -667.1910 oh        1 SI1     -0.405000
     21 N1       -262.8980 -255.9530 -669.0790 n3        1 SI1     -0.406000
     22 S1        781.8680  736.1500    0.7560 s4        1 SI1      2.719000
     23 O2        780.5390  736.2470    0.5840 oh        1 SI1     -0.696000
     24 O1        782.7300  735.8510    0.7710 o         1 SI1     -0.652000
     25 C1        782.4440  736.3490    0.2420 c2        1 SI1     -1.285000
     26 C4        783.4090  737.5390    0.3230 c3        1 SI1     -0.054000
     27 C3        782.7440  738.8050    0.8210 c2        1 SI1     -0.160000
     28 C2        783.7380  739.9320    0.7110 c2        1 SI1     -0.221000
     29 C9       -267.0510 -253.4780 -667.3010 c3        1 SI1     -0.264000
     30 H41      -264.1900 -248.2170 -657.3190 hn        1 SI1      0.266333
     31 H42      -265.6360 -248.9090 -657.7790 hn        1 SI1      0.266333
     32 H51      -263.5840 -246.7510 -659.3400 hn        1 SI1      0.247000
     33 H14      -266.3890 -248.6570 -661.1980 ha        1 SI1      0.178000
     34 H17      -266.9980 -250.5050 -662.7300 ha        1 SI1      0.166000
     35 H16      -263.7400 -252.9070 -661.1350 ha        1 SI1      0.166000
     36 H15      -263.1350 -251.0690 -659.5970 ha        1 SI1      0.178000
     37 H11      -266.9430 -253.0080 -662.9920 hx        1 SI1      0.172500
     38 H12      -265.4520 -253.9470 -662.4920 hx        1 SI1      0.172500
     39 H31      -265.5250 -251.9310 -664.7070 hn        1 SI1      0.273000
     40 H81      -265.0030 -252.7950 -666.9520 hx        1 SI1      0.172000
     41 H21      -265.4970 -255.7480 -667.2260 hn        1 SI1      0.304000
     42 H52      -261.6240 -255.8900 -667.3680 h1        1 SI1      0.180000
     43 H61      -262.5470 -258.3200 -667.6930 h1        1 SI1      0.135000
     44 H62      -262.7530 -257.5780 -666.0270 h1        1 SI1      0.135000
     45 H32      -264.7060 -258.5740 -667.2090 ho        1 SI1      0.277000
     46 H13      -263.3220 -256.7410 -669.5270 hn        1 SI1      0.225500
     47 H22       783.0180  735.4630    0.6660 DU        1 SI1      0.361000
     48 H23       781.6490  736.5270    0.0370 DU        1 SI1      0.307000
     49 H43       784.3370  737.3110    0.7320 h1        1 SI1      0.068000
     50 H44       783.7310  737.6790    0.3910 DU        1 SI1      0.102000
     51 H33       782.2850  738.6070    0.8080 DU        1 SI1      0.102000
     52 H34       781.9100  739.1060    0.5100 ha        1 SI1      0.106000
     53 H24       783.2270  740.8560    0.3420 ha        1 SI1      0.101500
     54 H25       784.5610  739.6740    0.0010 ha        1 SI1      0.101500
     55 H26       784.1870  740.1540    0.7100 DU        1 SI1      0.102000
     56 H91      -267.7240 -254.3490 -667.0960 hc        1 SI1      0.149333
     57 H92      -267.4950 -252.5640 -666.8340 hc        1 SI1      0.149333
     58 H93      -267.0100 -253.3070 -668.4090 hc        1 SI1      0.149333
     59 H431     -264.2530 -249.8370 -657.7070 hn        1 SI1      0.266333
     60 H321     -264.2420 -252.9180 -664.2970 hn        1 SI1      0.273000
     61 H221     -264.9340 -254.7040 -668.4030 hn        1 SI1      0.304000
     62 H121     -262.0890 -255.6310 -669.5710 hn        1 SI1      0.225500
@<TRIPOS>BOND
     1    1    3 1   
     2    1   30 1   
     3    1   31 1   
     4    1   59 1   
     5    2    3 1   
     6    2   32 1   
     7    3    4 1   
     8    4    5 1   
     9    4    9 1   
    10    5    6 1   
    11    5   33 1   
    12    6    7 1   
    13    6   34 1   
    14    7    8 1   
    15    7   10 1   
    16    8    9 1   
    17    8   35 1   
    18    9   36 1   
    19   10   11 1   
    20   10   37 1   
    21   10   38 1   
    22   11   12 1   
    23   11   39 1   
    24   11   60 1   
    25   12   13 1   
    26   12   14 1   
    27   14   15 1   
    28   14   29 1   
    29   14   40 1   
    30   15   16 1   
    31   15   41 1   
    32   15   61 1   
    33   16   17 1   
    34   16   18 1   
    35   18   19 1   
    36   18   21 1   
    37   18   42 1   
    38   19   20 1   
    39   19   43 1   
    40   19   44 1   
    41   20   45 1   
    42   21   46 1   
    43   21   62 1   
    44   22   23 1   
    45   22   47 1   
    46   22   48 1   
    47   23   48 1   
    48   24   26 1   
    49   25   26 1   
    50   25   47 1   
    51   25   48 1   
    52   26   27 1   
    53   26   49 1   
    54   27   28 1   
    55   27   52 1   
    56   28   53 1   
    57   28   54 1   
    58   29   56 1   
    59   29   57 1   
    60   29   58 1   
@<TRIPOS>SUBSTRUCTURE
     1 SI1         1 TEMP              0 ****  ****    0 ROOT
