@<TRIPOS>MOLECULE
SI2
   40    40     1     0     0
SMALL
bcc


@<TRIPOS>ATOM
      1 C1          0.0230   -0.3360   -0.3980 c         1 SI2      0.912600
      2 C2         -0.9610    0.6000    0.4030 c3        1 SI2      0.189600
      3 C3         -0.5990    0.7010    1.8870 c3        1 SI2     -0.132400
      4 C4          0.5950    1.6100    2.1180 c3        1 SI2      0.127100
      5 C5          0.4940    2.9490    1.3430 c3        1 SI2      0.081500
      6 C6          0.1860    2.6210   -0.1320 c3        1 SI2      0.092100
      7 C7          0.0440    3.8720   -1.0140 c3        1 SI2      0.132100
      8 C8          0.2830    3.4900   -2.4850 c3        1 SI2      0.121100
      9 C9         -0.1950    4.6000   -3.4270 c3        1 SI2      0.099400
     10 C11        -2.9150    3.3230    1.5920 c3        1 SI2     -0.198100
     11 N5         -0.4550    3.9530    1.9500 n4        1 SI2     -0.672800
     12 O1A        -0.5370   -1.1820   -1.1300 o         1 SI2     -0.782300
     13 O1B         1.2510   -0.1300   -0.2240 o         1 SI2     -0.782300
     14 O2         -2.3050    0.2320    0.2940 oh        1 SI2     -0.615800
     15 O4          0.8430    1.9030    3.4790 oh        1 SI2     -0.610800
     16 O6         -1.0370    1.9170   -0.2070 os        1 SI2     -0.475600
     17 O7         -1.2250    4.4760   -0.8220 oh        1 SI2     -0.641800
     18 O8          1.6860    3.3220   -2.6100 oh        1 SI2     -0.599800
     19 O9          0.0780    4.1370   -4.7390 oh        1 SI2     -0.601800
     20 O10        -1.7370    3.1910    3.7180 o         1 SI2     -0.468100
     21 H31        -1.4880    1.0340    2.4820 hc        1 SI2      0.068700
     22 H32        -0.3310   -0.3340    2.2330 hc        1 SI2      0.068700
     23 H4          1.5260    1.0930    1.7150 h1        1 SI2      0.158700
     24 H5          1.5080    3.4510    1.3930 hx        1 SI2      0.101700
     25 H6          1.0460    1.9800   -0.5140 h1        1 SI2      0.170700
     26 H7          0.7920    4.6550   -0.7070 h1        1 SI2      0.079700
     27 H8         -0.2510    2.5280   -2.7250 h1        1 SI2      0.087700
     28 H91        -1.2940    4.7770   -3.2950 h1        1 SI2      0.034200
     29 H92         0.3660    5.5500   -3.2250 h1        1 SI2      0.034200
     30 H111       -2.8250    2.3610    1.0020 hc        1 SI2      0.120700
     31 H112       -3.8540    3.2880    2.1990 hc        1 SI2      0.120700
     32 H113       -2.9590    4.1740    0.8680 hc        1 SI2      0.120700
     33 HN5         0.0540    4.4010    2.7220 hn        1 SI2      0.458800
     34 HO2        -2.3690   -0.3680   -0.4730 ho        1 SI2      0.460000
     35 HO4         0.0670    1.6510    3.9980 ho        1 SI2      0.419000
     36 HO7        -1.8910    3.8460   -1.1400 ho        1 SI2      0.438000
     37 HO8         1.8380    2.9490   -3.4890 ho        1 SI2      0.437000
     38 HO9        -0.1730    4.8450   -5.3430 ho        1 SI2      0.410000
     39 C10        -1.7540    3.4340    2.5160 c         1 SI2      0.578100
     40 H52        -0.6820    4.6480    1.2240 hn        1 SI2      0.458800
@<TRIPOS>BOND
     1    1    2 1   
     2    1   12 1   
     3    1   13 1   
     4    2    3 1   
     5    2   14 1   
     6    2   16 1   
     7    3    4 1   
     8    3   21 1   
     9    3   22 1   
    10    4    5 1   
    11    4   15 1   
    12    4   23 1   
    13    5    6 1   
    14    5   11 1   
    15    5   24 1   
    16    6    7 1   
    17    6   16 1   
    18    6   25 1   
    19    7    8 1   
    20    7   17 1   
    21    7   26 1   
    22    8    9 1   
    23    8   18 1   
    24    8   27 1   
    25    9   19 1   
    26    9   28 1   
    27    9   29 1   
    28   10   30 1   
    29   10   31 1   
    30   10   32 1   
    31   10   39 1   
    32   11   33 1   
    33   11   39 1   
    34   11   40 1   
    35   14   34 1   
    36   15   35 1   
    37   17   36 1   
    38   18   37 1   
    39   19   38 1   
    40   20   39 2   
@<TRIPOS>SUBSTRUCTURE
     1 SI2         1 TEMP              0 ****  ****    0 ROOT
