@<TRIPOS>MOLECULE
SI2
   40    51     1     0     0
SMALL
bcc


@<TRIPOS>ATOM
      1 C1          1.5050    0.0000    0.0000 c2        1 SI2      0.339000
      2 C2          0.0000    0.0000    0.0000 c3        1 SI2      0.235000
      3 C3         -0.5670    0.0000    1.4170 DU        1 SI2      0.149000
      4 C4         -0.4110    1.3540    2.1010 DU        1 SI2      0.222000
      5 C5         -0.9360    2.4780    1.2010 DU        1 SI2     -0.174000
      6 C6         -0.3310    2.3700   -0.2080 DU        1 SI2     -0.065000
      7 C7         -0.9670    3.3610   -1.1790 DU        1 SI2     -0.009000
      8 C8         -0.4150    3.2370   -2.6040 DU        1 SI2     -0.185000
      9 C9         -0.9440    4.2860   -3.5790 c3        1 SI2      0.007000
     10 C11        -1.1040    5.9200    2.7720 c3        1 SI2     -0.295000
     11 N5         -0.6470    3.7630    1.7940 ny        1 SI2     -0.059000
     12 O1A         1.9850   -1.0990    0.6310 o         1 SI2     -0.449500
     13 O1B         2.2080    0.8660   -0.5010 o         1 SI2     -0.449500
     14 O2         -0.3500   -1.2510   -0.5910 oh        1 SI2     -0.438000
     15 O4         -1.1460    1.3180    3.3210 oh        1 SI2     -0.275000
     16 O6         -0.5430    1.0650   -0.7600 os        1 SI2     -0.252000
     17 O7         -2.3750    3.1410   -1.1670 oh        1 SI2     -0.236000
     18 O8          1.0070    3.3960   -2.5430 oh        1 SI2     -0.401000
     19 O9         -0.3340    4.0800   -4.8500 oh        1 SI2     -0.203000
     20 O10        -2.8400    4.4900    2.0830 o         1 SI2     -0.285000
     21 H31        -0.7870    1.0450    1.6000 DU        1 SI2     -0.103500
     22 H32        -0.0470   -0.7490    2.0020 ha        1 SI2      0.175000
     23 H4         -1.0260    0.5420    1.7330 DU        1 SI2     -0.103500
     24 H5         -0.1420    2.0000    1.7610 DU        1 SI2      0.148000
     25 H6         -1.1830    2.3690    0.4610 DU        1 SI2      0.173000
     26 H7         -0.1070    2.9570   -0.6600 DU        1 SI2      0.095000
     27 H8         -0.5950    3.8100   -1.7030 DU        1 SI2      0.133000
     28 H91        -0.7930    3.2550   -3.2810 DU        1 SI2      0.113000
     29 H92        -0.7000    5.2770   -3.2140 h1        1 SI2      0.107000
     30 H111       -1.2520    5.6410    1.7360 DU        1 SI2      0.228000
     31 H112       -0.4820    6.4230    2.0410 hc        1 SI2      0.111500
     32 H113       -0.5260    5.7280    3.6670 hc        1 SI2      0.111500
     33 HN5        -1.0430    4.6050    2.1640 DU        1 SI2     -0.348000
     34 HO2        -0.3070   -0.3510   -0.3130 ho        1 SI2      0.297000
     35 HO4        -0.9630    0.6660    2.6660 ho        1 SI2      0.264000
     36 HO7        -2.0950    2.7810   -0.3420 ho        1 SI2      0.217000
     37 HO8         0.1090    3.5220   -2.2850 DU        1 SI2      0.303000
     38 HO9         0.3110    3.6910   -4.2830 ho        1 SI2      0.231000
     39 C10        -1.6300    4.6550    2.1810 DU        1 SI2      0.567000
     40 H52        -0.0760    3.5570    2.5900 hn        1 SI2      0.105000
@<TRIPOS>BOND
     1    1    2 1   
     2    1   12 1   
     3    1   13 1   
     4    2    3 1   
     5    2   14 1   
     6    2   16 1   
     7    3    4 1   
     8    3   21 1   
     9    3   22 1   
    10    3   23 1   
    11    4    5 1   
    12    4   15 1   
    13    4   21 1   
    14    4   23 1   
    15    4   24 1   
    16    5    6 1   
    17    5   11 1   
    18    5   24 1   
    19    5   25 1   
    20    6    7 1   
    21    6   16 1   
    22    6   25 1   
    23    6   26 1   
    24    7    8 1   
    25    7   17 1   
    26    7   26 1   
    27    7   27 1   
    28    8    9 1   
    29    8   18 1   
    30    8   27 1   
    31    8   28 1   
    32    8   37 1   
    33    9   19 1   
    34    9   28 1   
    35    9   29 1   
    36   10   30 1   
    37   10   31 1   
    38   10   32 1   
    39   10   39 1   
    40   11   33 1   
    41   11   39 1   
    42   11   40 1   
    43   14   34 1   
    44   15   35 1   
    45   17   36 1   
    46   18   37 1   
    47   19   38 1   
    48   20   39 1   
    49   21   23 1   
    50   30   39 1   
    51   33   39 1   
@<TRIPOS>SUBSTRUCTURE
     1 SI2         1 TEMP              0 ****  ****    0 ROOT
