@<TRIPOS>MOLECULE
SI2
   39    37     1     0     0
SMALL
bcc


@<TRIPOS>ATOM
      1 C1          3.7170   -0.6450    0.3590 c1        1 SI2      0.343000
      2 C2          2.2010   -0.7620    0.3200 c2        1 SI2      0.104000
      3 C3          1.6080   -0.7960    1.7450 c3        1 SI2     -0.191000
      4 C4          0.1230   -0.7830    1.7550 c3        1 SI2      0.037000
      5 C5         -0.4530    0.3500    0.9490 c3        1 SI2     -0.024000
      6 C6          0.1020    0.4240   -0.4450 c3        1 SI2     -0.017000
      7 C7         -0.4390   -0.8050   -1.2780 c3        1 SI2      0.013000
      8 C8         -1.5810   -0.3530   -2.1510 c3        1 SI2      0.032000
      9 C9         -1.2280   -0.5980   -3.6330 c3        1 SI2     -0.049000
     10 C10        -1.1610    2.2090    2.4180 c1        1 SI2      0.294000
     11 C11        -0.8870    3.5670    3.0950 c2        1 SI2     -0.239000
     12 N5         -0.1670    1.6020    1.6320 n3        1 SI2     -0.349000
     13 O1A         4.3120    0.1780   -0.4040 o         1 SI2     -0.550000
     14 O1B         4.3840   -1.3780    1.1380 o         1 SI2     -0.550000
     15 O2          2.0450   -1.9350   -0.3170 oh        1 SI2     -0.375000
     16 O4         -0.3530   -2.0300    1.2160 oh        1 SI2     -0.344000
     17 O6          1.5530    0.4260   -0.4770 os        1 SI2     -0.287000
     18 O7          0.5730   -1.3120   -2.0650 oh        1 SI2     -0.357000
     19 O8         -2.7310   -1.0710   -1.8230 oh        1 SI2     -0.344000
     20 O9         -2.2930   -0.0790   -4.4790 oh        1 SI2     -0.351000
     21 O10        -2.2600    1.6840    2.5250 o         1 SI2     -0.422000
     22 H31         1.9310   -0.0250    2.2360 hc        1 SI2      0.098000
     23 H32         1.9270   -1.6360    2.2100 hc        1 SI2      0.098000
     24 H4         -0.1980   -0.6940    2.7160 h1        1 SI2      0.132000
     25 H5         -1.3940    0.2380    0.8970 h1        1 SI2      0.129000
     26 H6         -0.2210    1.2620   -0.8680 h1        1 SI2      0.118000
     27 H7         -0.7640   -1.5190   -0.6480 h1        1 SI2      0.092000
     28 H8         -1.7460    0.6220   -2.0040 h1        1 SI2      0.103000
     29 H91        -1.1270   -1.5490   -3.7890 h1        1 SI2      0.085000
     30 H92        -0.3930   -0.1450   -3.8470 h1        1 SI2      0.085000
     31 H111       -0.5720    4.2150    2.4170 ha        1 SI2      0.098333
     32 H112       -1.7140    3.9010    3.5080 ha        1 SI2      0.098333
     33 H113       -0.1810    3.4510    3.8040 ha        1 SI2      0.098333
     34 HN5         0.5960    2.0360    1.4650 hn        1 SI2      0.281000
     35 HO2         2.7890   -2.4690   -0.1660 ho        1 SI2      0.238000
     36 HO4        -0.8190   -2.4840    1.8630 ho        1 SI2      0.210000
     37 HO7         0.3390   -2.1690   -2.3630 ho        1 SI2      0.248000
     38 HO8        -3.4180   -0.6820   -2.1580 ho        1 SI2      0.217000
     39 HO9        -2.0980   -0.2490   -5.3480 ho        1 SI2      0.196000
@<TRIPOS>BOND
     1    1   13 1   
     2    1   14 1   
     3    2    3 1   
     4    2   15 1   
     5    2   17 1   
     6    3    4 1   
     7    3   22 1   
     8    3   23 1   
     9    4    5 1   
    10    4   16 1   
    11    4   24 1   
    12    5    6 1   
    13    5   12 1   
    14    5   25 1   
    15    6    7 1   
    16    6   17 1   
    17    6   26 1   
    18    7    8 1   
    19    7   18 1   
    20    7   27 1   
    21    8    9 1   
    22    8   19 1   
    23    8   28 1   
    24    9   20 1   
    25    9   29 1   
    26    9   30 1   
    27   10   12 1   
    28   10   21 1   
    29   11   31 1   
    30   11   32 1   
    31   11   33 1   
    32   12   34 1   
    33   15   35 1   
    34   16   36 1   
    35   18   37 1   
    36   19   38 1   
    37   20   39 1   
@<TRIPOS>SUBSTRUCTURE
     1 SI2         1 TEMP              0 ****  ****    0 ROOT
