@<TRIPOS>MOLECULE
SI2
   39    39     1     0     0
SMALL
bcc


@<TRIPOS>ATOM
      1 C1          1.3100    0.1880    0.0810 c         1 SI2      0.894600
      2 C2          1.5980    1.6940    0.4000 c3        1 SI2      0.215600
      3 C3          0.5040    2.3960    1.2030 c3        1 SI2     -0.106400
      4 C4          0.5110    1.9250    2.6500 c3        1 SI2      0.111100
      5 C5          1.9280    2.1350    3.2550 c3        1 SI2      0.036700
      6 C6          2.9080    1.3200    2.3750 c3        1 SI2      0.101100
      7 C7          4.3750    1.4370    2.8140 c3        1 SI2      0.127100
      8 C8          5.2630    0.5570    1.9110 c3        1 SI2      0.078100
      9 C9          6.6980    0.5320    2.4430 c3        1 SI2      0.137400
     10 C11         1.5030    2.0680    7.0480 c3        1 SI2     -0.175100
     11 N5          2.0070    1.7620    4.6500 n         1 SI2     -0.533900
     12 O1A         1.1410   -0.6100    1.0410 o         1 SI2     -0.816800
     13 O1B         1.3060   -0.1170   -1.1410 o         1 SI2     -0.816800
     14 O2          1.8390    2.4490   -0.7600 oh        1 SI2     -0.608800
     15 O4         -0.4810    2.5910    3.4100 oh        1 SI2     -0.612800
     16 O6          2.8800    1.8350    1.0490 os        1 SI2     -0.462600
     17 O7          4.8360    2.7750    2.7670 oh        1 SI2     -0.607800
     18 O8          4.8280   -0.7930    1.9050 oh        1 SI2     -0.627800
     19 O9          7.5530   -0.2190    1.6040 oh        1 SI2     -0.615800
     20 O10         1.3050    3.8210    5.4140 o         1 SI2     -0.629100
     21 H31        -0.4870    2.1620    0.7390 hc        1 SI2      0.055700
     22 H32         0.6590    3.5050    1.1570 hc        1 SI2      0.055700
     23 H4          0.2250    0.8320    2.6860 h1        1 SI2      0.114700
     24 H5          2.1990    3.2290    3.1780 h1        1 SI2      0.088700
     25 H6          2.5870    0.2370    2.3780 h1        1 SI2      0.102700
     26 H7          4.4880    1.1240    3.8870 h1        1 SI2      0.074700
     27 H8          5.2450    0.9730    0.8640 h1        1 SI2      0.067700
     28 H91         6.7140    0.0990    3.4790 h1        1 SI2      0.047200
     29 H92         7.1160    1.5720    2.4540 h1        1 SI2      0.047200
     30 H111        2.4870    1.6390    7.3540 hc        1 SI2      0.058367
     31 H112        1.2320    2.8950    7.7470 hc        1 SI2      0.058367
     32 H113        0.7230    1.2720    7.1070 hc        1 SI2      0.058367
     33 HN5         1.9760    0.7870    4.8370 hn        1 SI2      0.301500
     34 HO2         2.0580    1.8170   -1.4660 ho        1 SI2      0.435000
     35 HO4        -0.1810    3.5000    3.5450 ho        1 SI2      0.406000
     36 HO7         4.5440    3.1450    1.9220 ho        1 SI2      0.421000
     37 HO8         4.0070   -0.8280    1.3880 ho        1 SI2      0.443000
     38 HO9         7.0960   -1.0490    1.4110 ho        1 SI2      0.414000
     39 C10         1.5740    2.6220    5.6430 c         1 SI2      0.660100
@<TRIPOS>BOND
     1    1    2 1   
     2    1   12 1   
     3    1   13 1   
     4    2    3 1   
     5    2   14 1   
     6    2   16 1   
     7    3    4 1   
     8    3   21 1   
     9    3   22 1   
    10    4    5 1   
    11    4   15 1   
    12    4   23 1   
    13    5    6 1   
    14    5   11 1   
    15    5   24 1   
    16    6    7 1   
    17    6   16 1   
    18    6   25 1   
    19    7    8 1   
    20    7   17 1   
    21    7   26 1   
    22    8    9 1   
    23    8   18 1   
    24    8   27 1   
    25    9   19 1   
    26    9   28 1   
    27    9   29 1   
    28   10   30 1   
    29   10   31 1   
    30   10   32 1   
    31   10   39 1   
    32   11   33 1   
    33   11   39 1   
    34   14   34 1   
    35   15   35 1   
    36   17   36 1   
    37   18   37 1   
    38   19   38 1   
    39   20   39 2   
@<TRIPOS>SUBSTRUCTURE
     1 SI2         1 TEMP              0 ****  ****    0 ROOT
