@<TRIPOS>MOLECULE
SI3
   39    38     1     0     0
SMALL
bcc


@<TRIPOS>ATOM
      1 O1A        -5.3550   -0.1060   -1.4480 o         1 SI3     -0.804800
      2 C1         -4.9830    0.0020   -0.2510 c         1 SI3      0.861600
      3 O1B        -5.5100    0.7210    0.6370 o         1 SI3     -0.804800
      4 C2         -3.7200   -0.7760    0.1580 c         1 SI3      0.471100
      5 O2         -3.7040   -1.9270    0.6150 o         1 SI3     -0.604100
      6 C3         -2.4440    0.0110   -0.0160 c3        1 SI3     -0.240400
      7 C4         -1.1820   -0.8230    0.1380 c3        1 SI3      0.139100
      8 O4         -1.0440   -1.3300    1.4590 oh        1 SI3     -0.635800
      9 C5          0.0880    0.0220   -0.1670 c3        1 SI3      0.072700
     10 N5          0.3130    1.0370    0.8370 n         1 SI3     -0.549900
     11 C10         0.5680    2.3560    0.5220 c         1 SI3      0.647100
     12 C11         0.4250    3.3710    1.6320 c3        1 SI3     -0.177100
     13 O10         0.9530    2.6950   -0.6180 o         1 SI3     -0.629100
     14 C6          1.3020   -0.9370   -0.3130 c3        1 SI3      0.103100
     15 O6          1.0070   -1.9790   -1.2270 oh        1 SI3     -0.596800
     16 C7          2.5640   -0.1990   -0.8060 c3        1 SI3      0.064100
     17 O7          2.9710   -0.7150   -2.0620 oh        1 SI3     -0.600800
     18 C8          3.7210   -0.3170    0.2040 c3        1 SI3      0.113100
     19 O8          3.3240    0.0610    1.5060 oh        1 SI3     -0.582800
     20 C9          4.9060    0.5300   -0.2790 c3        1 SI3      0.096400
     21 O9          6.0910   -0.1140    0.1630 oh        1 SI3     -0.598800
     22 H2         -2.4670    0.4780   -1.0360 hc        1 SI3      0.076700
     23 H3         -2.4690    0.8350    0.7450 hc        1 SI3      0.076700
     24 H4         -1.2110   -1.6870   -0.5860 h1        1 SI3      0.064700
     25 H5         -1.8370   -1.8610    1.6300 ho        1 SI3      0.442000
     26 H6         -0.0720    0.5270   -1.1680 h1        1 SI3      0.078700
     27 H7         -0.0540    0.8220    1.7380 hn        1 SI3      0.328500
     28 H8          1.0170    3.0710    2.5290 hc        1 SI3      0.065033
     29 H9          0.7910    4.3600    1.2650 hc        1 SI3      0.065033
     30 H10        -0.6500    3.4660    1.9190 hc        1 SI3      0.065033
     31 H11         1.4920   -1.4630    0.6660 h1        1 SI3      0.110700
     32 H12         0.7370   -1.5660   -2.0590 ho        1 SI3      0.409000
     33 H13         2.3420    0.8880   -1.0160 h1        1 SI3      0.107700
     34 H14         3.0850   -1.6700   -1.9590 ho        1 SI3      0.410000
     35 H15         4.0430   -1.3920    0.3130 h1        1 SI3      0.093700
     36 H16         2.9140    0.9330    1.4410 ho        1 SI3      0.399000
     37 H17         4.9010    0.5900   -1.4010 h1        1 SI3      0.036200
     38 H18         4.8460    1.5640    0.1540 h1        1 SI3      0.036200
     39 H19         6.8260    0.4260   -0.1480 ho        1 SI3      0.392000
@<TRIPOS>BOND
     1    1    2 1   
     2    2    3 1   
     3    2    4 1   
     4    4    5 2   
     5    4    6 1   
     6    6    7 1   
     7    6   22 1   
     8    6   23 1   
     9    7    8 1   
    10    7    9 1   
    11    7   24 1   
    12    8   25 1   
    13    9   10 1   
    14    9   14 1   
    15    9   26 1   
    16   10   11 1   
    17   10   27 1   
    18   11   12 1   
    19   11   13 2   
    20   12   28 1   
    21   12   29 1   
    22   12   30 1   
    23   14   15 1   
    24   14   16 1   
    25   14   31 1   
    26   15   32 1   
    27   16   17 1   
    28   16   18 1   
    29   16   33 1   
    30   17   34 1   
    31   18   19 1   
    32   18   20 1   
    33   18   35 1   
    34   19   36 1   
    35   20   21 1   
    36   20   37 1   
    37   20   38 1   
    38   21   39 1   
@<TRIPOS>SUBSTRUCTURE
     1 SI3         1 TEMP              0 ****  ****    0 ROOT
