@<TRIPOS>MOLECULE
SI5
   44    47     1     0     0
SMALL
bcc


@<TRIPOS>ATOM
      1 C1         -0.0630    0.0060    0.0780 ca        1 SI5     -0.160300
      2 C2          1.2700    0.4320    0.1720 ca        1 SI5     -0.075000
      3 C3          1.9320    0.5410    1.3870 ca        1 SI5     -0.174000
      4 C4          1.2560    0.2250    2.5800 ca        1 SI5      0.185900
      5 C5         -0.0820   -0.1900    2.5310 ca        1 SI5     -0.195000
      6 C6         -0.7350   -0.2910    1.2900 ca        1 SI5      0.163900
      7 F1         -2.0330   -0.6830    1.3080 f         1 SI5     -0.129900
      8 C7         -1.9640    0.9340   -1.2480 c3        1 SI5      0.143400
      9 O1         -2.7530    0.8320   -2.4120 os        1 SI5     -0.400600
     10 C8         -3.4160   -0.4440   -2.5140 c3        1 SI5      0.231400
     11 C9         -2.3780   -1.5600   -2.6090 c3        1 SI5     -0.113400
     12 C10        -4.2760   -0.3930   -3.7080 cc        1 SI5     -0.297600
     13 F2          1.8900    0.3240    3.7660 f         1 SI5     -0.107900
     14 C11        -0.7750   -0.0890   -1.2650 c3        1 SI5      0.180500
     15 C12        -1.3770   -1.5160   -1.4640 c3        1 SI5     -0.101700
     16 C13        -0.2980   -2.5570   -1.6530 c3        1 SI5     -0.012300
     17 S1          0.7460   -2.2800   -3.0700 ss        1 SI5     -0.167300
     18 C14         0.6870   -0.5610   -3.1310 c2        1 SI5      0.486100
     19 N1          0.0990    0.2960   -2.3740 n2        1 SI5     -0.536900
     20 N2          1.4570   -0.0080   -4.2870 n4        1 SI5     -0.802600
     21 C15        -4.4460   -1.4090   -4.7240 cc        1 SI5      0.299200
     22 N3         -5.3500   -0.9990   -5.6470 nd        1 SI5     -0.493800
     23 N4         -5.7590    0.2280   -5.2780 na        1 SI5      0.097400
     24 C16        -5.1410    0.6460   -4.0980 cd        1 SI5     -0.098300
     25 C17        -6.7630    0.9860   -5.9900 c3        1 SI5      0.033600
     26 H1          1.8400    0.7120   -0.7280 ha        1 SI5      0.133000
     27 H2          2.9790    0.8800    1.4290 ha        1 SI5      0.169000
     28 H3         -0.6280   -0.4300    3.4580 ha        1 SI5      0.186000
     29 H4         -1.5850    1.9910   -1.2480 h1        1 SI5      0.085200
     30 H5         -2.5780    0.7380   -0.3290 h1        1 SI5      0.085200
     31 H6         -4.0450   -0.5900   -1.5860 h1        1 SI5      0.061700
     32 H7         -2.9120   -2.5470   -2.5900 hc        1 SI5      0.065700
     33 H8         -1.8470   -1.4850   -3.5940 hc        1 SI5      0.065700
     34 H9         -1.9330   -1.7770   -0.5160 hc        1 SI5      0.119700
     35 H10        -0.7540   -3.5660   -1.8330 h1        1 SI5      0.112700
     36 H11         0.3470   -2.6150   -0.7410 h1        1 SI5      0.112700
     37 H12         0.9770   -0.2810   -5.1540 hn        1 SI5      0.473467
     38 H13         2.4020   -0.4060   -4.2760 hn        1 SI5      0.473467
     39 H14        -3.9620   -2.3830   -4.7860 h4        1 SI5      0.039100
     40 H15        -5.3370    1.6150   -3.6370 h4        1 SI5      0.188000
     41 H16        -6.8050    2.0190   -5.5560 h1        1 SI5      0.067700
     42 H17        -7.7650    0.4900   -5.8820 h1        1 SI5      0.067700
     43 H18        -6.5000    1.0440   -7.0800 h1        1 SI5      0.067700
     44 H23         1.5170    1.0200   -4.2490 hn        1 SI5      0.473467
@<TRIPOS>BOND
     1    1    2 ar  
     2    1    6 ar  
     3    1   14 1   
     4    2    3 ar  
     5    2   26 1   
     6    3    4 ar  
     7    3   27 1   
     8    4    5 ar  
     9    4   13 1   
    10    5    6 ar  
    11    5   28 1   
    12    6    7 1   
    13    8    9 1   
    14    8   14 1   
    15    8   29 1   
    16    8   30 1   
    17    9   10 1   
    18   10   11 1   
    19   10   12 1   
    20   10   31 1   
    21   11   15 1   
    22   11   32 1   
    23   11   33 1   
    24   12   21 1   
    25   12   24 2   
    26   14   15 1   
    27   14   19 1   
    28   15   16 1   
    29   15   34 1   
    30   16   17 1   
    31   16   35 1   
    32   16   36 1   
    33   17   18 1   
    34   18   19 2   
    35   18   20 1   
    36   20   37 1   
    37   20   38 1   
    38   20   44 1   
    39   21   22 2   
    40   21   39 1   
    41   22   23 1   
    42   23   24 1   
    43   23   25 1   
    44   24   40 1   
    45   25   41 1   
    46   25   42 1   
    47   25   43 1   
@<TRIPOS>SUBSTRUCTURE
     1 SI5         1 TEMP              0 ****  ****    0 ROOT
