@<TRIPOS>MOLECULE
SI5
   44    47     1     0     0
SMALL
bcc


@<TRIPOS>ATOM
      1 C1         -0.0590   -0.0340    0.0800 ca        1 SI5     -0.160300
      2 C2          1.2700    0.4030    0.1800 ca        1 SI5     -0.075000
      3 C3          1.9360    0.4870    1.3950 ca        1 SI5     -0.174000
      4 C4          1.2670    0.1330    2.5830 ca        1 SI5      0.185900
      5 C5         -0.0680   -0.2940    2.5280 ca        1 SI5     -0.195000
      6 C6         -0.7230   -0.3690    1.2860 ca        1 SI5      0.163900
      7 F1         -2.0170   -0.7740    1.2980 f         1 SI5     -0.129900
      8 C7         -1.9740    0.9090   -1.2150 c3        1 SI5      0.143400
      9 O1         -2.7650    0.8300   -2.3790 os        1 SI5     -0.400600
     10 C8         -3.4160   -0.4500   -2.5130 c3        1 SI5      0.231400
     11 C9         -2.3670   -1.5520   -2.6400 c3        1 SI5     -0.113400
     12 C10        -4.2810   -0.3760   -3.7020 cc        1 SI5     -0.297600
     13 F2          1.9040    0.2070    3.7690 f         1 SI5     -0.107900
     14 C11        -0.7750   -0.1020   -1.2620 c3        1 SI5      0.180500
     15 C12        -1.3630   -1.5280   -1.4970 c3        1 SI5     -0.101700
     16 C13        -0.2750   -2.5540   -1.7160 c3        1 SI5     -0.012300
     17 S1          0.7620   -2.2290   -3.1290 ss        1 SI5     -0.167300
     18 C14         0.6860   -0.5110   -3.1450 c2        1 SI5      0.486100
     19 N1          0.0910    0.3210   -2.3650 n2        1 SI5     -0.536900
     20 N2          1.4460    0.0800   -4.2890 nz        1 SI5     -0.802600
     21 C15        -4.4440   -1.3670   -4.7430 cc        1 SI5      0.299200
     22 N3         -5.3550   -0.9420   -5.6530 nd        1 SI5     -0.493800
     23 N4         -5.7750    0.2700   -5.2510 na        1 SI5      0.097400
     24 C16        -5.1570    0.6640   -4.0620 cd        1 SI5     -0.098300
     25 C17        -6.7880    1.0360   -5.9390 c3        1 SI5      0.033600
     26 H1          1.8350    0.7120   -0.7130 ha        1 SI5      0.133000
     27 H2          2.9790    0.8350    1.4430 ha        1 SI5      0.169000
     28 H3         -0.6070   -0.5630    3.4500 ha        1 SI5      0.186000
     29 H4         -1.6050    1.9700   -1.1890 h1        1 SI5      0.085200
     30 H5         -2.5820    0.6830   -0.3000 h1        1 SI5      0.085200
     31 H6         -4.0400   -0.6260   -1.5870 h1        1 SI5      0.061700
     32 H7         -2.8920   -2.5450   -2.6440 hc        1 SI5      0.065700
     33 H8         -1.8400   -1.4470   -3.6240 hc        1 SI5      0.065700
     34 H9         -1.9140   -1.8190   -0.5550 hc        1 SI5      0.119700
     35 H10         0.3740   -2.6290   -0.8070 h1        1 SI5      0.112700
     36 H11        -0.7210   -3.5620   -1.9210 h1        1 SI5      0.112700
     37 H12         2.3960   -0.3070   -4.2900 hn        1 SI5      0.473467
     38 H13         1.4950    1.1070   -4.2250 hn        1 SI5      0.473467
     39 H14        -3.9500   -2.3340   -4.8330 h4        1 SI5      0.039100
     40 H15        -5.3610    1.6180   -3.5750 h4        1 SI5      0.188000
     41 H16        -6.5320    1.1220   -7.0290 h1        1 SI5      0.067700
     42 H17        -7.7860    0.5290   -5.8380 h1        1 SI5      0.067700
     43 H18        -6.8370    2.0580   -5.4810 h1        1 SI5      0.067700
     44 H23         0.9670   -0.1760   -5.1600 hn        1 SI5      0.473467
@<TRIPOS>BOND
     1    1    2 ar  
     2    1    6 ar  
     3    1   14 1   
     4    2    3 ar  
     5    2   26 1   
     6    3    4 ar  
     7    3   27 1   
     8    4    5 ar  
     9    4   13 1   
    10    5    6 ar  
    11    5   28 1   
    12    6    7 1   
    13    8    9 1   
    14    8   14 1   
    15    8   29 1   
    16    8   30 1   
    17    9   10 1   
    18   10   11 1   
    19   10   12 1   
    20   10   31 1   
    21   11   15 1   
    22   11   32 1   
    23   11   33 1   
    24   12   21 1   
    25   12   24 2   
    26   14   15 1   
    27   14   19 1   
    28   15   16 1   
    29   15   34 1   
    30   16   17 1   
    31   16   35 1   
    32   16   36 1   
    33   17   18 1   
    34   18   19 2   
    35   18   20 1   
    36   20   37 1   
    37   20   38 1   
    38   20   44 1   
    39   21   22 2   
    40   21   39 1   
    41   22   23 1   
    42   23   24 1   
    43   23   25 1   
    44   24   40 1   
    45   25   41 1   
    46   25   42 1   
    47   25   43 1   
@<TRIPOS>SUBSTRUCTURE
     1 SI5         1 TEMP              0 ****  ****    0 ROOT
