@<TRIPOS>MOLECULE
SI6
   41    44     1     0     0
SMALL
bcc


@<TRIPOS>ATOM
      1 C1         -0.1460   -0.1770    0.0620 ca        1 SI6     -0.173000
      2 C2          1.2400   -0.1100    0.0210 ca        1 SI6     -0.075000
      3 C3          2.0230    0.0020    1.1790 ca        1 SI6     -0.160300
      4 C4          1.3410    0.0190    2.4210 ca        1 SI6      0.163900
      5 C5         -0.0620   -0.0450    2.4870 ca        1 SI6     -0.195000
      6 C6         -0.8080   -0.1410    1.3040 ca        1 SI6      0.185900
      7 F1         -2.1540   -0.2020    1.3570 f         1 SI6     -0.106900
      8 F2          2.0090    0.0950    3.5990 f         1 SI6     -0.130900
      9 C7          3.5430    0.0550    1.1100 c3        1 SI6      0.180500
     10 C8          4.0970   -1.2170    1.8450 c3        1 SI6      0.143400
     11 O1          5.5030   -1.1870    1.9450 os        1 SI6     -0.392600
     12 C9          5.9660   -0.1040    2.7730 c3        1 SI6      0.230400
     13 C10         5.5760    1.2270    2.1270 c3        1 SI6     -0.114400
     14 C11         4.0800    1.3150    1.8600 c3        1 SI6     -0.102700
     15 C12         3.7350    2.5920    1.1300 c3        1 SI6     -0.013300
     16 S1          4.4000    2.6990   -0.5190 ss        1 SI6     -0.165300
     17 C13         4.4050    1.0290   -0.9290 c2        1 SI6      0.486100
     18 N1          4.0290   -0.0100   -0.2700 n2        1 SI6     -0.538900
     19 N2          4.9640    0.7810   -2.2940 n4        1 SI6     -0.802600
     20 C14         7.4280   -0.2350    2.8930 cc        1 SI6     -0.288600
     21 C15         8.2350    0.1250    3.9890 cd        1 SI6     -0.118300
     22 N3          9.5410   -0.1920    3.6240 na        1 SI6     -0.006600
     23 N4          9.6170   -0.7320    2.4060 nd        1 SI6     -0.500800
     24 C16         8.3510   -0.7790    1.9190 cc        1 SI6      0.318200
     25 H1         -0.7330   -0.2660   -0.8640 ha        1 SI6      0.169000
     26 H2          1.7060   -0.1650   -0.9760 ha        1 SI6      0.133000
     27 H3         -0.5660   -0.0280    3.4670 ha        1 SI6      0.186000
     28 H4          3.6230   -1.2650    2.8610 h1        1 SI6      0.087200
     29 H5          3.8710   -2.1500    1.2620 h1        1 SI6      0.087200
     30 H6          5.4790   -0.1890    3.7880 h1        1 SI6      0.060700
     31 H7          6.1500    1.3530    1.1720 hc        1 SI6      0.064700
     32 H8          5.8750    2.0620    2.8130 hc        1 SI6      0.064700
     33 H9          3.5590    1.3510    2.8620 hc        1 SI6      0.117700
     34 H10         4.1690    3.4780    1.6650 h1        1 SI6      0.112200
     35 H11         2.6250    2.7180    1.0760 h1        1 SI6      0.112200
     36 H12         4.8990   -0.2120   -2.5580 hn        1 SI6      0.473133
     37 H13         4.4430    1.3480   -2.9710 hn        1 SI6      0.473133
     38 H14         7.9850    0.5610    4.9550 h4        1 SI6      0.185000
     39 H15        10.3620   -0.0800    4.1760 hn        1 SI6      0.334700
     40 H16         8.1080   -1.2060    0.9480 h4        1 SI6      0.043100
     41 H23         5.9520    1.0620   -2.2940 hn        1 SI6      0.473133
@<TRIPOS>BOND
     1    1    2 ar  
     2    1    6 ar  
     3    1   25 1   
     4    2    3 ar  
     5    2   26 1   
     6    3    4 ar  
     7    3    9 1   
     8    4    5 ar  
     9    4    8 1   
    10    5    6 ar  
    11    5   27 1   
    12    6    7 1   
    13    9   10 1   
    14    9   14 1   
    15    9   18 1   
    16   10   11 1   
    17   10   28 1   
    18   10   29 1   
    19   11   12 1   
    20   12   13 1   
    21   12   20 1   
    22   12   30 1   
    23   13   14 1   
    24   13   31 1   
    25   13   32 1   
    26   14   15 1   
    27   14   33 1   
    28   15   16 1   
    29   15   34 1   
    30   15   35 1   
    31   16   17 1   
    32   17   18 2   
    33   17   19 1   
    34   19   36 1   
    35   19   37 1   
    36   19   41 1   
    37   20   21 2   
    38   20   24 1   
    39   21   22 1   
    40   21   38 1   
    41   22   23 1   
    42   22   39 1   
    43   23   24 2   
    44   24   40 1   
@<TRIPOS>SUBSTRUCTURE
     1 SI6         1 TEMP              0 ****  ****    0 ROOT
