@<TRIPOS>MOLECULE
SIA
   40    40     1     0     0
SMALL
bcc


@<TRIPOS>ATOM
      1 C1          1.7750    0.1940    0.6230 c         1 SIA      0.907600
      2 C2          0.2230   -0.0090    0.5160 c3        1 SIA      0.215600
      3 C3         -0.5500    0.2610    1.8050 c3        1 SIA     -0.107400
      4 C4         -0.2470    1.6730    2.2670 c3        1 SIA      0.130100
      5 C5         -0.2260    2.7310    1.1220 c3        1 SIA      0.112500
      6 C6         -0.0170    2.1980   -0.3300 c3        1 SIA      0.117100
      7 C7         -0.8630    3.0130   -1.3340 c3        1 SIA      0.144100
      8 C8          0.0750    3.7790   -2.2900 c3        1 SIA      0.110100
      9 C9         -0.7450    4.5940   -3.2930 c3        1 SIA      0.098400
     10 C11         1.3130    3.9660    3.8800 c3        1 SIA     -0.189100
     11 N5          0.8870    3.7230    1.3780 n4        1 SIA     -0.690800
     12 O1A         2.2200    1.2560    1.1610 o         1 SIA     -0.814300
     13 O1B         2.4770   -0.7240    0.1500 o         1 SIA     -0.814300
     14 O2         -0.1310   -1.2630    0.0210 oh        1 SIA     -0.580800
     15 O4         -1.1490    2.1360    3.2570 oh        1 SIA     -0.625800
     16 O6         -0.3750    0.8460   -0.4900 os        1 SIA     -0.435600
     17 O7         -1.7620    2.2240   -2.0780 oh        1 SIA     -0.584800
     18 O8          0.8740    4.6350   -1.4810 oh        1 SIA     -0.656800
     19 O9          0.1950    5.3020   -4.0850 oh        1 SIA     -0.618800
     20 O10         0.0630    5.5540    2.5300 o         1 SIA     -0.464100
     21 H31        -0.2360   -0.4700    2.5930 hc        1 SIA      0.076700
     22 H32        -1.6460    0.1220    1.6140 hc        1 SIA      0.076700
     23 H4          0.7600    1.6420    2.7900 h1        1 SIA      0.116700
     24 H5         -1.1960    3.3080    1.1800 hx        1 SIA      0.092700
     25 H6          1.0810    2.2880   -0.6060 h1        1 SIA      0.091700
     26 H7         -1.5210    3.7580   -0.8020 h1        1 SIA      0.071700
     27 H8          0.7450    3.0630   -2.8430 h1        1 SIA      0.070700
     28 H91        -1.3670    3.9020   -3.9190 h1        1 SIA      0.049200
     29 H92        -1.4110    5.3220   -2.7560 h1        1 SIA      0.049200
     30 H111        1.5540    4.8170    4.5650 hc        1 SIA      0.109700
     31 H112        0.5540    3.3010    4.3780 hc        1 SIA      0.109700
     32 H113        2.2390    3.3700    3.6830 hc        1 SIA      0.109700
     33 HN5         0.9300    4.3640    0.5720 hn        1 SIA      0.493800
     34 HO2         0.6430   -1.6100   -0.4600 ho        1 SIA      0.448000
     35 HO4        -2.0310    1.8050    3.0480 ho        1 SIA      0.420000
     36 HO7        -1.3270    1.3890   -2.3080 ho        1 SIA      0.438000
     37 HO8         1.3610    5.2130   -2.0850 ho        1 SIA      0.445000
     38 HO9        -0.2970    5.7150   -4.8040 ho        1 SIA      0.416000
     39 C10         0.7010    4.5120    2.6340 c         1 SIA      0.567100
     40 H52         1.7690    3.1620    1.4170 hn        1 SIA      0.493800
@<TRIPOS>BOND
     1    1    2 1   
     2    1   12 1   
     3    1   13 1   
     4    2    3 1   
     5    2   14 1   
     6    2   16 1   
     7    3    4 1   
     8    3   21 1   
     9    3   22 1   
    10    4    5 1   
    11    4   15 1   
    12    4   23 1   
    13    5    6 1   
    14    5   11 1   
    15    5   24 1   
    16    6    7 1   
    17    6   16 1   
    18    6   25 1   
    19    7    8 1   
    20    7   17 1   
    21    7   26 1   
    22    8    9 1   
    23    8   18 1   
    24    8   27 1   
    25    9   19 1   
    26    9   28 1   
    27    9   29 1   
    28   10   30 1   
    29   10   31 1   
    30   10   32 1   
    31   10   39 1   
    32   11   33 1   
    33   11   39 1   
    34   11   40 1   
    35   14   34 1   
    36   15   35 1   
    37   17   36 1   
    38   18   37 1   
    39   19   38 1   
    40   20   39 2   
@<TRIPOS>SUBSTRUCTURE
     1 SIA         1 TEMP              0 ****  ****    0 ROOT
