@<TRIPOS>MOLECULE
SIA
   39    39     1     0     0
SMALL
bcc


@<TRIPOS>ATOM
      1 C1         -3.1390   -0.3510    0.0150 c         1 SIA      0.895600
      2 C2         -2.3780    0.9120    0.5440 c3        1 SIA      0.218600
      3 C3         -1.9490    0.8220    2.0070 c3        1 SIA     -0.110400
      4 C4         -0.8120   -0.1770    2.1680 c3        1 SIA      0.117100
      5 C5          0.3710    0.1940    1.2340 c3        1 SIA      0.087700
      6 C6         -0.2000    0.2640   -0.2150 c3        1 SIA      0.105100
      7 C7          0.8620    0.7270   -1.2340 c3        1 SIA      0.118100
      8 C8          1.2730   -0.4390   -2.1670 c3        1 SIA      0.108100
      9 C9          2.0490    0.1110   -3.3690 c3        1 SIA      0.096400
     10 C11         3.7570   -1.5780    1.5280 c3        1 SIA     -0.179100
     11 N5          1.4440   -0.7660    1.3420 n         1 SIA     -0.538900
     12 O1A        -4.1950   -0.1140   -0.6300 o         1 SIA     -0.815800
     13 O1B        -2.6630   -1.4910    0.2590 o         1 SIA     -0.815800
     14 O2         -3.1280    2.0870    0.3760 oh        1 SIA     -0.607800
     15 O4         -0.3210   -0.1620    3.5070 oh        1 SIA     -0.613800
     16 O6         -1.2370    1.2310   -0.2790 os        1 SIA     -0.453600
     17 O7          0.4350    1.8260   -2.0150 oh        1 SIA     -0.607800
     18 O8          2.0460   -1.3970   -1.4670 oh        1 SIA     -0.591800
     19 O9          2.1620   -0.9330   -4.3240 oh        1 SIA     -0.596800
     20 O10         3.1740    0.7520    1.4070 o         1 SIA     -0.642100
     21 H31        -2.8290    0.4920    2.6150 hc        1 SIA      0.053200
     22 H32        -1.6280    1.8330    2.3670 hc        1 SIA      0.053200
     23 H4         -1.1900   -1.2120    1.9130 h1        1 SIA      0.091700
     24 H5          0.7650    1.2100    1.5270 h1        1 SIA      0.097700
     25 H6         -0.6160   -0.7480   -0.4970 h1        1 SIA      0.095700
     26 H7          1.7780    1.1060   -0.6930 h1        1 SIA      0.078700
     27 H8          0.3720   -1.0140   -2.5220 h1        1 SIA      0.103700
     28 H91         1.5000    0.9870   -3.8060 h1        1 SIA      0.035700
     29 H92         3.0760    0.4370   -3.0500 h1        1 SIA      0.035700
     30 H111        4.7900   -1.1600    1.5870 hc        1 SIA      0.059367
     31 H112        3.5560   -2.1840    2.4430 hc        1 SIA      0.059367
     32 H113        3.6780   -2.2370    0.6290 hc        1 SIA      0.059367
     33 HN5         1.1910   -1.7210    1.2500 hn        1 SIA      0.318500
     34 HO2        -3.7480    1.9180   -0.3530 ho        1 SIA      0.434000
     35 HO4        -1.0910   -0.2920    4.0730 ho        1 SIA      0.392000
     36 HO7        -0.5210    1.7600   -2.1460 ho        1 SIA      0.431000
     37 HO8         2.8290   -0.9390   -1.1320 ho        1 SIA      0.389000
     38 HO9         2.4680   -0.5200   -5.1390 ho        1 SIA      0.386000
     39 C10         2.7720   -0.4330    1.4240 c         1 SIA      0.654100
@<TRIPOS>BOND
     1    1    2 1   
     2    1   12 1   
     3    1   13 1   
     4    2    3 1   
     5    2   14 1   
     6    2   16 1   
     7    3    4 1   
     8    3   21 1   
     9    3   22 1   
    10    4    5 1   
    11    4   15 1   
    12    4   23 1   
    13    5    6 1   
    14    5   11 1   
    15    5   24 1   
    16    6    7 1   
    17    6   16 1   
    18    6   25 1   
    19    7    8 1   
    20    7   17 1   
    21    7   26 1   
    22    8    9 1   
    23    8   18 1   
    24    8   27 1   
    25    9   19 1   
    26    9   28 1   
    27    9   29 1   
    28   10   30 1   
    29   10   31 1   
    30   10   32 1   
    31   10   39 1   
    32   11   33 1   
    33   11   39 1   
    34   14   34 1   
    35   15   35 1   
    36   17   36 1   
    37   18   37 1   
    38   19   38 1   
    39   20   39 2   
@<TRIPOS>SUBSTRUCTURE
     1 SIA         1 TEMP              0 ****  ****    0 ROOT
