@<TRIPOS>MOLECULE
SIA
   40    48     1     0     0
SMALL
bcc


@<TRIPOS>ATOM
      1 C1          1.5060    0.0000    0.0000 c2        1 SIA      0.329000
      2 C2          0.0000    0.0000    0.0000 c3        1 SIA      0.237000
      3 C3         -0.5080    0.0000    1.4440 DU        1 SIA      0.030000
      4 C4          0.0340    1.2400    2.1640 DU        1 SIA      0.264000
      5 C5         -0.3300    2.4820    1.3430 DU        1 SIA     -0.149000
      6 C6          0.1630    2.2960   -0.0910 DU        1 SIA      0.027000
      7 C7         -0.1690    3.5430   -0.9110 DU        1 SIA      0.061000
      8 C8          0.3320    3.3610   -2.3450 DU        1 SIA      0.167000
      9 C9          0.0000    4.6100   -3.1650 c3        1 SIA      0.111000
     10 C11         0.3190    5.5910    3.4790 c3        1 SIA     -0.344000
     11 N5          0.3070    3.6620    1.9320 ny        1 SIA     -0.085000
     12 O1A         2.1780   -0.6950    0.9310 o         1 SIA     -0.518000
     13 O1B         2.1100    0.6270   -0.8380 o         1 SIA     -0.518000
     14 O2         -0.4750   -1.1700   -0.6700 oh        1 SIA     -0.474000
     15 O4         -0.5500    1.3350    3.4660 oh        1 SIA     -0.309000
     16 O6         -0.4730    1.1610   -0.6780 os        1 SIA     -0.286000
     17 O7         -1.5840    3.7430   -0.9240 oh        1 SIA     -0.275000
     18 O8          1.7470    3.1610   -2.3330 oh        1 SIA     -0.389000
     19 O9          0.4690    4.4390   -4.5040 oh        1 SIA     -0.153000
     20 O10        -1.4450    4.0420    3.2370 o         1 SIA     -0.286000
     21 H31        -0.4960    1.0260    1.7910 DU        1 SIA     -0.102500
     22 H32        -0.1600   -0.8930    1.9500 ha        1 SIA      0.171000
     23 H4         -0.7860    0.6300    1.8040 DU        1 SIA     -0.102500
     24 H5          0.3970    1.8210    1.7990 DU        1 SIA      0.159000
     25 H6         -0.6310    2.4530    0.6290 DU        1 SIA      0.111000
     26 H7          0.5400    2.8370   -0.4950 DU        1 SIA      0.041000
     27 H8          0.3240    3.8890   -1.3990 DU        1 SIA      0.062000
     28 H91        -0.0770    3.5450   -2.9780 DU        1 SIA      0.022000
     29 H92        -1.0720    4.7610   -3.1750 h1        1 SIA      0.128000
     30 H111        0.3480    5.5710    2.3960 hc        1 SIA      0.097333
     31 H112        0.5580    6.2670    2.6670 hc        1 SIA      0.097333
     32 H113        1.2340    5.2650    3.9590 hc        1 SIA      0.097333
     33 HN5         0.1250    4.3820    2.6020 hn        1 SIA     -0.064000
     34 HO2        -0.3170   -0.2890   -0.3710 ho        1 SIA      0.309000
     35 HO4        -0.4490    0.7260    2.7530 ho        1 SIA      0.272000
     36 HO7        -1.3610    3.2620   -0.1440 ho        1 SIA      0.261000
     37 HO8         0.8190    3.2410   -2.1850 ho        1 SIA      0.297000
     38 HO9         1.0580    3.8840   -4.0190 ho        1 SIA      0.233000
     39 C10        -0.3380    4.3770    2.8740 c2        1 SIA      0.537000
     40 H52         1.1660    3.3720    2.3540 hn        1 SIA     -0.064000
@<TRIPOS>BOND
     1    1    2 1   
     2    1   12 1   
     3    1   13 1   
     4    2    3 1   
     5    2   14 1   
     6    2   16 1   
     7    3    4 1   
     8    3   21 1   
     9    3   22 1   
    10    3   23 1   
    11    4    5 1   
    12    4   15 1   
    13    4   21 1   
    14    4   23 1   
    15    4   24 1   
    16    5    6 1   
    17    5   11 1   
    18    5   24 1   
    19    5   25 1   
    20    6    7 1   
    21    6   16 1   
    22    6   25 1   
    23    6   26 1   
    24    7    8 1   
    25    7   17 1   
    26    7   26 1   
    27    7   27 1   
    28    8    9 1   
    29    8   18 1   
    30    8   27 1   
    31    8   28 1   
    32    9   19 1   
    33    9   28 1   
    34    9   29 1   
    35   10   30 1   
    36   10   31 1   
    37   10   32 1   
    38   10   39 1   
    39   11   33 1   
    40   11   39 1   
    41   11   40 1   
    42   14   34 1   
    43   15   35 1   
    44   17   36 1   
    45   18   37 1   
    46   19   38 1   
    47   20   39 1   
    48   21   23 1   
@<TRIPOS>SUBSTRUCTURE
     1 SIA         1 TEMP              0 ****  ****    0 ROOT
