@<TRIPOS>MOLECULE
SIB
   44    46     1     0     0
SMALL
bcc


@<TRIPOS>ATOM
      1 N           3.0490    1.0120    1.9920 n3        1 SIB     -0.902800
      2 CA          4.2430    0.4370    1.3790 c3        1 SIB      0.009500
      3 CB          4.0390    0.1050   -0.1030 c3        1 SIB     -0.068400
      4 CG          3.1970   -1.1350   -0.2680 c3        1 SIB      0.009700
      5 SD          2.5290   -1.3370   -1.9090 ss        1 SIB     -0.330200
      6 C           5.5270    1.3240    1.5240 c         1 SIB      0.892600
      7 OXT         6.5940    0.8830    1.0180 o         1 SIB     -0.836800
      8 O           5.4210    2.4110    2.1580 o         1 SIB     -0.836800
      9 C5'         0.8130   -0.9870   -1.7190 c3        1 SIB     -0.037300
     10 C4'         0.4450    0.4330   -2.1000 c3        1 SIB      0.104100
     11 O4'        -0.9740    0.5100   -2.3660 os        1 SIB     -0.422600
     12 C3'         0.7460    1.4660   -0.9980 c3        1 SIB      0.075100
     13 O3'         1.3330    2.6390   -1.5150 oh        1 SIB     -0.567800
     14 C2'        -0.6250    1.7900   -0.3580 c3        1 SIB      0.081100
     15 O2'        -0.9250    3.1680   -0.4770 oh        1 SIB     -0.599800
     16 C1'        -1.6750    1.0510   -1.2460 c3        1 SIB      0.248800
     17 N9         -2.3970   -0.0050   -0.5590 na        1 SIB     -0.205900
     18 C8         -2.5440   -1.3490   -0.9750 cc        1 SIB      0.417400
     19 N7         -3.3550   -2.0680   -0.1720 nd        1 SIB     -0.604000
     20 C5         -3.7670   -1.1750    0.8150 cd        1 SIB      0.203800
     21 C6         -4.6450   -1.3750    1.9580 c         1 SIB      0.636000
     22 O6         -5.2370   -2.4110    2.2960 o         1 SIB     -0.610500
     23 N1         -4.8160   -0.2070    2.7500 n         1 SIB     -0.499400
     24 C2         -4.1950    0.9920    2.4330 cd        1 SIB      0.484800
     25 N3         -3.3980    1.2330    1.4060 nc        1 SIB     -0.587100
     26 C4         -3.1790    0.1250    0.5900 cc        1 SIB      0.064800
     27 H           3.2580    1.1610    2.9650 hn        1 SIB      0.333800
     28 H2          2.9140    1.9280    1.5970 hn        1 SIB      0.333800
     29 HA          4.4660   -0.5260    1.9250 h1        1 SIB      0.039700
     30 HB2         3.5750    0.9740   -0.6390 hc        1 SIB      0.065200
     31 HB3         5.0570   -0.0570   -0.5510 hc        1 SIB      0.065200
     32 HG2         3.8280   -2.0440   -0.1010 h1        1 SIB      0.069200
     33 HG3         2.3650   -1.1510    0.4760 h1        1 SIB      0.069200
     34 H5'1        0.2830   -1.6880   -2.4140 h1        1 SIB      0.075700
     35 H5'2        0.4660   -1.2080   -0.6800 h1        1 SIB      0.075700
     36 H4'         0.9300    0.7200   -3.0740 h1        1 SIB      0.102700
     37 H3'         1.4890    1.0810   -0.2440 h1        1 SIB      0.146700
     38 HO3'        0.7340    2.9930   -2.1860 ho        1 SIB      0.403000
     39 H2'        -0.6600    1.4790    0.7180 h1        1 SIB      0.089700
     40 HO2'       -0.1830    3.6450   -0.0740 ho        1 SIB      0.432000
     41 H1'        -2.4300    1.7790   -1.6700 h2        1 SIB      0.111700
     42 H8         -2.0230   -1.7180   -1.8680 h5        1 SIB      0.081100
     43 HN1        -5.3860   -0.2700    3.5620 hn        1 SIB      0.333500
     44 HC2        -4.3930    1.8430    3.1190 h5        1 SIB      0.052800
@<TRIPOS>BOND
     1    1    2 1   
     2    1   27 1   
     3    1   28 1   
     4    2    3 1   
     5    2    6 1   
     6    2   29 1   
     7    3    4 1   
     8    3   30 1   
     9    3   31 1   
    10    4    5 1   
    11    4   32 1   
    12    4   33 1   
    13    5    9 1   
    14    6    7 1   
    15    6    8 1   
    16    9   10 1   
    17    9   34 1   
    18    9   35 1   
    19   10   11 1   
    20   10   12 1   
    21   10   36 1   
    22   11   16 1   
    23   12   13 1   
    24   12   14 1   
    25   12   37 1   
    26   13   38 1   
    27   14   15 1   
    28   14   16 1   
    29   14   39 1   
    30   15   40 1   
    31   16   17 1   
    32   16   41 1   
    33   17   18 1   
    34   17   26 1   
    35   18   19 2   
    36   18   42 1   
    37   19   20 1   
    38   20   21 1   
    39   20   26 2   
    40   21   22 2   
    41   21   23 1   
    42   23   24 1   
    43   23   43 1   
    44   24   25 2   
    45   24   44 1   
    46   25   26 1   
@<TRIPOS>SUBSTRUCTURE
     1 SIB         1 TEMP              0 ****  ****    0 ROOT
