@<TRIPOS>MOLECULE
SIC
   23    23     1     0     0
SMALL
bcc


@<TRIPOS>ATOM
      1 N           3.0390    1.3690   -0.6210 n3        1 SIC     -0.897800
      2 C3          2.7340    0.0780   -0.0480 c3        1 SIC      0.099500
      3 C2          1.5180   -0.6040   -0.7410 c         1 SIC      0.667500
      4 O2          1.5460   -1.0530   -1.8920 o         1 SIC     -0.600500
      5 C4          2.2990    0.1400    1.4300 c3        1 SIC     -0.170400
      6 C5          0.8100   -0.2070    1.4250 c         1 SIC      0.702500
      7 O5          0.1000   -0.1570    2.4380 o         1 SIC     -0.613500
      8 N1          0.4070   -0.6690    0.1450 n         1 SIC     -0.437400
      9 CA         -0.8940   -0.3300   -0.4250 c3        1 SIC     -0.043300
     10 CB         -2.0810   -0.7390    0.4230 c3        1 SIC      0.034700
     11 SG         -2.3840   -2.4880    0.2170 sh        1 SIC     -0.437900
     12 C          -1.0060    1.2090   -0.7950 c         1 SIC      0.916600
     13 O           0.0700    1.8650   -0.8920 o         1 SIC     -0.823800
     14 HN          3.1580    1.2670   -1.6120 hn        1 SIC      0.376800
     15 HNA         2.2720    2.0050   -0.4630 hn        1 SIC      0.376800
     16 H3          3.6340   -0.5860   -0.1710 h1        1 SIC      0.066700
     17 H4          2.8600   -0.6080    2.0390 hc        1 SIC      0.078200
     18 H4A         2.4360    1.1500    1.8870 hc        1 SIC      0.078200
     19 HA         -0.9480   -0.8790   -1.4150 h1        1 SIC      0.087700
     20 HB         -1.9240   -0.5090    1.5040 h1        1 SIC      0.092200
     21 HBA        -2.9680   -0.1610    0.0570 h1        1 SIC      0.092200
     22 HSG        -3.5430   -2.5610    0.8400 hs        1 SIC      0.177800
     23 OXT        -2.1580    1.6600   -1.0070 o         1 SIC     -0.823800
@<TRIPOS>BOND
     1    1    2 1   
     2    1   14 1   
     3    1   15 1   
     4    2    3 1   
     5    2    5 1   
     6    2   16 1   
     7    3    4 2   
     8    3    8 1   
     9    5    6 1   
    10    5   17 1   
    11    5   18 1   
    12    6    7 2   
    13    6    8 1   
    14    8    9 1   
    15    9   10 1   
    16    9   12 1   
    17    9   19 1   
    18   10   11 1   
    19   10   20 1   
    20   10   21 1   
    21   11   22 1   
    22   12   13 1   
    23   12   23 1   
@<TRIPOS>SUBSTRUCTURE
     1 SIC         1 TEMP              0 ****  ****    0 ROOT
