@<TRIPOS>MOLECULE
SID
   48    48     1     0     0
SMALL
bcc


@<TRIPOS>ATOM
      1 C1          1.6000    0.0190   -0.6270 c         1 SID      0.941600
      2 O1          1.8830   -0.3880   -1.8030 o         1 SID     -0.806800
      3 C2          0.0670    0.2120   -0.3000 c3        1 SID      0.218600
      4 O2         -0.0620    0.3930    1.0820 os        1 SID     -0.352600
      5 C3         -0.5730    1.3050   -1.1610 c3        1 SID     -0.145400
      6 O3          2.4360    0.3070    0.2420 o         1 SID     -0.806800
      7 C4         -0.3560    0.9520   -2.6190 c3        1 SID      0.131100
      8 O4         -1.1140    1.7600   -3.5040 oh        1 SID     -0.625800
      9 C5         -0.6710   -0.5370   -2.9540 c3        1 SID      0.117500
     10 N5          0.2910   -1.0240   -4.0140 ny        1 SID     -0.687800
     11 C6         -0.5800   -1.5530   -1.7730 c3        1 SID      0.125100
     12 O6         -0.7490   -0.9630   -0.5070 os        1 SID     -0.449600
     13 C7         -1.6750   -2.6370   -1.9050 c3        1 SID      0.141100
     14 O7         -2.5290   -2.6920   -0.7860 oh        1 SID     -0.585800
     15 C8         -1.0060   -4.0150   -2.1340 c3        1 SID      0.117100
     16 O8         -0.2790   -3.8810   -3.3520 oh        1 SID     -0.659800
     17 C9         -2.0520   -5.1120   -2.2340 c3        1 SID     -0.071300
     18 S9         -1.5940   -6.6470   -1.4930 ss        1 SID     -0.220700
     19 C10         0.1840   -0.2750   -5.3030 c         1 SID      0.567100
     20 O10        -0.6490   -0.6870   -6.1040 o         1 SID     -0.464100
     21 C11         1.1000    0.8860   -5.4920 c3        1 SID     -0.189100
     22 CA9        -0.4230   -7.3670   -2.5250 c         1 SID      0.572700
     23 OA9         0.0680   -6.8670   -3.5450 o         1 SID     -0.560100
     24 CM2        -1.3600    0.7310    1.5520 c3        1 SID      0.107700
     25 CM9        -0.0490   -8.7180   -2.0170 c3        1 SID     -0.193100
     26 H3         -1.6680    1.3830   -0.9360 hc        1 SID      0.071200
     27 H3A        -0.0920    2.2910   -0.9340 hc        1 SID      0.071200
     28 H4          0.7250    1.1900   -2.8690 h1        1 SID      0.121700
     29 HO4        -1.9770    1.9280   -3.1050 ho        1 SID      0.418000
     30 H5         -1.7040   -0.5710   -3.4120 hx        1 SID      0.088700
     31 HN5         1.2460   -0.9220   -3.6010 hn        1 SID      0.494300
     32 H6          0.4430   -2.0460   -1.7760 h1        1 SID      0.106700
     33 H7         -2.3640   -2.4250   -2.7710 h1        1 SID      0.073700
     34 HO7        -1.9900   -2.6200    0.0170 ho        1 SID      0.436000
     35 H8         -0.2900   -4.2310   -1.2910 h1        1 SID      0.071700
     36 HO8         0.1060   -4.7430   -3.5640 ho        1 SID      0.449000
     37 H9         -2.3350   -5.2630   -3.3040 h1        1 SID      0.107700
     38 H9A        -2.9700   -4.8030   -1.6620 h1        1 SID      0.107700
     39 H11         0.5770    1.8070   -5.1120 hc        1 SID      0.109367
     40 H11A        1.3030    1.0100   -6.5860 hc        1 SID      0.109367
     41 H11B        2.0680    0.7710   -4.9430 hc        1 SID      0.109367
     42 HM2        -1.6110    1.7840    1.2710 h1        1 SID      0.034367
     43 HM2A       -2.1350    0.0300    1.1590 h1        1 SID      0.034367
     44 HM2B       -1.2710    0.6380    2.6640 h1        1 SID      0.034367
     45 HM9         1.0530   -8.7540   -1.8280 hc        1 SID      0.078700
     46 HM9A       -0.5900   -8.9630   -1.0700 hc        1 SID      0.078700
     47 HM9B       -0.2990   -9.4880   -2.7900 hc        1 SID      0.078700
     48 H52         0.1000   -2.0240   -4.1770 hn        1 SID      0.494300
@<TRIPOS>BOND
     1    1    2 1   
     2    1    3 1   
     3    1    6 1   
     4    3    4 1   
     5    3    5 1   
     6    3   12 1   
     7    4   24 1   
     8    5    7 1   
     9    5   26 1   
    10    5   27 1   
    11    7    8 1   
    12    7    9 1   
    13    7   28 1   
    14    8   29 1   
    15    9   10 1   
    16    9   11 1   
    17    9   30 1   
    18   10   19 1   
    19   10   31 1   
    20   10   48 1   
    21   11   12 1   
    22   11   13 1   
    23   11   32 1   
    24   13   14 1   
    25   13   15 1   
    26   13   33 1   
    27   14   34 1   
    28   15   16 1   
    29   15   17 1   
    30   15   35 1   
    31   16   36 1   
    32   17   18 1   
    33   17   37 1   
    34   17   38 1   
    35   18   22 1   
    36   19   20 2   
    37   19   21 1   
    38   21   39 1   
    39   21   40 1   
    40   21   41 1   
    41   22   23 2   
    42   22   25 1   
    43   24   42 1   
    44   24   43 1   
    45   24   44 1   
    46   25   45 1   
    47   25   46 1   
    48   25   47 1   
@<TRIPOS>SUBSTRUCTURE
     1 SID         1 TEMP              0 ****  ****    0 ROOT
