@<TRIPOS>MOLECULE
SID
   47    46     1     0     0
SMALL
bcc


@<TRIPOS>ATOM
      1 C1          1.9180    1.6420    2.8140 c1        1 SID      0.316000
      2 O1          2.5500    0.5800    2.5260 o         1 SID     -0.567000
      3 C2          0.3680    1.6410    2.8270 c3        1 SID      0.123000
      4 O2          0.1010    1.5980    4.2510 os        1 SID     -0.273000
      5 C3         -0.1570    2.8300    2.2360 c3        1 SID     -0.196000
      6 O3          2.5330    2.6740    3.0560 os        1 SID     -0.534000
      7 C4         -0.0200    2.9110    0.8280 c3        1 SID      0.004000
      8 O4         -0.7710    4.1420    0.3430 oh        1 SID     -0.340000
      9 C5         -0.5430    1.7250    0.1020 c3        1 SID     -0.005000
     10 N5         -0.2410    1.8910   -1.3270 n         1 SID     -0.347000
     11 C6          0.0320    0.3870    0.5620 c3        1 SID     -0.003000
     12 O6         -0.1790    0.4210    2.1280 os        1 SID     -0.314000
     13 C7         -0.6700   -0.6870   -0.0100 c3        1 SID      0.011000
     14 O7         -1.8430   -1.0040    0.8240 oh        1 SID     -0.333000
     15 C8          0.2550   -1.9270   -0.0920 c3        1 SID      0.027000
     16 O8          1.4230   -1.5920   -0.7690 oh        1 SID     -0.351000
     17 C9         -0.4560   -3.0400   -0.8300 c3        1 SID     -0.276000
     18 S9          0.7280   -3.9830   -1.7780 ss        1 SID      0.138000
     19 C10        -1.2130    2.4740   -2.1920 c2        1 SID      0.305000
     20 O10        -2.2820    2.8310   -1.7460 o         1 SID     -0.369000
     21 C11        -0.8940    2.6870   -3.6690 c3        1 SID     -0.245000
     22 CA9        -0.1260   -5.2800   -2.6690 c2        1 SID      0.093000
     23 OA9        -1.1560   -5.7520   -2.2190 o         1 SID     -0.309000
     24 CM2         0.9170    0.6620    4.9710 c3        1 SID     -0.062000
     25 CM9         0.4130   -5.7610   -4.0230 c3        1 SID     -0.259000
     26 H3          0.3180    3.6270    2.6500 hc        1 SID      0.105000
     27 H3A        -1.1250    2.8930    2.4590 hc        1 SID      0.105000
     28 H4          0.9060    3.0130    0.6180 h1        1 SID      0.100000
     29 HO4        -0.2550    4.9120    0.5110 ho        1 SID      0.198000
     30 H5         -1.5560    1.6970    0.2150 h1        1 SID      0.146000
     31 HN5         0.5090    1.5560   -1.6640 hn        1 SID      0.211000
     32 H6          1.0160    0.3290    0.3400 h1        1 SID      0.127000
     33 H7         -0.9710   -0.4380   -0.9220 h1        1 SID      0.127000
     34 HO7        -2.5670   -1.1320    0.2910 ho        1 SID      0.215000
     35 H8          0.4860   -2.2380    0.8440 h1        1 SID      0.095000
     36 HO8         2.1250   -1.9970   -0.3740 ho        1 SID      0.266000
     37 H9         -1.1130   -2.6620   -1.4240 h1        1 SID      0.127500
     38 H9A        -0.8970   -3.6250   -0.1890 h1        1 SID      0.127500
     39 H11        -1.5720    3.2850   -4.0710 hc        1 SID      0.095667
     40 H11A        0.0260    3.1080   -3.7570 hc        1 SID      0.095667
     41 H11B       -0.9060    1.8030   -4.1450 hc        1 SID      0.095667
     42 HM2         1.0890   -0.1230    4.4090 h1        1 SID      0.073000
     43 HM2A        0.4390    0.3780    5.8050 h1        1 SID      0.073000
     44 HM2B        1.7860    1.0950    5.2160 h1        1 SID      0.073000
     45 HM9         1.2270   -6.2520   -3.8850 hc        1 SID      0.103000
     46 HM9A        0.5970   -4.9600   -4.6190 hc        1 SID      0.103000
     47 HM9B       -0.2470   -6.3390   -4.4510 hc        1 SID      0.103000
@<TRIPOS>BOND
     1    1    2 1   
     2    1    3 1   
     3    3    4 1   
     4    3    5 1   
     5    3   12 1   
     6    4   24 1   
     7    5    7 1   
     8    5   26 1   
     9    5   27 1   
    10    7    8 1   
    11    7    9 1   
    12    7   28 1   
    13    8   29 1   
    14    9   10 1   
    15    9   11 1   
    16    9   30 1   
    17   10   19 1   
    18   10   31 1   
    19   11   12 1   
    20   11   13 1   
    21   11   32 1   
    22   13   14 1   
    23   13   15 1   
    24   13   33 1   
    25   14   34 1   
    26   15   16 1   
    27   15   17 1   
    28   15   35 1   
    29   16   36 1   
    30   17   18 1   
    31   17   37 1   
    32   17   38 1   
    33   18   22 1   
    34   19   20 1   
    35   19   21 1   
    36   21   39 1   
    37   21   40 1   
    38   21   41 1   
    39   22   23 1   
    40   22   25 1   
    41   24   42 1   
    42   24   43 1   
    43   24   44 1   
    44   25   45 1   
    45   25   46 1   
    46   25   47 1   
@<TRIPOS>SUBSTRUCTURE
     1 SID         1 TEMP              0 ****  ****    0 ROOT
