@<TRIPOS>MOLECULE
SID
   47    47     1     0     0
SMALL
bcc


@<TRIPOS>ATOM
      1 C1          1.9150    2.9920    0.5270 c         1 SID      0.933600
      2 O1          2.8470    3.3920    1.2680 o         1 SID     -0.807800
      3 C2          2.3430    2.1140   -0.7170 c3        1 SID      0.214600
      4 O2          2.6930    3.0030   -1.7510 os        1 SID     -0.381600
      5 C3          3.4450    1.1190   -0.3420 c3        1 SID     -0.156400
      6 O3          0.6850    3.1710    0.7090 o         1 SID     -0.807800
      7 C4          2.8860    0.0240    0.5590 c3        1 SID      0.129100
      8 O4          3.8730   -0.9670    0.8170 oh        1 SID     -0.606800
      9 C5          1.6820   -0.6730   -0.1370 c3        1 SID      0.078700
     10 N5          1.1030   -1.7230    0.6600 n         1 SID     -0.549900
     11 C6          0.6540    0.4600   -0.4340 c3        1 SID      0.107100
     12 O6          1.2520    1.3960   -1.3210 os        1 SID     -0.451600
     13 C7         -0.6200   -0.0380   -1.1410 c3        1 SID      0.133100
     14 O7         -0.9330    0.7210   -2.2930 oh        1 SID     -0.613800
     15 C8         -1.8250    0.0110   -0.1650 c3        1 SID      0.109100
     16 O8         -1.6730   -0.9410    0.8730 oh        1 SID     -0.601800
     17 C9         -3.1110   -0.2120   -0.9470 c3        1 SID     -0.050300
     18 S9         -4.5990   -0.0390   -0.0070 ss        1 SID     -0.236700
     19 C10         1.0930   -3.0480    0.2960 c         1 SID      0.660100
     20 O10         1.5810   -3.4580   -0.7780 o         1 SID     -0.631100
     21 C11         0.4390   -4.0110    1.2650 c3        1 SID     -0.177100
     22 CA9        -4.8000   -1.5420    0.7950 c         1 SID      0.574700
     23 OA9        -4.0830   -2.5440    0.6840 o         1 SID     -0.552100
     24 CM2         3.1850    2.4150   -2.9440 c3        1 SID      0.116700
     25 CM9        -6.0060   -1.5080    1.6760 c3        1 SID     -0.191100
     26 H3          3.8900    0.6520   -1.2560 hc        1 SID      0.061700
     27 H3A         4.2420    1.6890    0.2040 hc        1 SID      0.061700
     28 H4          2.5530    0.4790    1.5360 h1        1 SID      0.059700
     29 HO4         4.6520   -0.4920    1.1300 ho        1 SID      0.395000
     30 H5          2.0460   -1.1180   -1.1090 h1        1 SID      0.098700
     31 HN5         0.6300   -1.4430    1.4880 hn        1 SID      0.319500
     32 H6          0.3770    0.9800    0.5300 h1        1 SID      0.102700
     33 H7         -0.4840   -1.0900   -1.5180 h1        1 SID      0.065700
     34 HO7        -0.6520    1.6360   -2.1390 ho        1 SID      0.441000
     35 H8         -1.8470    1.0060    0.3670 h1        1 SID      0.114700
     36 HO8        -1.7600   -1.8200    0.4790 ho        1 SID      0.403000
     37 H9         -3.1770    0.5620   -1.7560 h1        1 SID      0.096700
     38 H9A        -3.0860   -1.2220   -1.4240 h1        1 SID      0.096700
     39 H11        -0.6130   -3.7000    1.4790 hc        1 SID      0.058700
     40 H11A        0.4340   -5.0290    0.8090 hc        1 SID      0.058700
     41 H11B        1.0120   -4.0420    2.2220 hc        1 SID      0.058700
     42 HM2         4.2660    2.1490   -2.8210 h1        1 SID      0.022033
     43 HM2A        2.6000    1.5120   -3.2390 h1        1 SID      0.022033
     44 HM2B        3.0760    3.2200   -3.7140 h1        1 SID      0.022033
     45 HM9        -6.5810   -0.5590    1.5420 hc        1 SID      0.066700
     46 HM9A       -6.6700   -2.3760    1.4430 hc        1 SID      0.066700
     47 HM9B       -5.6810   -1.5860    2.7440 hc        1 SID      0.066700
@<TRIPOS>BOND
     1    1    2 1   
     2    1    3 1   
     3    1    6 1   
     4    3    4 1   
     5    3    5 1   
     6    3   12 1   
     7    4   24 1   
     8    5    7 1   
     9    5   26 1   
    10    5   27 1   
    11    7    8 1   
    12    7    9 1   
    13    7   28 1   
    14    8   29 1   
    15    9   10 1   
    16    9   11 1   
    17    9   30 1   
    18   10   19 1   
    19   10   31 1   
    20   11   12 1   
    21   11   13 1   
    22   11   32 1   
    23   13   14 1   
    24   13   15 1   
    25   13   33 1   
    26   14   34 1   
    27   15   16 1   
    28   15   17 1   
    29   15   35 1   
    30   16   36 1   
    31   17   18 1   
    32   17   37 1   
    33   17   38 1   
    34   18   22 1   
    35   19   20 2   
    36   19   21 1   
    37   21   39 1   
    38   21   40 1   
    39   21   41 1   
    40   22   23 2   
    41   22   25 1   
    42   24   42 1   
    43   24   43 1   
    44   24   44 1   
    45   25   45 1   
    46   25   46 1   
    47   25   47 1   
@<TRIPOS>SUBSTRUCTURE
     1 SID         1 TEMP              0 ****  ****    0 ROOT
