@<TRIPOS>MOLECULE
SID
   48    48     1     0     0
SMALL
bcc


@<TRIPOS>ATOM
      1 C1          1.5510    0.0090   -0.5580 c         1 SID      0.941600
      2 O1          1.8670   -0.3860   -1.7300 o         1 SID     -0.806800
      3 C2          0.0090    0.1940   -0.2710 c3        1 SID      0.218600
      4 O2         -0.1580    0.3620    1.1090 os        1 SID     -0.352600
      5 C3         -0.6110    1.2930   -1.1390 c3        1 SID     -0.145400
      6 O3          2.3630    0.2920    0.3360 o         1 SID     -0.806800
      7 C4         -0.3540    0.9540   -2.5940 c3        1 SID      0.131100
      8 O4         -1.0910    1.7670   -3.4920 oh        1 SID     -0.625800
      9 C5         -0.6550   -0.5330   -2.9500 c3        1 SID      0.117500
     10 N5          0.3370   -1.0080   -3.9880 n4        1 SID     -0.687800
     11 C6         -0.5910   -1.5590   -1.7760 c3        1 SID      0.125100
     12 O6         -0.7960   -0.9820   -0.5100 os        1 SID     -0.449600
     13 C7         -1.6790   -2.6460   -1.9460 c3        1 SID      0.141100
     14 O7         -2.5620   -2.7140   -0.8520 oh        1 SID     -0.585800
     15 C8         -0.9980   -4.0190   -2.1700 c3        1 SID      0.117100
     16 O8         -0.2400   -3.8720   -3.3670 oh        1 SID     -0.659800
     17 C9         -2.0370   -5.1200   -2.3070 c3        1 SID     -0.071300
     18 S9         -1.5930   -6.6590   -1.5670 ss        1 SID     -0.220700
     19 C10         0.2620   -0.2480   -5.2720 c         1 SID      0.567100
     20 O10        -0.5480   -0.6550   -6.0990 o         1 SID     -0.464100
     21 C11         1.1790    0.9180   -5.4270 c3        1 SID     -0.189100
     22 CA9        -0.3910   -7.3660   -2.5720 c         1 SID      0.572700
     23 OA9         0.1250   -6.8550   -3.5750 o         1 SID     -0.560100
     24 CM2        -1.4680    0.6920    1.5460 c3        1 SID      0.107700
     25 CM9        -0.0260   -8.7200   -2.0660 c3        1 SID     -0.193100
     26 H3         -1.7120    1.3650   -0.9430 hc        1 SID      0.071200
     27 H3A        -0.1400    2.2780   -0.8910 hc        1 SID      0.071200
     28 H4          0.7330    1.1980   -2.8120 h1        1 SID      0.121700
     29 HO4        -1.9650    1.9280   -3.1140 ho        1 SID      0.418000
     30 H5         -1.6750   -0.5670   -3.4360 hx        1 SID      0.088700
     31 HN5         0.1540   -2.0070   -4.1650 hn        1 SID      0.494300
     32 H6          0.4330   -2.0490   -1.7560 h1        1 SID      0.106700
     33 H7         -2.3440   -2.4290   -2.8290 h1        1 SID      0.073700
     34 HO7        -2.0450   -2.6470   -0.0350 ho        1 SID      0.436000
     35 H8         -0.3040   -4.2410   -1.3100 h1        1 SID      0.071700
     36 HO8         0.1540   -4.7310   -3.5750 ho        1 SID      0.449000
     37 H9         -2.9710   -4.8190   -1.7580 h1        1 SID      0.107700
     38 H9A        -2.2900   -5.2630   -3.3860 h1        1 SID      0.107700
     39 H11         1.4100    1.0530   -6.5140 hc        1 SID      0.109367
     40 H11A        0.6420    1.8340   -5.0530 hc        1 SID      0.109367
     41 H11B        2.1320    0.8010   -4.8530 hc        1 SID      0.109367
     42 HM2        -1.7150    1.7460    1.2680 h1        1 SID      0.034367
     43 HM2A       -2.2300   -0.0080    1.1270 h1        1 SID      0.034367
     44 HM2B       -1.4090    0.5890    2.6590 h1        1 SID      0.034367
     45 HM9        -0.2510   -9.4840   -2.8510 hc        1 SID      0.078700
     46 HM9A       -0.5910   -8.9750   -1.1350 hc        1 SID      0.078700
     47 HM9B        1.0710   -8.7530   -1.8460 hc        1 SID      0.078700
     48 H52         1.2810   -0.9060   -3.5490 hn        1 SID      0.494300
@<TRIPOS>BOND
     1    1    2 1   
     2    1    3 1   
     3    1    6 1   
     4    3    4 1   
     5    3    5 1   
     6    3   12 1   
     7    4   24 1   
     8    5    7 1   
     9    5   26 1   
    10    5   27 1   
    11    7    8 1   
    12    7    9 1   
    13    7   28 1   
    14    8   29 1   
    15    9   10 1   
    16    9   11 1   
    17    9   30 1   
    18   10   19 1   
    19   10   31 1   
    20   10   48 1   
    21   11   12 1   
    22   11   13 1   
    23   11   32 1   
    24   13   14 1   
    25   13   15 1   
    26   13   33 1   
    27   14   34 1   
    28   15   16 1   
    29   15   17 1   
    30   15   35 1   
    31   16   36 1   
    32   17   18 1   
    33   17   37 1   
    34   17   38 1   
    35   18   22 1   
    36   19   20 2   
    37   19   21 1   
    38   21   39 1   
    39   21   40 1   
    40   21   41 1   
    41   22   23 2   
    42   22   25 1   
    43   24   42 1   
    44   24   43 1   
    45   24   44 1   
    46   25   45 1   
    47   25   46 1   
    48   25   47 1   
@<TRIPOS>SUBSTRUCTURE
     1 SID         1 TEMP              0 ****  ****    0 ROOT
