@<TRIPOS>MOLECULE
SID
   48    48     1     0     0
SMALL
bcc


@<TRIPOS>ATOM
      1 C1          1.7140   -0.0140   -0.7540 c         1 SID      0.941600
      2 O1          1.9270   -0.4340   -1.9400 o         1 SID     -0.806800
      3 C2          0.2050    0.2110   -0.3480 c3        1 SID      0.218600
      4 O2          0.1520    0.4040    1.0370 os        1 SID     -0.352600
      5 C3         -0.4570    1.3120   -1.1830 c3        1 SID     -0.145400
      6 O3          2.6010    0.2630    0.0690 o         1 SID     -0.806800
      7 C4         -0.3250    0.9450   -2.6470 c3        1 SID      0.131100
      8 O4         -1.1120    1.7610   -3.4980 oh        1 SID     -0.625800
      9 C5         -0.6860   -0.5400   -2.9540 c3        1 SID      0.117500
     10 N5          0.2090   -1.0540   -4.0590 n4        1 SID     -0.687800
     11 C6         -0.5520   -1.5500   -1.7720 c3        1 SID      0.125100
     12 O6         -0.6430   -0.9490   -0.5030 os        1 SID     -0.449600
     13 C7         -1.6740   -2.6130   -1.8370 c3        1 SID      0.141100
     14 O7         -2.4680   -2.6430   -0.6750 oh        1 SID     -0.585800
     15 C8         -1.0440   -4.0050   -2.0910 c3        1 SID      0.117100
     16 O8         -0.3800   -3.8940   -3.3460 oh        1 SID     -0.659800
     17 C9         -2.1150   -5.0830   -2.1270 c3        1 SID     -0.071300
     18 S9         -1.6480   -6.6210   -1.3990 ss        1 SID     -0.220700
     19 C10         0.0500   -0.3110   -5.3460 c         1 SID      0.567100
     20 O10        -0.8320   -0.7120   -6.0990 o         1 SID     -0.464100
     21 C11         0.9770    0.8310   -5.5920 c3        1 SID     -0.189100
     22 CA9        -0.5470   -7.3710   -2.4850 c         1 SID      0.572700
     23 OA9        -0.1020   -6.8870   -3.5340 o         1 SID     -0.560100
     24 CM2        -1.1120    0.7710    1.5720 c3        1 SID      0.107700
     25 CM9        -0.1730   -8.7250   -1.9870 c3        1 SID     -0.193100
     26 H3          0.0540    2.2880   -0.9890 hc        1 SID      0.071200
     27 H3A        -1.5380    1.4130   -0.9010 hc        1 SID      0.071200
     28 H4          0.7470    1.1600   -2.9550 h1        1 SID      0.121700
     29 HO4        -1.9490    1.9480   -3.0550 ho        1 SID      0.418000
     30 H5         -1.7420   -0.5570   -3.3570 hx        1 SID      0.088700
     31 HN5        -0.0090   -2.0510   -4.2040 hn        1 SID      0.494300
     32 H6          0.4600   -2.0630   -1.8250 h1        1 SID      0.106700
     33 H7         -2.4030   -2.3930   -2.6680 h1        1 SID      0.073700
     34 HO7        -1.8870   -2.5770    0.0980 ho        1 SID      0.436000
     35 H8         -0.2900   -4.2300   -1.2850 h1        1 SID      0.071700
     36 HO8        -0.0240   -4.7650   -3.5710 ho        1 SID      0.449000
     37 H9         -2.9950   -4.7520   -1.5100 h1        1 SID      0.107700
     38 H9A        -2.4570   -5.2360   -3.1800 h1        1 SID      0.107700
     39 H11         1.1250    0.9440   -6.6960 hc        1 SID      0.109367
     40 H11A        1.9700    0.7000   -5.0930 hc        1 SID      0.109367
     41 H11B        0.4920    1.7640   -5.1920 hc        1 SID      0.109367
     42 HM2        -1.3570    1.8270    1.2970 h1        1 SID      0.034367
     43 HM2A       -0.9670    0.6840    2.6780 h1        1 SID      0.034367
     44 HM2B       -1.9200    0.0840    1.2260 h1        1 SID      0.034367
     45 HM9        -0.6680   -8.9540   -1.0110 hc        1 SID      0.078700
     46 HM9A        0.9370   -8.7820   -1.8560 hc        1 SID      0.078700
     47 HM9B       -0.4780   -9.4960   -2.7390 hc        1 SID      0.078700
     48 H52         1.1870   -0.9680   -3.6970 hn        1 SID      0.494300
@<TRIPOS>BOND
     1    1    2 1   
     2    1    3 1   
     3    1    6 1   
     4    3    4 1   
     5    3    5 1   
     6    3   12 1   
     7    4   24 1   
     8    5    7 1   
     9    5   26 1   
    10    5   27 1   
    11    7    8 1   
    12    7    9 1   
    13    7   28 1   
    14    8   29 1   
    15    9   10 1   
    16    9   11 1   
    17    9   30 1   
    18   10   19 1   
    19   10   31 1   
    20   10   48 1   
    21   11   12 1   
    22   11   13 1   
    23   11   32 1   
    24   13   14 1   
    25   13   15 1   
    26   13   33 1   
    27   14   34 1   
    28   15   16 1   
    29   15   17 1   
    30   15   35 1   
    31   16   36 1   
    32   17   18 1   
    33   17   37 1   
    34   17   38 1   
    35   18   22 1   
    36   19   20 2   
    37   19   21 1   
    38   21   39 1   
    39   21   40 1   
    40   21   41 1   
    41   22   23 2   
    42   22   25 1   
    43   24   42 1   
    44   24   43 1   
    45   24   44 1   
    46   25   45 1   
    47   25   46 1   
    48   25   47 1   
@<TRIPOS>SUBSTRUCTURE
     1 SID         1 TEMP              0 ****  ****    0 ROOT
