@<TRIPOS>MOLECULE
SIE
   68    58     1     0     0
SMALL
bcc


@<TRIPOS>ATOM
      1 CS1         1.0690   -0.7930    3.9820 c1        1 SIE     -0.047000
      2 CS2         0.3880   -0.3590    5.1170 c1        1 SIE     -0.131000
      3 CS3         1.0400   -0.3190    6.3470 c1        1 SIE     -0.131000
      4 CS4         2.3720   -0.7140    6.4430 c1        1 SIE      0.121000
      5 CS5         3.0520   -1.1480    5.3080 c1        1 SIE     -0.143000
      6 CS6         2.4010   -1.1880    4.0780 c1        1 SIE     -0.101000
      7 OS7         3.0590   -0.5920    7.6770 os        1 SIE     -0.671000
      8 SS7         2.8780   -1.7400    8.6560 s4        1 SIE      2.045800
      9 OS8         1.4550   -1.8080    9.1640 o         1 SIE     -0.538900
     10 OS9         3.0080   -3.0780    7.9640 o         1 SIE     -0.538900
     11 NS0         3.9520   -1.6030    9.9020 n2        1 SIE     -0.956500
     12 NI1         0.2350   -0.9760    1.3910 n2        1 SIE     -0.155000
     13 CI2         0.3750   -0.9430    2.7590 c1        1 SIE      0.007000
     14 CI3         0.1920   -2.2310    3.2410 c1        1 SIE     -0.174000
     15 CI4        -0.2260   -4.4580    2.0620 c1        1 SIE     -0.060000
     16 CI5        -0.3610   -5.0580    0.8130 c1        1 SIE     -0.207000
     17 CI6        -0.3350   -4.2780   -0.3430 c1        1 SIE      0.108000
     18 CI7        -0.1740   -2.8970   -0.2480 c1        1 SIE     -0.165000
     19 CI8        -0.0370   -2.2880    1.0180 c1        1 SIE      0.020000
     20 CI9        -0.0630   -3.0600    2.1590 c1        1 SIE     -0.099000
     21 CP1         0.6550   -0.0720    0.3340 c2        1 SIE     -0.021000
     22 CP2        -0.4370    1.0040    0.1090 c3        1 SIE     -0.180000
     23 CP3        -0.7510    1.1140   -1.4070 c3        1 SIE     -0.168000
     24 CP4        -0.7270    2.6030   -1.8320 c3        1 SIE     -0.156000
     25 CP5        -1.8650    2.8690   -2.8450 c3        1 SIE     -0.162000
     26 CP6        -1.2970    3.5970   -4.0790 c3        1 SIE     -0.155000
     27 CP7        -2.4290    3.8560   -5.0880 c3        1 SIE     -0.159000
     28 CP8        -1.8570    4.5520   -6.3300 c3        1 SIE     -0.157000
     29 CP9        -2.8520    5.6040   -6.8290 c3        1 SIE     -0.159000
     30 CP0        -2.2220    6.3980   -7.9750 c3        1 SIE     -0.210000
     31 O27        -1.1210   -5.7790   -3.2350 o         1 SIE     -0.922500
     32 S27         0.1230   -5.6270   -2.3860 ss        1 SIE      2.818000
     33 O28        -0.0500   -6.7640   -1.4040 o         1 SIE     -0.922500
     34 O29         0.1450   -4.2840   -1.6760 o         1 SIE     -0.643000
     35 N20         1.4930   -5.8180   -3.2910 n2        1 SIE     -0.956500
     36 HS2        -0.5510   -0.0810    5.0500 ha        1 SIE      0.156000
     37 HS3         0.5600   -0.0130    7.1470 ha        1 SIE      0.156000
     38 HS5         3.9920   -1.4260    5.3760 ha        1 SIE      0.149000
     39 HS6         2.8810   -1.4940    3.2790 ha        1 SIE      0.141000
     40 HS01        3.8150   -0.9780   10.5600 hn        1 SIE      0.255750
     41 HS02        4.6710   -2.1700    9.9520 hn        1 SIE      0.255750
     42 HI3         0.1800   -2.4960    4.1850 DU        1 SIE      0.161000
     43 HI4        -0.2450   -5.0070    2.8760 ha        1 SIE      0.141000
     44 HI5        -0.4750   -6.0300    0.7460 ha        1 SIE      0.165000
     45 HI7        -0.1550   -2.3490   -1.0590 ha        1 SIE      0.150000
     46 HP11        1.4980    0.3650    0.5920 ha        1 SIE      0.100000
     47 HP12        0.7900   -0.5790   -0.4960 ha        1 SIE      0.100000
     48 HP21       -0.1150    1.8710    0.4420 hc        1 SIE      0.093000
     49 HP22       -1.2530    0.7490    0.5950 hc        1 SIE      0.093000
     50 HP31       -1.6410    0.7370   -1.5850 hc        1 SIE      0.091500
     51 HP32       -0.0750    0.6160   -1.9180 hc        1 SIE      0.091500
     52 HP41        0.1390    2.8110   -2.2500 hc        1 SIE      0.073500
     53 HP42       -0.8530    3.1720   -1.0400 hc        1 SIE      0.073500
     54 HP51       -2.2620    2.0140   -3.1230 hc        1 SIE      0.085500
     55 HP52       -2.5560    3.4290   -2.4230 hc        1 SIE      0.085500
     56 HP61       -0.6050    3.0380   -4.4990 hc        1 SIE      0.076000
     57 HP62       -0.9030    4.4540   -3.8010 hc        1 SIE      0.076000
     58 HP71       -3.1110    4.4310   -4.6750 hc        1 SIE      0.082500
     59 HP72       -2.8360    3.0010   -5.3500 hc        1 SIE      0.082500
     60 HP81       -1.0080    4.9880   -6.0990 hc        1 SIE      0.077000
     61 HP82       -1.7020    3.8860   -7.0370 hc        1 SIE      0.077000
     62 HP91       -3.0800    6.2140   -6.0940 hc        1 SIE      0.079500
     63 HP92       -3.6680    5.1580   -7.1500 hc        1 SIE      0.079500
     64 HP01       -1.2590    6.5020   -7.8100 hc        1 SIE      0.071000
     65 HP02       -2.3600    5.9170   -8.8210 hc        1 SIE      0.071000
     66 HP03       -2.6430    7.2840   -8.0290 hc        1 SIE      0.071000
     67 H201        1.5520   -6.5070   -3.8940 hn        1 SIE      0.255750
     68 H202        2.1890   -5.2280   -3.2000 hn        1 SIE      0.255750
@<TRIPOS>BOND
     1    1    6 1   
     2    2    3 1   
     3    2   36 1   
     4    3   37 1   
     5    4    5 1   
     6    4    7 1   
     7    5   38 1   
     8    6   39 1   
     9    7    8 1   
    10    8    9 1   
    11    8   10 1   
    12   11   40 1   
    13   11   41 1   
    14   12   13 1   
    15   12   19 1   
    16   13   14 1   
    17   14   20 1   
    18   15   20 1   
    19   15   43 1   
    20   16   17 1   
    21   16   44 1   
    22   17   34 1   
    23   18   19 1   
    24   18   45 1   
    25   21   22 1   
    26   21   46 1   
    27   21   47 1   
    28   22   23 1   
    29   22   48 1   
    30   22   49 1   
    31   23   24 1   
    32   23   50 1   
    33   23   51 1   
    34   24   25 1   
    35   24   52 1   
    36   24   53 1   
    37   25   26 1   
    38   25   54 1   
    39   25   55 1   
    40   26   27 1   
    41   26   56 1   
    42   26   57 1   
    43   27   28 1   
    44   27   58 1   
    45   27   59 1   
    46   28   29 1   
    47   28   60 1   
    48   28   61 1   
    49   29   30 1   
    50   29   62 1   
    51   29   63 1   
    52   30   64 1   
    53   30   65 1   
    54   30   66 1   
    55   31   32 1   
    56   32   33 1   
    57   35   67 1   
    58   35   68 1   
@<TRIPOS>SUBSTRUCTURE
     1 SIE         1 TEMP              0 ****  ****    0 ROOT
