@<TRIPOS>MOLECULE
SIE
   70    72     1     0     0
SMALL
bcc


@<TRIPOS>ATOM
      1 CS1         0.0070    0.0900    0.2270 ca        1 SIE     -0.000800
      2 CS2         1.1590   -0.6980    0.3920 ca        1 SIE     -0.096500
      3 CS3         1.7160   -0.8820    1.6540 ca        1 SIE     -0.106000
      4 CS4         1.0980   -0.2670    2.7530 ca        1 SIE      0.063100
      5 CS5        -0.0510    0.5270    2.6140 ca        1 SIE     -0.106000
      6 CS6        -0.5900    0.6980    1.3420 ca        1 SIE     -0.096500
      7 OS7         1.5540   -0.5600    4.0270 os        1 SIE     -0.453800
      8 SS7         2.7330    0.3540    4.7420 s6        1 SIE      1.580400
      9 OS8         2.2280    1.5530    5.1420 o         1 SIE     -0.549300
     10 OS9         3.9420    0.1020    4.1710 o         1 SIE     -0.549300
     11 NS0         2.7710   -0.6480    6.3050 n4        1 SIE     -0.799500
     12 NI1        -0.9890    1.4050   -1.7090 na        1 SIE     -0.044400
     13 CI2        -0.5850    0.1980   -1.1000 cc        1 SIE     -0.007300
     14 CI3        -0.9000   -0.8890   -1.9280 cd        1 SIE     -0.145200
     15 CI4        -2.0340   -0.9510   -4.2700 ca        1 SIE     -0.048000
     16 CI5        -2.5640   -0.1450   -5.2630 ca        1 SIE     -0.151000
     17 CI6        -2.5650    1.2600   -5.0920 ca        1 SIE      0.062100
     18 CI7        -2.0490    1.9090   -3.9690 ca        1 SIE     -0.102000
     19 CI8        -1.5210    1.0840   -2.9650 ca        1 SIE     -0.039200
     20 CI9        -1.5050   -0.3590   -3.1190 ca        1 SIE     -0.066800
     21 CP2         0.5990    3.3240   -2.0010 c3        1 SIE     -0.104400
     22 CP3         0.8580    4.7260   -1.4890 c3        1 SIE     -0.079400
     23 CP4         2.0660    5.3360   -2.1680 c3        1 SIE     -0.079400
     24 CP5         2.3290    6.7370   -1.6590 c3        1 SIE     -0.079400
     25 CP6         3.5380    7.3480   -2.3350 c3        1 SIE     -0.079400
     26 CP7         3.8000    8.7490   -1.8270 c3        1 SIE     -0.079400
     27 CP8         5.0100    9.3590   -2.5020 c3        1 SIE     -0.079400
     28 CP9         5.2740   10.7610   -1.9950 c3        1 SIE     -0.079400
     29 CP0         6.4780   11.3730   -2.6650 c3        1 SIE     -0.094100
     30 O27        -2.1280    1.3600   -8.1960 o         1 SIE     -0.552800
     31 O28        -1.6290    3.5470   -7.2220 o         1 SIE     -0.552800
     32 O29        -3.2120    2.0310   -6.0430 os        1 SIE     -0.437800
     33 N20        -3.9260    3.1630   -8.2590 n4        1 SIE     -0.796500
     34 HS2         1.6230   -1.1810   -0.4850 ha        1 SIE      0.170500
     35 HS3         2.6120   -1.5080    1.7870 ha        1 SIE      0.169500
     36 HS5        -0.5280    0.9860    3.4940 ha        1 SIE      0.169500
     37 HS6        -1.5100    1.2940    1.2220 ha        1 SIE      0.170500
     38 HS01        2.5360   -0.0810    7.1230 hn        1 SIE      0.479800
     39 HS02        3.6930   -1.0600    6.4670 hn        1 SIE      0.479800
     40 HI3        -0.7400   -1.9410   -1.7040 ha        1 SIE      0.179000
     41 HI4        -2.0320   -2.0480   -4.3800 ha        1 SIE      0.170000
     42 HI5        -2.9900   -0.5860   -6.1770 ha        1 SIE      0.163000
     43 HI7        -2.0760    3.0040   -3.8690 ha        1 SIE      0.165000
     44 HP11       -1.5150    3.4030   -1.4920 h1        1 SIE      0.069200
     45 HP12       -0.4360    2.7170   -0.1870 h1        1 SIE      0.069200
     46 HP21        1.4990    2.6810   -1.8170 hc        1 SIE      0.054200
     47 HP22        0.4280    3.3510   -3.1100 hc        1 SIE      0.054200
     48 HP31       -0.0420    5.3700   -1.6740 hc        1 SIE      0.044700
     49 HP32        1.0250    4.6990   -0.3800 hc        1 SIE      0.044700
     50 HP41        2.9670    4.6940   -1.9840 hc        1 SIE      0.043700
     51 HP42        1.9010    5.3640   -3.2780 hc        1 SIE      0.043700
     52 HP51        1.4290    7.3810   -1.8460 hc        1 SIE      0.042200
     53 HP52        2.4920    6.7110   -0.5490 hc        1 SIE      0.042200
     54 HP61        3.3750    7.3750   -3.4450 hc        1 SIE      0.041700
     55 HP62        4.4380    6.7050   -2.1490 hc        1 SIE      0.041700
     56 HP71        2.9010    9.3930   -2.0140 hc        1 SIE      0.040700
     57 HP72        3.9630    8.7230   -0.7170 hc        1 SIE      0.040700
     58 HP81        4.8480    9.3860   -3.6120 hc        1 SIE      0.040700
     59 HP82        5.9100    8.7170   -2.3150 hc        1 SIE      0.040700
     60 HP91        5.4340   10.7330   -0.8850 hc        1 SIE      0.039200
     61 HP92        4.3720   11.4030   -2.1830 hc        1 SIE      0.039200
     62 HP01        7.3920   10.7620   -2.4680 hc        1 SIE      0.036700
     63 HP02        6.6540   12.4050   -2.2770 hc        1 SIE      0.036700
     64 HP03        6.3270   11.4320   -3.7700 hc        1 SIE      0.036700
     65 H201       -4.7490    3.0860   -7.6570 hn        1 SIE      0.476467
     66 H202       -3.8030    4.1540   -8.4790 hn        1 SIE      0.476467
     67 HS03        2.0990   -1.4200    6.2700 hn        1 SIE      0.479800
     68 H203       -4.1400    2.6750   -9.1310 hn        1 SIE      0.476467
     69 CP1        -0.6250    2.7360   -1.2980 c3        1 SIE      0.026300
     70 S27        -2.4140    2.4530   -7.4330 s6        1 SIE      1.557400
@<TRIPOS>BOND
     1    1    2 ar  
     2    1    6 ar  
     3    1   13 1   
     4    2    3 ar  
     5    2   34 1   
     6    3    4 ar  
     7    3   35 1   
     8    4    5 ar  
     9    4    7 1   
    10    5    6 ar  
    11    5   36 1   
    12    6   37 1   
    13    7    8 1   
    14    8    9 2   
    15    8   10 2   
    16    8   11 1   
    17   11   38 1   
    18   11   39 1   
    19   11   67 1   
    20   12   13 1   
    21   12   19 1   
    22   12   69 1   
    23   13   14 2   
    24   14   20 1   
    25   14   40 1   
    26   15   16 ar  
    27   15   20 ar  
    28   15   41 1   
    29   16   17 ar  
    30   16   42 1   
    31   17   18 ar  
    32   17   32 1   
    33   18   19 ar  
    34   18   43 1   
    35   19   20 ar  
    36   21   22 1   
    37   21   46 1   
    38   21   47 1   
    39   21   69 1   
    40   22   23 1   
    41   22   48 1   
    42   22   49 1   
    43   23   24 1   
    44   23   50 1   
    45   23   51 1   
    46   24   25 1   
    47   24   52 1   
    48   24   53 1   
    49   25   26 1   
    50   25   54 1   
    51   25   55 1   
    52   26   27 1   
    53   26   56 1   
    54   26   57 1   
    55   27   28 1   
    56   27   58 1   
    57   27   59 1   
    58   28   29 1   
    59   28   60 1   
    60   28   61 1   
    61   29   62 1   
    62   29   63 1   
    63   29   64 1   
    64   30   70 2   
    65   31   70 2   
    66   32   70 1   
    67   33   65 1   
    68   33   66 1   
    69   33   68 1   
    70   33   70 1   
    71   44   69 1   
    72   45   69 1   
@<TRIPOS>SUBSTRUCTURE
     1 SIE         1 TEMP              0 ****  ****    0 ROOT
