@<TRIPOS>MOLECULE
SIE
   68    70     1     0     0
SMALL
bcc


@<TRIPOS>ATOM
      1 CS1         5.6350   -4.7720    9.9410 ca        1 SIE     -0.055800
      2 CS2         4.4490   -4.0370    9.8150 ca        1 SIE     -0.095000
      3 CS3         3.8480   -3.4620   10.9300 ca        1 SIE     -0.158500
      4 CS4         4.4440   -3.6310   12.1900 ca        1 SIE      0.164100
      5 CS5         5.6330   -4.3640   12.3340 ca        1 SIE     -0.158500
      6 CS6         6.2220   -4.9260   11.2070 ca        1 SIE     -0.095000
      7 OS7         3.9310   -3.0120   13.2960 os        1 SIE     -0.504800
      8 SS7         2.3610   -3.3340   13.8950 s6        1 SIE      1.724400
      9 OS8         2.4290   -4.6470   14.3300 o         1 SIE     -0.652800
     10 OS9         1.5320   -2.9700   12.8450 o         1 SIE     -0.652800
     11 NS0         2.2690   -2.3170   15.1010 n3        1 SIE     -1.019700
     12 NI1         5.6580   -6.1040    7.7800 na        1 SIE     -0.064400
     13 CI2         6.3030   -5.3480    8.7830 cc        1 SIE     -0.002300
     14 CI3         7.6690   -5.2530    8.4960 cd        1 SIE     -0.170200
     15 CI4         9.0430   -6.2070    6.4940 ca        1 SIE     -0.069000
     16 CI5         8.9290   -6.9500    5.3320 ca        1 SIE     -0.162000
     17 CI6         7.6700   -7.4650    4.9380 ca        1 SIE      0.165100
     18 CI7         6.5030   -7.2520    5.6730 ca        1 SIE     -0.187000
     19 CI8         6.6250   -6.4890    6.8450 ca        1 SIE     -0.020200
     20 CI9         7.9050   -5.9640    7.2670 ca        1 SIE     -0.106800
     21 CP2         3.4470   -5.7660    6.6660 c3        1 SIE     -0.104400
     22 CP3         2.0100   -6.2360    6.7330 c3        1 SIE     -0.078400
     23 CP4         1.1690   -5.5610    5.6700 c3        1 SIE     -0.079400
     24 CP5        -0.2710   -6.0210    5.7390 c3        1 SIE     -0.078400
     25 CP6        -1.1130   -5.3480    4.6760 c3        1 SIE     -0.079400
     26 CP7        -2.5540   -5.8070    4.7430 c3        1 SIE     -0.079400
     27 CP8        -3.3950   -5.1340    3.6800 c3        1 SIE     -0.079400
     28 CP9        -4.8370   -5.5920    3.7470 c3        1 SIE     -0.080400
     29 CP0        -5.6780   -4.9250    2.6900 c3        1 SIE     -0.092100
     30 O27         7.3610   -6.7290    1.9300 o         1 SIE     -0.655300
     31 S27         6.7420   -7.8620    2.4340 s6        1 SIE      1.717400
     32 O28         5.4300   -7.8180    2.8870 o         1 SIE     -0.655300
     33 O29         7.6410   -8.2670    3.8280 os        1 SIE     -0.501800
     34 N20         7.0010   -9.1260    1.5160 n3        1 SIE     -1.019700
     35 HS2         3.9920   -3.8980    8.8220 ha        1 SIE      0.144500
     36 HS3         2.9130   -2.8880   10.8350 ha        1 SIE      0.157000
     37 HS5         6.0870   -4.4790   13.3280 ha        1 SIE      0.157000
     38 HS6         7.1570   -5.5000   11.3050 ha        1 SIE      0.144500
     39 HS01        1.9860   -1.3720   15.0050 hn        1 SIE      0.461800
     40 HS02        2.5790   -2.5230   16.0200 hn        1 SIE      0.461800
     41 HI3         8.4130   -4.7270    9.0870 ha        1 SIE      0.157000
     42 HI4        10.0170   -5.8080    6.8090 ha        1 SIE      0.137000
     43 HI5         9.8050   -7.1590    4.7030 ha        1 SIE      0.144000
     44 HI7         5.5350   -7.6520    5.3370 ha        1 SIE      0.163000
     45 HP11        3.8220   -6.2860    8.7490 h1        1 SIE      0.062200
     46 HP12        4.2250   -7.5950    7.5380 h1        1 SIE      0.062200
     47 HP21        3.8710   -5.9800    5.6490 hc        1 SIE      0.056700
     48 HP22        3.4910   -4.6560    6.8190 hc        1 SIE      0.056700
     49 HP31        1.9690   -7.3480    6.5930 hc        1 SIE      0.041700
     50 HP32        1.5850   -6.0130    7.7470 hc        1 SIE      0.041700
     51 HP41        1.2160   -4.4480    5.8040 hc        1 SIE      0.044200
     52 HP42        1.5910   -5.7910    4.6560 hc        1 SIE      0.044200
     53 HP51       -0.3180   -7.1340    5.6060 hc        1 SIE      0.039700
     54 HP52       -0.6930   -5.7910    6.7530 hc        1 SIE      0.039700
     55 HP61       -0.6920   -5.5790    3.6610 hc        1 SIE      0.040200
     56 HP62       -1.0660   -4.2350    4.8080 hc        1 SIE      0.040200
     57 HP71       -2.6000   -6.9200    4.6110 hc        1 SIE      0.039200
     58 HP72       -2.9740   -5.5770    5.7580 hc        1 SIE      0.039200
     59 HP81       -3.3490   -4.0210    3.8120 hc        1 SIE      0.039700
     60 HP82       -2.9740   -5.3640    2.6660 hc        1 SIE      0.039700
     61 HP91       -4.8810   -6.7060    3.6160 hc        1 SIE      0.038200
     62 HP92       -5.2550   -5.3630    4.7620 hc        1 SIE      0.038200
     63 HP01       -6.7360   -5.2770    2.7560 hc        1 SIE      0.032367
     64 HP02       -5.6660   -3.8160    2.8180 hc        1 SIE      0.032367
     65 HP03       -5.2910   -5.1620    1.6690 hc        1 SIE      0.032367
     66 H201        6.4710   -9.9610    1.5660 hn        1 SIE      0.459800
     67 H202        7.7710   -9.2060    0.8960 hn        1 SIE      0.459800
     68 CP1         4.2750   -6.4840    7.7350 c3        1 SIE      0.039300
@<TRIPOS>BOND
     1    1    2 ar  
     2    1    6 ar  
     3    1   13 1   
     4    2    3 ar  
     5    2   35 1   
     6    3    4 ar  
     7    3   36 1   
     8    4    5 ar  
     9    4    7 1   
    10    5    6 ar  
    11    5   37 1   
    12    6   38 1   
    13    7    8 1   
    14    8    9 2   
    15    8   10 2   
    16    8   11 1   
    17   11   39 1   
    18   11   40 1   
    19   12   13 1   
    20   12   19 1   
    21   12   68 1   
    22   13   14 2   
    23   14   20 1   
    24   14   41 1   
    25   15   16 ar  
    26   15   20 ar  
    27   15   42 1   
    28   16   17 ar  
    29   16   43 1   
    30   17   18 ar  
    31   17   33 1   
    32   18   19 ar  
    33   18   44 1   
    34   19   20 ar  
    35   21   22 1   
    36   21   47 1   
    37   21   48 1   
    38   21   68 1   
    39   22   23 1   
    40   22   49 1   
    41   22   50 1   
    42   23   24 1   
    43   23   51 1   
    44   23   52 1   
    45   24   25 1   
    46   24   53 1   
    47   24   54 1   
    48   25   26 1   
    49   25   55 1   
    50   25   56 1   
    51   26   27 1   
    52   26   57 1   
    53   26   58 1   
    54   27   28 1   
    55   27   59 1   
    56   27   60 1   
    57   28   29 1   
    58   28   61 1   
    59   28   62 1   
    60   29   63 1   
    61   29   64 1   
    62   29   65 1   
    63   30   31 2   
    64   31   32 2   
    65   31   33 1   
    66   31   34 1   
    67   34   66 1   
    68   34   67 1   
    69   45   68 1   
    70   46   68 1   
@<TRIPOS>SUBSTRUCTURE
     1 SIE         1 TEMP              0 ****  ****    0 ROOT
