@<TRIPOS>MOLECULE
SIF
   24    23     1     0     0
SMALL
bcc


@<TRIPOS>ATOM
      1 C1          1.5100   -0.4390   -1.8140 c         1 SIF      0.899600
      2 O1          1.2380   -1.6270   -2.1630 o         1 SIF     -0.883800
      3 O2          2.6710    0.0560   -1.9910 o         1 SIF     -0.883800
      4 C2          0.4300    0.4670   -1.2110 c3        1 SIF     -0.143400
      5 C3         -0.4260   -0.1670   -0.1500 c3        1 SIF     -0.324700
      6 SI          0.3030   -0.0570    1.5530 Si        1 SIF      0.692000
      7 C4         -1.7630    0.5380    0.0460 c         1 SIF      0.906600
      8 O3         -2.6000    0.7360   -0.8760 o         1 SIF     -0.862300
      9 O4         -1.9960    0.9080    1.2560 o         1 SIF     -0.862300
     10 C5         -0.5630   -1.0530    2.8610 c3        1 SIF     -0.291433
     11 C6          0.6810    1.6430    2.1820 c3        1 SIF     -0.291433
     12 C7          1.9840   -0.8600    1.5280 c3        1 SIF     -0.291433
     13 H21        -0.2300    0.7920   -2.0610 hc        1 SIF      0.021700
     14 H22         0.9260    1.3870   -0.8010 hc        1 SIF      0.021700
     15 H3         -0.6250   -1.2260   -0.4560 hc        1 SIF      0.074700
     16 H51        -0.0690   -0.9340    3.8510 hc        1 SIF      0.024478
     17 H52        -1.6220   -0.7210    2.9540 hc        1 SIF      0.024478
     18 H53        -0.5590   -2.1360    2.6060 hc        1 SIF      0.024478
     19 H61        -0.2560    2.2400    2.2590 hc        1 SIF      0.024478
     20 H62         1.1600    1.6070    3.1850 hc        1 SIF      0.024478
     21 H63         1.3720    2.1730    1.4890 hc        1 SIF      0.024478
     22 H71         1.9230   -1.9420    1.7790 hc        1 SIF      0.024478
     23 H72         2.4220   -0.7720    0.5030 hc        1 SIF      0.024478
     24 H73         2.6820   -0.3810    2.2480 hc        1 SIF      0.024478
@<TRIPOS>BOND
     1    1    2 1   
     2    1    3 1   
     3    1    4 1   
     4    4    5 1   
     5    4   13 1   
     6    4   14 1   
     7    5    6 1   
     8    5    7 1   
     9    5   15 1   
    10    6   10 1   
    11    6   11 1   
    12    6   12 1   
    13    7    8 1   
    14    7    9 1   
    15   10   16 1   
    16   10   17 1   
    17   10   18 1   
    18   11   19 1   
    19   11   20 1   
    20   11   21 1   
    21   12   22 1   
    22   12   23 1   
    23   12   24 1   
@<TRIPOS>SUBSTRUCTURE
     1 SIF         1 TEMP              0 ****  ****    0 ROOT
