@<TRIPOS>MOLECULE
SIF
   24    23     1     0     0
SMALL
bcc


@<TRIPOS>ATOM
      1 C1         -0.3500   -0.9350   -0.4850 c         1 SIF      0.899600
      2 O1          0.7790   -1.4940   -0.3460 o         1 SIF     -0.883800
      3 O2         -1.4200   -1.4860   -0.0680 o         1 SIF     -0.883800
      4 C2         -0.4620    0.4570   -1.1180 c3        1 SIF     -0.143400
      5 C3          0.3380    0.6620   -2.3740 c3        1 SIF     -0.324700
      6 SI         -0.5520    0.1350   -3.9140 Si        1 SIF      0.692000
      7 C4          0.6210    2.1300   -2.6740 c         1 SIF      0.906600
      8 O3          1.1930    2.9190   -1.8730 o         1 SIF     -0.862300
      9 O4          0.2480    2.5140   -3.8440 o         1 SIF     -0.862300
     10 C5          0.4740    0.1040   -5.4630 c3        1 SIF     -0.291433
     11 C6         -2.1870    0.9400   -4.2400 c3        1 SIF     -0.291433
     12 C7         -1.0160   -1.6610   -3.7410 c3        1 SIF     -0.291433
     13 H21        -0.1130    1.1920   -0.3430 hc        1 SIF      0.021700
     14 H22        -1.5460    0.6710   -1.3170 hc        1 SIF      0.021700
     15 H3          1.3160    0.1310   -2.2480 hc        1 SIF      0.074700
     16 H51         1.3310   -0.5980   -5.3590 hc        1 SIF      0.024478
     17 H52         0.8800    1.1200   -5.6710 hc        1 SIF      0.024478
     18 H53        -0.1290   -0.2200   -6.3390 hc        1 SIF      0.024478
     19 H61        -2.0530    2.0370   -4.3780 hc        1 SIF      0.024478
     20 H62        -2.8810    0.7820   -3.3840 hc        1 SIF      0.024478
     21 H63        -2.6680    0.5250   -5.1530 hc        1 SIF      0.024478
     22 H71        -1.9620   -1.8980   -4.2740 hc        1 SIF      0.024478
     23 H72        -0.2220   -2.3280   -4.1430 hc        1 SIF      0.024478
     24 H73        -1.1520   -1.9070   -2.6590 hc        1 SIF      0.024478
@<TRIPOS>BOND
     1    1    2 1   
     2    1    3 1   
     3    1    4 1   
     4    4    5 1   
     5    4   13 1   
     6    4   14 1   
     7    5    6 1   
     8    5    7 1   
     9    5   15 1   
    10    6   10 1   
    11    6   11 1   
    12    6   12 1   
    13    7    8 1   
    14    7    9 1   
    15   10   16 1   
    16   10   17 1   
    17   10   18 1   
    18   11   19 1   
    19   11   20 1   
    20   11   21 1   
    21   12   22 1   
    22   12   23 1   
    23   12   24 1   
@<TRIPOS>SUBSTRUCTURE
     1 SIF         1 TEMP              0 ****  ****    0 ROOT
