@<TRIPOS>MOLECULE
SIF
   24    23     1     0     0
SMALL
bcc


@<TRIPOS>ATOM
      1 C1         -0.2440   -0.9330   -0.4640 c         1 SIF      0.900600
      2 O1          0.6790   -1.7520   -0.7540 o         1 SIF     -0.884300
      3 O2         -1.1270   -1.2130    0.4100 o         1 SIF     -0.884300
      4 C2         -0.3250    0.4470   -1.1270 c3        1 SIF     -0.141400
      5 C3          0.4060    0.6060   -2.4310 c3        1 SIF     -0.326700
      6 Si         -0.6070    0.1410   -3.9130 Si        1 SIF      0.692000
      7 C4          0.7600    2.0550   -2.7430 c         1 SIF      0.906600
      8 O3          1.4730    2.7840   -2.0000 o         1 SIF     -0.863300
      9 O4          0.2900    2.4890   -3.8600 o         1 SIF     -0.863300
     10 C5          0.3000    0.1170   -5.5350 c3        1 SIF     -0.292767
     11 C6         -2.2350    1.0020   -4.1010 c3        1 SIF     -0.292767
     12 C7         -1.0980   -1.6500   -3.7430 c3        1 SIF     -0.292767
     13 H21         0.0960    1.1790   -0.3850 hc        1 SIF      0.022200
     14 H22        -1.4090    0.7040   -1.2630 hc        1 SIF      0.022200
     15 H3          1.3510    0.0070   -2.3700 hc        1 SIF      0.076700
     16 H51         1.1450   -0.6070   -5.5070 hc        1 SIF      0.024478
     17 H52         0.7140    1.1260   -5.7570 hc        1 SIF      0.024478
     18 H53        -0.3750   -0.1790   -6.3680 hc        1 SIF      0.024478
     19 H61        -2.0740    2.0990   -4.2150 hc        1 SIF      0.024478
     20 H62        -2.8750    0.8370   -3.2060 hc        1 SIF      0.024478
     21 H63        -2.7890    0.6320   -4.9920 hc        1 SIF      0.024478
     22 H71        -0.6510   -2.2800   -4.5430 hc        1 SIF      0.024478
     23 H72        -0.7370   -2.0330   -2.7560 hc        1 SIF      0.024478
     24 H73        -2.2010   -1.7820   -3.7810 hc        1 SIF      0.024478
@<TRIPOS>BOND
     1    1    2 1   
     2    1    3 1   
     3    1    4 1   
     4    4    5 1   
     5    4   13 1   
     6    4   14 1   
     7    5    6 1   
     8    5    7 1   
     9    5   15 1   
    10    6   10 1   
    11    6   11 1   
    12    6   12 1   
    13    7    8 1   
    14    7    9 1   
    15   10   16 1   
    16   10   17 1   
    17   10   18 1   
    18   11   19 1   
    19   11   20 1   
    20   11   21 1   
    21   12   22 1   
    22   12   23 1   
    23   12   24 1   
@<TRIPOS>SUBSTRUCTURE
     1 SIF         1 TEMP              0 ****  ****    0 ROOT
