@<TRIPOS>MOLECULE
SIG
   77    78     1     0     0
SMALL
bcc


@<TRIPOS>ATOM
      1 C1          2.4620   -0.2770    5.3750 ca        1 SIG      0.128100
      2 C2          1.8050   -0.6370    4.1840 ca        1 SIG      0.037100
      3 C3          0.4140   -0.4180    4.0890 ca        1 SIG      0.172100
      4 C4         -0.3180    0.1470    5.1450 ca        1 SIG     -0.244600
      5 C5          0.3820    0.4940    6.3280 ca        1 SIG      0.208100
      6 C6          1.7590    0.2840    6.4470 ca        1 SIG     -0.287000
      7 O7         -0.1580   -0.7990    2.8910 os        1 SIG     -0.197200
      8 C8         -1.5200   -0.5960    2.7430 cc        1 SIG      0.118900
      9 C9         -2.3160   -0.0600    3.6990 cd        1 SIG     -0.259400
     10 C10        -1.7650    0.3590    5.0000 c         1 SIG      0.599900
     11 O12         2.4430   -1.1790    3.0920 oh        1 SIG     -0.476100
     12 O13         3.8210   -0.5260    5.3750 os        1 SIG     -0.340900
     13 O14        -0.3900    1.0400    7.3240 os        1 SIG     -0.279900
     14 O15        -2.4700    0.8510    5.8900 o         1 SIG     -0.528100
     15 C16         0.2800    1.4090    8.5250 c3        1 SIG      0.106700
     16 C20        -1.9550   -1.0690    1.3940 c3        1 SIG     -0.042200
     17 C21        -1.8580    0.0460    0.3680 c3        1 SIG     -0.073400
     18 C22        -2.0870   -0.4640   -1.0480 c3        1 SIG     -0.065700
     19 C23        -2.0350    0.6710   -2.0810 c3        1 SIG     -0.054700
     20 C24        -1.7540    0.1290   -3.4920 c3        1 SIG     -0.055700
     21 C25        -0.2730    0.0770   -3.8890 c3        1 SIG     -0.032500
     22 C26         4.5160   -0.2480    6.5870 c3        1 SIG      0.120700
     23 C27        -3.4210   -1.1840   -1.1430 c3        1 SIG     -0.095100
     24 C28        -1.0960    1.7960   -1.7020 c3        1 SIG     -0.091100
     25 C29        -0.1400   -0.3580   -5.3130 c2        1 SIG     -0.149200
     26 C30         0.5990    0.2970   -6.2200 ce        1 SIG     -0.144000
     27 C31         0.7430   -0.1490   -7.5890 ce        1 SIG     -0.130000
     28 C32         1.4830    0.5140   -8.4950 cf        1 SIG     -0.122000
     29 C33        -3.7700    0.1200    3.4820 c3        1 SIG     -0.041900
     30 C34         0.5300   -0.8830   -3.0280 c3        1 SIG     -0.090100
     31 C35        -2.5280    0.9620   -4.5010 c3        1 SIG     -0.094100
     32 C36         1.6610    0.1090   -9.8820 cf        1 SIG     -0.089200
     33 C37         2.4260    0.8540  -10.7040 c2        1 SIG     -0.157200
     34 C38         2.6850    0.5540  -12.1240 c3        1 SIG     -0.063900
     35 C39         0.9750   -1.1300  -10.3250 c3        1 SIG     -0.059900
     36 H6          2.2890    0.5580    7.3690 ha        1 SIG      0.150000
     37 HO2         3.3610   -1.3570    3.3490 ho        1 SIG      0.432000
     38 H161       -0.5470    1.8210    9.1580 h1        1 SIG      0.047700
     39 H162        0.7410    0.5150    9.0120 h1        1 SIG      0.047700
     40 H163        1.0520    2.1910    8.3250 h1        1 SIG      0.047700
     41 H201       -1.3070   -1.9310    1.0770 hc        1 SIG      0.070700
     42 H202       -3.0130   -1.4370    1.4750 hc        1 SIG      0.070700
     43 H211       -2.6090    0.8440    0.6090 hc        1 SIG      0.052700
     44 H212       -0.8350    0.5030    0.4390 hc        1 SIG      0.052700
     45 H22        -1.2710   -1.2040   -1.2840 hc        1 SIG      0.055700
     46 H23        -3.0740    1.1200   -2.1040 hc        1 SIG      0.045700
     47 H24        -2.1460   -0.9280   -3.5440 hc        1 SIG      0.046700
     48 H25         0.1640    1.1100   -3.7760 hc        1 SIG      0.055700
     49 H261        5.5670   -0.5560    6.3560 h1        1 SIG      0.049700
     50 H262        4.4670    0.8430    6.8240 h1        1 SIG      0.049700
     51 H263        4.1000   -0.8550    7.4280 h1        1 SIG      0.049700
     52 H271       -4.2360   -0.5610   -0.7010 hc        1 SIG      0.034367
     53 H272       -3.6820   -1.3990   -2.2070 hc        1 SIG      0.034367
     54 H273       -3.3780   -2.1550   -0.5920 hc        1 SIG      0.034367
     55 H281       -0.0680    1.4190   -1.4840 hc        1 SIG      0.036367
     56 H282       -1.0340    2.5360   -2.5380 hc        1 SIG      0.036367
     57 H283       -1.4740    2.3320   -0.7970 hc        1 SIG      0.036367
     58 H29        -0.6800   -1.2830   -5.5720 ha        1 SIG      0.121000
     59 H30         1.1360    1.2230   -5.9480 ha        1 SIG      0.123000
     60 H31         0.2070   -1.0750   -7.8590 ha        1 SIG      0.123000
     61 H32         2.0120    1.4400   -8.2020 ha        1 SIG      0.121000
     62 H331       -4.2150    0.7350    4.3060 hc        1 SIG      0.050367
     63 H332       -3.9650    0.6340    2.5080 hc        1 SIG      0.050367
     64 H333       -4.2860   -0.8730    3.4660 hc        1 SIG      0.050367
     65 H341        0.0640   -1.8970   -3.0270 hc        1 SIG      0.038033
     66 H342        1.5700   -0.9730   -3.4270 hc        1 SIG      0.038033
     67 H343        0.5900   -0.5130   -1.9760 hc        1 SIG      0.038033
     68 H351       -2.1840    2.0240   -4.4770 hc        1 SIG      0.035700
     69 H352       -2.3830    0.5660   -5.5350 hc        1 SIG      0.035700
     70 H353       -3.6200    0.9360   -4.2680 hc        1 SIG      0.035700
     71 H37         2.9120    1.7670  -10.3190 ha        1 SIG      0.119000
     72 H381        3.3490    1.3300  -12.5790 hc        1 SIG      0.042700
     73 H382        3.1840   -0.4410  -12.2360 hc        1 SIG      0.042700
     74 H383        1.7290    0.5300  -12.7070 hc        1 SIG      0.042700
     75 H391        1.1780   -1.3530  -11.4010 hc        1 SIG      0.042700
     76 H392        1.3230   -2.0020   -9.7160 hc        1 SIG      0.042700
     77 H393       -0.1310   -1.0270  -10.1910 hc        1 SIG      0.042700
@<TRIPOS>BOND
     1    1    2 ar  
     2    1    6 ar  
     3    1   12 1   
     4    2    3 ar  
     5    2   11 1   
     6    3    4 ar  
     7    3    7 1   
     8    4    5 ar  
     9    4   10 1   
    10    5    6 ar  
    11    5   13 1   
    12    6   36 1   
    13    7    8 1   
    14    8    9 2   
    15    8   16 1   
    16    9   10 1   
    17    9   29 1   
    18   10   14 2   
    19   11   37 1   
    20   12   22 1   
    21   13   15 1   
    22   15   38 1   
    23   15   39 1   
    24   15   40 1   
    25   16   17 1   
    26   16   41 1   
    27   16   42 1   
    28   17   18 1   
    29   17   43 1   
    30   17   44 1   
    31   18   19 1   
    32   18   23 1   
    33   18   45 1   
    34   19   20 1   
    35   19   24 1   
    36   19   46 1   
    37   20   21 1   
    38   20   31 1   
    39   20   47 1   
    40   21   25 1   
    41   21   30 1   
    42   21   48 1   
    43   22   49 1   
    44   22   50 1   
    45   22   51 1   
    46   23   52 1   
    47   23   53 1   
    48   23   54 1   
    49   24   55 1   
    50   24   56 1   
    51   24   57 1   
    52   25   26 2   
    53   25   58 1   
    54   26   27 1   
    55   26   59 1   
    56   27   28 2   
    57   27   60 1   
    58   28   32 1   
    59   28   61 1   
    60   29   62 1   
    61   29   63 1   
    62   29   64 1   
    63   30   65 1   
    64   30   66 1   
    65   30   67 1   
    66   31   68 1   
    67   31   69 1   
    68   31   70 1   
    69   32   33 2   
    70   32   35 1   
    71   33   34 1   
    72   33   71 1   
    73   34   72 1   
    74   34   73 1   
    75   34   74 1   
    76   35   75 1   
    77   35   76 1   
    78   35   77 1   
@<TRIPOS>SUBSTRUCTURE
     1 SIG         1 TEMP              0 ****  ****    0 ROOT
