@<TRIPOS>MOLECULE
SIG
   77    77     1     0     0
SMALL
bcc


@<TRIPOS>ATOM
      1 C1          0.7330   -0.0560   -0.4020 ca        1 SIG      0.128100
      2 C2          2.0860    0.0610   -0.0330 ca        1 SIG      0.037100
      3 C3          2.4260   -0.0640    1.3320 ca        1 SIG      0.172100
      4 C4          1.4540   -0.3010    2.3150 ca        1 SIG     -0.244600
      5 C5          0.1030   -0.4120    1.9020 ca        1 SIG      0.208100
      6 C6         -0.2600   -0.2900    0.5560 ca        1 SIG     -0.286000
      7 O7          3.7710    0.0660    1.6130 os        1 SIG     -0.197200
      8 C8          4.1590   -0.0580    2.9380 cc        1 SIG      0.117900
      9 C9          3.3020   -0.2860    3.9610 cd        1 SIG     -0.259400
     10 C10         1.8550   -0.4270    3.7240 c         1 SIG      0.599900
     11 O12         3.1080    0.2790   -0.9280 oh        1 SIG     -0.477100
     12 O13         0.4970    0.0780   -1.7560 os        1 SIG     -0.340900
     13 O14        -0.8010   -0.6430    2.9110 os        1 SIG     -0.279900
     14 O15         1.0500   -0.6360    4.6410 o         1 SIG     -0.528100
     15 C16        -2.1680   -0.7670    2.5320 c3        1 SIG      0.106700
     16 C20         5.6390    0.1140    3.0460 c3        1 SIG     -0.042200
     17 C21         6.3550   -1.2170    2.8980 c3        1 SIG     -0.073400
     18 C22         7.8630   -1.0410    2.7860 c3        1 SIG     -0.065700
     19 C23         8.5900   -2.3890    2.6840 c3        1 SIG     -0.054700
     20 C24         9.9920   -2.2220    2.0730 c3        1 SIG     -0.055700
     21 C25        10.0610   -2.3860    0.5490 c3        1 SIG     -0.026500
     22 C26        -0.8650    0.0290   -2.1700 c3        1 SIG      0.120700
     23 C27         8.3950   -0.2590    3.9740 c3        1 SIG     -0.095100
     24 C28         7.7860   -3.4630    1.9850 c3        1 SIG     -0.092100
     25 C29        11.4860   -2.3120    0.0960 c2        1 SIG     -0.142300
     26 C30        12.0480   -3.1920   -0.6910 c1        1 SIG     -0.065900
     27 C31        12.6010   -4.0370   -1.4480 c1        1 SIG     -0.046900
     28 C32        13.1460   -4.9330   -2.2360 ce        1 SIG     -0.114100
     29 C33         3.7800   -0.3970    5.3590 c3        1 SIG     -0.041900
     30 C34         9.2790   -1.3170   -0.1930 c3        1 SIG     -0.091100
     31 C35        10.9390   -3.2060    2.7400 c3        1 SIG     -0.095100
     32 C36        14.5150   -4.8970   -2.7270 ce        1 SIG     -0.082200
     33 C37        14.9660   -5.8770   -3.5370 c2        1 SIG     -0.159200
     34 C38        16.3350   -5.9230   -4.0810 c3        1 SIG     -0.064900
     35 C39        15.3890   -3.7730   -2.3080 c3        1 SIG     -0.058900
     36 H6         -1.3100   -0.3780    0.2500 ha        1 SIG      0.150000
     37 HO2         2.7070    0.4220   -1.7990 ho        1 SIG      0.432000
     38 H161       -2.5360    0.1780    2.0630 h1        1 SIG      0.047700
     39 H162       -2.3110   -1.6330    1.8420 h1        1 SIG      0.047700
     40 H163       -2.6840   -0.9500    3.5090 h1        1 SIG      0.047700
     41 H201        5.9890    0.8220    2.2470 hc        1 SIG      0.070700
     42 H202        5.8670    0.5730    4.0450 hc        1 SIG      0.070700
     43 H211        5.9690   -1.7240    1.9740 hc        1 SIG      0.053200
     44 H212        6.1150   -1.8720    3.7760 hc        1 SIG      0.053200
     45 H22         8.0720   -0.4460    1.8520 hc        1 SIG      0.054700
     46 H23         8.7380   -2.7460    3.7480 hc        1 SIG      0.046700
     47 H24        10.3530   -1.1800    2.3100 hc        1 SIG      0.046700
     48 H25         9.6400   -3.3950    0.2760 hc        1 SIG      0.063700
     49 H261       -1.3080   -0.9700   -1.9370 h1        1 SIG      0.049700
     50 H262       -0.8030    0.1870   -3.2760 h1        1 SIG      0.049700
     51 H263       -1.4530    0.8460   -1.6850 h1        1 SIG      0.049700
     52 H271        9.5110   -0.2820    3.9980 hc        1 SIG      0.034700
     53 H272        8.0700    0.8080    3.9130 hc        1 SIG      0.034700
     54 H273        8.0150   -0.6920    4.9310 hc        1 SIG      0.034700
     55 H281        7.4390   -3.1290    0.9780 hc        1 SIG      0.037033
     56 H282        6.8890   -3.7370    2.5930 hc        1 SIG      0.037033
     57 H283        8.4080   -4.3830    1.8590 hc        1 SIG      0.037033
     58 H29        12.0560   -1.4350    0.4520 ha        1 SIG      0.137000
     59 H30        12.9800   -5.3150    4.2170 ha        1 SIG     -0.000500
     60 H31        12.5590   -4.8840    3.9060 ha        1 SIG     -0.000500
     61 H32        12.5340   -5.7950   -2.5670 ha        1 SIG      0.137000
     62 H331        4.1200    0.6020    5.7330 hc        1 SIG      0.050367
     63 H332        4.6390   -1.1100    5.4290 hc        1 SIG      0.050367
     64 H333        2.9570   -0.7610    6.0250 hc        1 SIG      0.050367
     65 H341        9.5990   -0.2970    0.1310 hc        1 SIG      0.039367
     66 H342        9.4560   -1.4090   -1.2920 hc        1 SIG      0.039367
     67 H343        8.1840   -1.4280   -0.0040 hc        1 SIG      0.039367
     68 H351       11.9790   -3.0810    2.3540 hc        1 SIG      0.037033
     69 H352       10.9570   -3.0410    3.8450 hc        1 SIG      0.037033
     70 H353       10.6150   -4.2570    2.5440 hc        1 SIG      0.037033
     71 H37        14.3010   -6.7040   -3.8360 ha        1 SIG      0.121000
     72 H381       16.4510   -5.1680   -4.9000 hc        1 SIG      0.043367
     73 H382       16.5650   -6.9330   -4.5000 hc        1 SIG      0.043367
     74 H383       17.0900   -5.6890   -3.2880 hc        1 SIG      0.043367
     75 H391       14.7980   -2.9430   -1.8500 hc        1 SIG      0.044700
     76 H392       15.9490   -3.3670   -3.1870 hc        1 SIG      0.044700
     77 H393       16.1370   -4.1310   -1.5560 hc        1 SIG      0.044700
@<TRIPOS>BOND
     1    1    2 ar  
     2    1    6 ar  
     3    1   12 1   
     4    2    3 ar  
     5    2   11 1   
     6    3    4 ar  
     7    3    7 1   
     8    4    5 ar  
     9    4   10 1   
    10    5    6 ar  
    11    5   13 1   
    12    6   36 1   
    13    7    8 1   
    14    8    9 2   
    15    8   16 1   
    16    9   10 1   
    17    9   29 1   
    18   10   14 2   
    19   11   37 1   
    20   12   22 1   
    21   13   15 1   
    22   15   38 1   
    23   15   39 1   
    24   15   40 1   
    25   16   17 1   
    26   16   41 1   
    27   16   42 1   
    28   17   18 1   
    29   17   43 1   
    30   17   44 1   
    31   18   19 1   
    32   18   23 1   
    33   18   45 1   
    34   19   20 1   
    35   19   24 1   
    36   19   46 1   
    37   20   21 1   
    38   20   31 1   
    39   20   47 1   
    40   21   25 1   
    41   21   30 1   
    42   21   48 1   
    43   22   49 1   
    44   22   50 1   
    45   22   51 1   
    46   23   52 1   
    47   23   53 1   
    48   23   54 1   
    49   24   55 1   
    50   24   56 1   
    51   24   57 1   
    52   25   26 2   
    53   25   58 1   
    54   26   27 2   
    55   27   28 2   
    56   28   32 1   
    57   28   61 1   
    58   29   62 1   
    59   29   63 1   
    60   29   64 1   
    61   30   65 1   
    62   30   66 1   
    63   30   67 1   
    64   31   68 1   
    65   31   69 1   
    66   31   70 1   
    67   32   33 2   
    68   32   35 1   
    69   33   34 1   
    70   33   71 1   
    71   34   72 1   
    72   34   73 1   
    73   34   74 1   
    74   35   75 1   
    75   35   76 1   
    76   35   77 1   
    77   59   60 1   
@<TRIPOS>SUBSTRUCTURE
     1 SIG         1 TEMP              0 ****  ****    0 ROOT
