@<TRIPOS>MOLECULE
SIH
   64    67     1     0     0
SMALL
bcc


@<TRIPOS>ATOM
      1 C1         -0.1320   -0.2930    0.6660 c3        1 SIH     -0.070400
      2 C2          1.2950   -0.2310    0.1760 c3        1 SIH     -0.178400
      3 C3          2.2060    0.2070    1.2850 c         1 SIH      0.570300
      4 O3          3.3210   -0.2900    1.4840 o         1 SIH     -0.547100
      5 C4          1.6810    1.3140    2.0980 ce        1 SIH     -0.264200
      6 C5          0.4010    1.7170    2.0470 c2        1 SIH     -0.036400
      7 C6         -0.0250    2.9750    2.7260 c3        1 SIH     -0.055200
      8 C7         -0.4810    3.9640    1.6680 c3        1 SIH     -0.070400
      9 C8         -1.5600    3.3560    0.7860 c3        1 SIH     -0.052700
     10 C9         -1.0760    2.0490    0.1240 c3        1 SIH     -0.044700
     11 C10        -0.6680    1.0340    1.2240 c3        1 SIH     -0.008800
     12 C11        -2.1110    1.5150   -0.8830 c3        1 SIH      0.157100
     13 O11        -1.3970    0.6220   -1.7600 os        1 SIH     -0.459900
     14 C12        -2.7510    2.5600   -1.8100 c3        1 SIH     -0.098400
     15 C13        -3.2140    3.7890   -1.0590 c3        1 SIH     -0.032000
     16 C14        -1.9820    4.3270   -0.2940 c3        1 SIH     -0.066700
     17 C15        -2.3670    5.7470    0.0940 c3        1 SIH     -0.072400
     18 C16        -3.2530    6.2340   -1.0540 c3        1 SIH     -0.075400
     19 C17        -3.5740    5.0150   -1.9350 c3        1 SIH     -0.164700
     20 C18        -4.3940    3.4480   -0.1650 c3        1 SIH     -0.090100
     21 C19        -1.8490    0.6570    2.1200 c3        1 SIH     -0.090100
     22 C20        -4.9960    5.0110   -2.4340 c         1 SIH      0.580100
     23 O20        -5.9100    5.6170   -1.8610 o         1 SIH     -0.549100
     24 C21        -5.2310    4.2490   -3.6990 c3        1 SIH     -0.206100
     25 CH1        -2.1220   -0.3370   -2.4350 c         1 SIH      0.636100
     26 OH1        -3.3140   -0.4530   -2.1350 o         1 SIH     -0.577000
     27 CH2        -1.3010   -1.0870   -3.4340 c3        1 SIH     -0.106400
     28 CH3        -1.5740   -0.5980   -4.8370 c3        1 SIH     -0.203400
     29 CH4        -0.8220   -1.4650   -5.8710 c         1 SIH      0.915600
     30 OH4        -0.4030   -2.6010   -5.5110 o         1 SIH     -0.839800
     31 OH5        -0.6800   -0.9780   -7.0270 o         1 SIH     -0.839800
     32 H11A       -0.1870   -1.0650    1.4830 hc        1 SIH      0.059200
     33 H12        -0.7960   -0.6510   -0.1620 hc        1 SIH      0.059200
     34 H21         1.3820    0.5010   -0.6730 hc        1 SIH      0.082700
     35 H22         1.6100   -1.2350   -0.2130 hc        1 SIH      0.082700
     36 H41         2.4220    1.8300    2.7310 ha        1 SIH      0.139000
     37 H61        -0.8630    2.7610    3.4420 hc        1 SIH      0.049200
     38 H62         0.8170    3.4180    3.3190 hc        1 SIH      0.049200
     39 H71        -0.8830    4.8860    2.1630 hc        1 SIH      0.045200
     40 H72         0.3940    4.2720    1.0380 hc        1 SIH      0.045200
     41 H8         -2.4500    3.1390    1.4390 hc        1 SIH      0.056700
     42 H9         -0.1420    2.2790   -0.4640 hc        1 SIH      0.070700
     43 H11        -2.9160    0.9470   -0.3400 h1        1 SIH      0.067700
     44 H121       -3.6130    2.0590   -2.3270 hc        1 SIH      0.065200
     45 H122       -2.0050    2.8490   -2.5970 hc        1 SIH      0.065200
     46 H14        -1.1290    4.4040   -1.0310 hc        1 SIH      0.055700
     47 H151       -2.9290    5.7590    1.0610 hc        1 SIH      0.040700
     48 H152       -1.4640    6.3930    0.2160 hc        1 SIH      0.040700
     49 H161       -4.1970    6.6840   -0.6550 hc        1 SIH      0.052200
     50 H162       -2.7280    7.0130   -1.6580 hc        1 SIH      0.052200
     51 H17        -2.8960    5.0170   -2.8330 hc        1 SIH      0.068700
     52 H181       -5.2750    3.1670   -0.7950 hc        1 SIH      0.041700
     53 H182       -4.1620    2.5820    0.5000 hc        1 SIH      0.041700
     54 H183       -4.6740    4.3280    0.4620 hc        1 SIH      0.041700
     55 H191       -2.3840    1.5510    2.5170 hc        1 SIH      0.039700
     56 H192       -1.4870    0.0590    2.9920 hc        1 SIH      0.039700
     57 H193       -2.5780    0.0360    1.5440 hc        1 SIH      0.039700
     58 H211       -4.8320    3.2090   -3.5990 hc        1 SIH      0.068700
     59 H212       -4.6990    4.7530   -4.5430 hc        1 SIH      0.068700
     60 H213       -6.3210    4.2010   -3.9370 hc        1 SIH      0.068700
     61 HH21       -0.2110   -0.9730   -3.2000 hc        1 SIH      0.087200
     62 HH22       -1.5580   -2.1800   -3.3690 hc        1 SIH      0.087200
     63 HH31       -2.6670   -0.6590   -5.0660 hc        1 SIH      0.034200
     64 HH32       -1.2510    0.4650   -4.9530 hc        1 SIH      0.034200
@<TRIPOS>BOND
     1    1    2 1   
     2    1   11 1   
     3    1   32 1   
     4    1   33 1   
     5    2    3 1   
     6    2   34 1   
     7    2   35 1   
     8    3    4 2   
     9    3    5 1   
    10    5    6 2   
    11    5   36 1   
    12    6    7 1   
    13    6   11 1   
    14    7    8 1   
    15    7   37 1   
    16    7   38 1   
    17    8    9 1   
    18    8   39 1   
    19    8   40 1   
    20    9   10 1   
    21    9   16 1   
    22    9   41 1   
    23   10   11 1   
    24   10   12 1   
    25   10   42 1   
    26   11   21 1   
    27   12   13 1   
    28   12   14 1   
    29   12   43 1   
    30   13   25 1   
    31   14   15 1   
    32   14   44 1   
    33   14   45 1   
    34   15   16 1   
    35   15   19 1   
    36   15   20 1   
    37   16   17 1   
    38   16   46 1   
    39   17   18 1   
    40   17   47 1   
    41   17   48 1   
    42   18   19 1   
    43   18   49 1   
    44   18   50 1   
    45   19   22 1   
    46   19   51 1   
    47   20   52 1   
    48   20   53 1   
    49   20   54 1   
    50   21   55 1   
    51   21   56 1   
    52   21   57 1   
    53   22   23 2   
    54   22   24 1   
    55   24   58 1   
    56   24   59 1   
    57   24   60 1   
    58   25   26 2   
    59   25   27 1   
    60   27   28 1   
    61   27   61 1   
    62   27   62 1   
    63   28   29 1   
    64   28   63 1   
    65   28   64 1   
    66   29   30 1   
    67   29   31 1   
@<TRIPOS>SUBSTRUCTURE
     1 SIH         1 TEMP              0 ****  ****    0 ROOT
