@<TRIPOS>MOLECULE
SIH
   64    67     1     0     0
SMALL
bcc


@<TRIPOS>ATOM
      1 C1         -2.0770   -0.6470    1.7080 c3        1 SIH     -0.072400
      2 C2         -2.6970    0.6390    2.2010 c3        1 SIH     -0.177400
      3 C3         -4.1370    0.7170    1.7860 c         1 SIH      0.569300
      4 O3         -5.0300    1.1650    2.5160 o         1 SIH     -0.547100
      5 C4         -4.4000    0.2630    0.4130 ce        1 SIH     -0.264200
      6 C5         -3.4960   -0.4000   -0.3260 c2        1 SIH     -0.037400
      7 C6         -3.7320   -0.6350   -1.7800 c3        1 SIH     -0.055200
      8 C7         -2.6930    0.1490   -2.5620 c3        1 SIH     -0.070400
      9 C8         -1.2880   -0.2180   -2.1140 c3        1 SIH     -0.053700
     10 C9         -1.0940   -0.0040   -0.5970 c3        1 SIH     -0.043700
     11 C10        -2.1420   -0.8400    0.1850 c3        1 SIH     -0.008800
     12 C11         0.3680   -0.2700   -0.1930 c3        1 SIH      0.158100
     13 O11         0.5570    0.3380    1.0970 os        1 SIH     -0.465900
     14 C12         1.4330    0.3630   -1.1030 c3        1 SIH     -0.097400
     15 C13         1.1690    0.0880   -2.5680 c3        1 SIH     -0.033000
     16 C14        -0.2590    0.6040   -2.8580 c3        1 SIH     -0.065700
     17 C15        -0.3290    0.6910   -4.3750 c3        1 SIH     -0.072400
     18 C16         1.0880    1.0780   -4.8030 c3        1 SIH     -0.076400
     19 C17         1.9990    0.9260   -3.5720 c3        1 SIH     -0.163700
     20 C18         1.3660   -1.3880   -2.8720 c3        1 SIH     -0.090100
     21 C19        -1.9590   -2.3400   -0.0500 c3        1 SIH     -0.091100
     22 C20         3.3390    0.3250   -3.9090 c         1 SIH      0.580100
     23 O20         3.5390   -0.3300   -4.9390 o         1 SIH     -0.548100
     24 C21         4.4350    0.5950   -2.9280 c3        1 SIH     -0.206100
     25 CH1         1.5770   -0.1410    1.8970 c         1 SIH      0.636100
     26 OH1         2.2440   -1.0770    1.4470 o         1 SIH     -0.570000
     27 CH2         1.6870    0.6080    3.1830 c3        1 SIH     -0.113400
     28 CH3         1.9450   -0.3020    4.3590 c3        1 SIH     -0.205400
     29 CH4         2.4430    0.5180    5.5710 c         1 SIH      0.913600
     30 OH4         3.0670    1.5940    5.3460 o         1 SIH     -0.840300
     31 OH5         2.2040    0.0530    6.7190 o         1 SIH     -0.840300
     32 H11A       -1.0130   -0.7030    2.0560 hc        1 SIH      0.063700
     33 H12        -2.6210   -1.5050    2.1900 hc        1 SIH      0.063700
     34 H21        -2.1530    1.5230    1.7730 hc        1 SIH      0.082200
     35 H22        -2.6110    0.6990    3.3180 hc        1 SIH      0.082200
     36 H41        -5.3850    0.5390    0.0030 ha        1 SIH      0.138000
     37 H61        -4.7610   -0.3050   -2.0800 hc        1 SIH      0.049700
     38 H62        -3.6490   -1.7290   -2.0130 hc        1 SIH      0.049700
     39 H71        -2.8630    1.2480   -2.4170 hc        1 SIH      0.044200
     40 H72        -2.8020   -0.0690   -3.6560 hc        1 SIH      0.044200
     41 H8         -1.1270   -1.3040   -2.3600 hc        1 SIH      0.057700
     42 H9         -1.3060    1.0780   -0.3630 hc        1 SIH      0.066700
     43 H11         0.5480   -1.3780   -0.1170 h1        1 SIH      0.068700
     44 H121        1.4540    1.4700   -0.9180 hc        1 SIH      0.061700
     45 H122        2.4270   -0.0540   -0.7900 hc        1 SIH      0.061700
     46 H14        -0.3250    1.6620   -2.4650 hc        1 SIH      0.052700
     47 H151       -1.0780    1.4510   -4.7040 hc        1 SIH      0.041700
     48 H152       -0.6230   -0.2930   -4.8190 hc        1 SIH      0.041700
     49 H161        1.1170    2.1330   -5.1700 hc        1 SIH      0.052700
     50 H162        1.4400    0.4150   -5.6330 hc        1 SIH      0.052700
     51 H17         2.1830    1.9390   -3.1190 hc        1 SIH      0.066700
     52 H181        0.7550   -2.0290   -2.1930 hc        1 SIH      0.042367
     53 H182        1.0870   -1.6070   -3.9310 hc        1 SIH      0.042367
     54 H183        2.4400   -1.6630   -2.7230 hc        1 SIH      0.042367
     55 H191       -2.8360   -2.8960    0.3630 hc        1 SIH      0.040033
     56 H192       -1.8690   -2.5920   -1.1310 hc        1 SIH      0.040033
     57 H193       -1.0380   -2.6940    0.4740 hc        1 SIH      0.040033
     58 H211        5.3930    0.1320   -3.2670 hc        1 SIH      0.067700
     59 H212        4.5830    1.6960   -2.8170 hc        1 SIH      0.067700
     60 H213        4.1610    0.1710   -1.9300 hc        1 SIH      0.067700
     61 HH21        2.5500    1.3300    3.0940 hc        1 SIH      0.090700
     62 HH22        0.7580    1.2110    3.3510 hc        1 SIH      0.090700
     63 HH31        1.0170   -0.8550    4.6440 hc        1 SIH      0.038200
     64 HH32        2.7350   -1.0520    4.1050 hc        1 SIH      0.038200
@<TRIPOS>BOND
     1    1    2 1   
     2    1   11 1   
     3    1   32 1   
     4    1   33 1   
     5    2    3 1   
     6    2   34 1   
     7    2   35 1   
     8    3    4 2   
     9    3    5 1   
    10    5    6 2   
    11    5   36 1   
    12    6    7 1   
    13    6   11 1   
    14    7    8 1   
    15    7   37 1   
    16    7   38 1   
    17    8    9 1   
    18    8   39 1   
    19    8   40 1   
    20    9   10 1   
    21    9   16 1   
    22    9   41 1   
    23   10   11 1   
    24   10   12 1   
    25   10   42 1   
    26   11   21 1   
    27   12   13 1   
    28   12   14 1   
    29   12   43 1   
    30   13   25 1   
    31   14   15 1   
    32   14   44 1   
    33   14   45 1   
    34   15   16 1   
    35   15   19 1   
    36   15   20 1   
    37   16   17 1   
    38   16   46 1   
    39   17   18 1   
    40   17   47 1   
    41   17   48 1   
    42   18   19 1   
    43   18   49 1   
    44   18   50 1   
    45   19   22 1   
    46   19   51 1   
    47   20   52 1   
    48   20   53 1   
    49   20   54 1   
    50   21   55 1   
    51   21   56 1   
    52   21   57 1   
    53   22   23 2   
    54   22   24 1   
    55   24   58 1   
    56   24   59 1   
    57   24   60 1   
    58   25   26 2   
    59   25   27 1   
    60   27   28 1   
    61   27   61 1   
    62   27   62 1   
    63   28   29 1   
    64   28   63 1   
    65   28   64 1   
    66   29   30 1   
    67   29   31 1   
@<TRIPOS>SUBSTRUCTURE
     1 SIH         1 TEMP              0 ****  ****    0 ROOT
