@<TRIPOS>MOLECULE
SIH
   64    67     1     0     0
SMALL
bcc


@<TRIPOS>ATOM
      1 C1         -0.1590   -0.2710    0.0300 c3        1 SIH     -0.074400
      2 C2          1.2990   -0.0620   -0.3020 c3        1 SIH     -0.177400
      3 C3          2.0980    0.1550    0.9490 c         1 SIH      0.569300
      4 O3          3.2370   -0.2990    1.1160 o         1 SIH     -0.546100
      5 C4          1.4410    1.0060    1.9520 ce        1 SIH     -0.263200
      6 C5          0.1510    1.3710    1.8750 c2        1 SIH     -0.039400
      7 C6         -0.3940    2.4170    2.7880 c3        1 SIH     -0.055200
      8 C7         -0.7520    3.6290    1.9480 c3        1 SIH     -0.069400
      9 C8         -1.7140    3.2490    0.8340 c3        1 SIH     -0.053700
     10 C9         -1.1540    2.1190   -0.0590 c3        1 SIH     -0.043700
     11 C10        -0.8070    0.8830    0.8110 c3        1 SIH     -0.007800
     12 C11        -2.1240    1.8340   -1.2220 c3        1 SIH      0.157100
     13 O11        -1.3990    1.0640   -2.1960 os        1 SIH     -0.458900
     14 C12        -2.6270    3.0780   -1.9730 c3        1 SIH     -0.096400
     15 C13        -3.1600    4.1310   -1.0270 c3        1 SIH     -0.034000
     16 C14        -2.0180    4.4500   -0.0340 c3        1 SIH     -0.065700
     17 C15        -2.4440    5.7600    0.6170 c3        1 SIH     -0.072400
     18 C16        -3.2010    6.5100   -0.4820 c3        1 SIH     -0.075400
     19 C17        -3.4070    5.5270   -1.6480 c3        1 SIH     -0.163700
     20 C18        -4.4360    3.6510   -0.3560 c3        1 SIH     -0.090100
     21 C19        -2.0550    0.2900    1.4670 c3        1 SIH     -0.091100
     22 C20        -4.7440    5.6700   -2.3250 c         1 SIH      0.580100
     23 O20        -5.6500    6.3810   -1.8730 o         1 SIH     -0.549100
     24 C21        -4.9110    4.9170   -3.6080 c3        1 SIH     -0.205100
     25 CH1        -2.1210    0.2580   -3.0510 c         1 SIH      0.636100
     26 OH1        -3.3510    0.2960   -2.9530 o         1 SIH     -0.576000
     27 CH2        -1.2490   -0.5320   -3.9720 c3        1 SIH     -0.109400
     28 CH3        -1.2510   -1.9980   -3.6090 c3        1 SIH     -0.204400
     29 CH4        -0.5130   -2.8210   -4.6900 c         1 SIH      0.915600
     30 OH4        -0.3980   -2.3230   -5.8450 o         1 SIH     -0.838300
     31 OH5        -0.0770   -3.9540   -4.3470 o         1 SIH     -0.838300
     32 H11A       -0.2430   -1.2020    0.6570 hc        1 SIH      0.066200
     33 H12        -0.7290   -0.4680   -0.9150 hc        1 SIH      0.066200
     34 H21         1.4240    0.8370   -0.9650 hc        1 SIH      0.084200
     35 H22         1.6900   -0.9510   -0.8650 hc        1 SIH      0.084200
     36 H41         2.0920    1.3690    2.7640 ha        1 SIH      0.137000
     37 H61         0.3580    2.7040    3.5690 hc        1 SIH      0.049700
     38 H62        -1.3020    2.0310    3.3220 hc        1 SIH      0.049700
     39 H71        -1.2280    4.4100    2.5970 hc        1 SIH      0.043700
     40 H72         0.1800    4.0730    1.5110 hc        1 SIH      0.043700
     41 H8         -2.6690    2.9000    1.3160 hc        1 SIH      0.056700
     42 H9         -0.1870    2.4730   -0.5170 hc        1 SIH      0.066700
     43 H11        -3.0020    1.2360   -0.8490 h1        1 SIH      0.068700
     44 H121       -3.4280    2.7450   -2.6860 hc        1 SIH      0.061200
     45 H122       -1.7840    3.4980   -2.5810 hc        1 SIH      0.061200
     46 H14        -1.0900    4.6710   -0.6400 hc        1 SIH      0.052700
     47 H151       -1.5580    6.3410    0.9720 hc        1 SIH      0.041200
     48 H152       -3.1060    5.5720    1.4980 hc        1 SIH      0.041200
     49 H161       -2.6210    7.3980   -0.8300 hc        1 SIH      0.053200
     50 H162       -4.1890    6.8720   -0.1020 hc        1 SIH      0.053200
     51 H17        -2.6180    5.7130   -2.4290 hc        1 SIH      0.067700
     52 H181       -4.7650    4.3830    0.4210 hc        1 SIH      0.041367
     53 H182       -5.2500    3.5500   -1.1160 hc        1 SIH      0.041367
     54 H183       -4.2940    2.6530    0.1230 hc        1 SIH      0.041367
     55 H191       -1.7560   -0.4500    2.2490 hc        1 SIH      0.039700
     56 H192       -2.6690   -0.2380    0.6980 hc        1 SIH      0.039700
     57 H193       -2.6890    1.0680    1.9510 hc        1 SIH      0.039700
     58 H211       -5.6500    5.4320   -4.2690 hc        1 SIH      0.067367
     59 H212       -3.9380    4.8190   -4.1460 hc        1 SIH      0.067367
     60 H213       -5.2940    3.8890   -3.3830 hc        1 SIH      0.067367
     61 HH21       -0.2020   -0.1350   -3.9440 hc        1 SIH      0.088700
     62 HH22       -1.6360   -0.4170   -5.0220 hc        1 SIH      0.088700
     63 HH31       -2.2990   -2.3830   -3.5410 hc        1 SIH      0.034700
     64 HH32       -0.7530   -2.1610   -2.6220 hc        1 SIH      0.034700
@<TRIPOS>BOND
     1    1    2 1   
     2    1   11 1   
     3    1   32 1   
     4    1   33 1   
     5    2    3 1   
     6    2   34 1   
     7    2   35 1   
     8    3    4 2   
     9    3    5 1   
    10    5    6 2   
    11    5   36 1   
    12    6    7 1   
    13    6   11 1   
    14    7    8 1   
    15    7   37 1   
    16    7   38 1   
    17    8    9 1   
    18    8   39 1   
    19    8   40 1   
    20    9   10 1   
    21    9   16 1   
    22    9   41 1   
    23   10   11 1   
    24   10   12 1   
    25   10   42 1   
    26   11   21 1   
    27   12   13 1   
    28   12   14 1   
    29   12   43 1   
    30   13   25 1   
    31   14   15 1   
    32   14   44 1   
    33   14   45 1   
    34   15   16 1   
    35   15   19 1   
    36   15   20 1   
    37   16   17 1   
    38   16   46 1   
    39   17   18 1   
    40   17   47 1   
    41   17   48 1   
    42   18   19 1   
    43   18   49 1   
    44   18   50 1   
    45   19   22 1   
    46   19   51 1   
    47   20   52 1   
    48   20   53 1   
    49   20   54 1   
    50   21   55 1   
    51   21   56 1   
    52   21   57 1   
    53   22   23 2   
    54   22   24 1   
    55   24   58 1   
    56   24   59 1   
    57   24   60 1   
    58   25   26 2   
    59   25   27 1   
    60   27   28 1   
    61   27   61 1   
    62   27   62 1   
    63   28   29 1   
    64   28   63 1   
    65   28   64 1   
    66   29   30 1   
    67   29   31 1   
@<TRIPOS>SUBSTRUCTURE
     1 SIH         1 TEMP              0 ****  ****    0 ROOT
