@<TRIPOS>MOLECULE
SII
   70    74     1     0     0
SMALL
bcc


@<TRIPOS>ATOM
      1 C1         -5.4950   -0.3590    0.1370 ca        1 SII     -0.175000
      2 C2         -5.5020   -1.7670    0.0430 ca        1 SII      0.074600
      3 C3         -4.4090   -2.4850    0.5910 ca        1 SII     -0.175000
      4 C8         -7.7040   -2.0000   -1.1360 c         1 SII      0.666100
      5 C9         -8.6410   -3.0350   -1.7180 c3        1 SII     -0.179100
      6 C10         0.9850    2.9900   -1.5910 ca        1 SII     -0.182000
      7 C11         1.1950    2.8470   -0.2050 ca        1 SII      0.069600
      8 C12         0.4960    3.6920    0.6840 ca        1 SII     -0.125000
      9 C13        -0.4020    4.6370    0.1950 ca        1 SII     -0.108000
     10 C14        -0.6270    4.7770   -1.1700 ca        1 SII     -0.163000
     11 C15         0.0750    3.9510   -2.0640 ca        1 SII      0.132900
     12 C16         0.6610   -0.0440   -0.4000 c3        1 SII     -0.074400
     13 C19         0.1150    0.5330    2.3850 c3        1 SII      0.161300
     14 C20        -0.7210    0.3340    0.1290 c3        1 SII      0.161300
     15 C21         3.1720   -0.1970    0.0630 c2        1 SII      0.631200
     16 C22         3.5120    2.0010   -0.1630 c         1 SII      0.802900
     17 C24         4.3490   -3.6820   -0.6250 c3        1 SII     -0.093900
     18 C27         6.7680   -2.8820    0.8150 c3        1 SII     -0.075400
     19 F1         -0.1240    4.0790   -3.3990 f         1 SII     -0.138900
     20 N1         -6.5360   -2.4930   -0.5680 n         1 SII     -0.475100
     21 O1         -7.9840   -0.7890   -1.1770 o         1 SII     -0.586100
     22 N2         -0.9200   -0.0310    1.5260 n3        1 SII     -0.730600
     23 O2          4.0840    3.0720   -0.3940 o         1 SII     -0.559500
     24 N3          2.1350    1.9220    0.3200 n         1 SII     -0.393000
     25 C4         -3.3610   -1.8130    1.2060 ca        1 SII     -0.090500
     26 N4          4.1100    0.6940   -0.2600 ne        1 SII     -0.681100
     27 C5         -3.3600   -0.4180    1.2950 ca        1 SII     -0.120300
     28 C6         -4.4330    0.2950    0.7540 ca        1 SII     -0.090500
     29 C17         1.7960    0.4890    0.4790 c3        1 SII      0.016100
     30 C18         1.5210    0.1300    1.9480 c3        1 SII     -0.074400
     31 C23         5.6870   -4.3350   -0.9050 c3        1 SII     -0.075400
     32 C25         4.5580   -2.2280   -0.1650 c3        1 SII      0.213500
     33 C26         5.4370   -2.2200    1.0980 c3        1 SII     -0.093900
     34 C28         6.5880   -4.2990    0.3120 c3        1 SII     -0.081400
     35 H1         -6.3250    0.2380   -0.2760 ha        1 SII      0.151000
     36 H3         -4.3790   -3.5830    0.5360 ha        1 SII      0.151000
     37 H7         -2.3010    0.0130    3.0980 h1        1 SII      0.040200
     38 H7A        -2.4460    1.4190    1.9480 h1        1 SII      0.040200
     39 H9         -8.9810   -3.7470   -0.9280 hc        1 SII      0.069033
     40 H9A        -9.5320   -2.5090   -2.1400 hc        1 SII      0.069033
     41 H9B        -8.1370   -3.6060   -2.5350 hc        1 SII      0.069033
     42 H10         1.5410    2.3770   -2.3170 ha        1 SII      0.155000
     43 H12         0.6740    3.6210    1.7690 ha        1 SII      0.148000
     44 H13        -0.9360    5.2910    0.9020 ha        1 SII      0.140000
     45 H14        -1.3340    5.5250   -1.5560 ha        1 SII      0.151000
     46 H16         0.7310   -1.1620   -0.4490 hc        1 SII      0.059950
     47 H16A        0.7560    0.3500   -1.4460 hc        1 SII      0.059950
     48 H19         0.0570    1.6610    2.4250 h1        1 SII      0.044950
     49 H19A       -0.0540    0.1440    3.4290 h1        1 SII      0.044950
     50 H20        -0.8790    1.4420   -0.0370 h1        1 SII      0.044950
     51 H20A       -1.4960   -0.2170   -0.4760 h1        1 SII      0.044950
     52 H24A        3.8080   -4.2600    0.1690 hc        1 SII      0.048700
     53 H27         7.3300   -2.2800    0.0520 hc        1 SII      0.047450
     54 H27A        7.3820   -2.8910    1.7530 hc        1 SII      0.047450
     55 HN1        -6.4120   -3.4810   -0.5810 hn        1 SII      0.314500
     56 H4         -2.5190   -2.3860    1.6260 ha        1 SII      0.138500
     57 H6         -4.4490    1.3950    0.8140 ha        1 SII      0.138500
     58 H18         2.2590    0.6350    2.6230 hc        1 SII      0.059950
     59 H18A        1.6360   -0.9780    2.0780 hc        1 SII      0.059950
     60 H23         5.5180   -5.3980   -1.2170 hc        1 SII      0.047450
     61 H23A        6.1890   -3.8080   -1.7590 hc        1 SII      0.047450
     62 H25         5.1150   -1.6770   -0.9820 h1        1 SII      0.091700
     63 H26         4.9150   -2.7620    1.9290 hc        1 SII      0.048700
     64 H26A        5.6100   -1.1630    1.4300 hc        1 SII      0.048700
     65 H28         7.5880   -4.7350    0.0510 hc        1 SII      0.042700
     66 H28A        6.1460   -4.9330    1.1250 hc        1 SII      0.042700
     67 C7         -2.2560    0.3050    2.0070 c3        1 SII      0.219100
     68 N5          3.2800   -1.5590    0.0160 nh        1 SII     -0.796200
     69 H24         3.7220   -3.7040   -1.5540 hc        1 SII      0.048700
     70 HN5         2.5710   -2.0760    0.4880 hn        1 SII      0.432800
@<TRIPOS>BOND
     1    1    2 ar  
     2    1   28 ar  
     3    1   35 1   
     4    2    3 ar  
     5    2   20 1   
     6    3   25 ar  
     7    3   36 1   
     8    4    5 1   
     9    4   20 1   
    10    4   21 2   
    11    5   39 1   
    12    5   40 1   
    13    5   41 1   
    14    6    7 ar  
    15    6   11 ar  
    16    6   42 1   
    17    7    8 ar  
    18    7   24 1   
    19    8    9 ar  
    20    8   43 1   
    21    9   10 ar  
    22    9   44 1   
    23   10   11 ar  
    24   10   45 1   
    25   11   19 1   
    26   12   14 1   
    27   12   29 1   
    28   12   46 1   
    29   12   47 1   
    30   13   22 1   
    31   13   30 1   
    32   13   48 1   
    33   13   49 1   
    34   14   22 1   
    35   14   50 1   
    36   14   51 1   
    37   15   26 2   
    38   15   29 1   
    39   15   68 1   
    40   16   23 2   
    41   16   24 1   
    42   16   26 1   
    43   17   31 1   
    44   17   32 1   
    45   17   52 1   
    46   17   69 1   
    47   18   33 1   
    48   18   34 1   
    49   18   53 1   
    50   18   54 1   
    51   20   55 1   
    52   22   67 1   
    53   24   29 1   
    54   25   27 ar  
    55   25   56 1   
    56   27   28 ar  
    57   27   67 1   
    58   28   57 1   
    59   29   30 1   
    60   30   58 1   
    61   30   59 1   
    62   31   34 1   
    63   31   60 1   
    64   31   61 1   
    65   32   33 1   
    66   32   62 1   
    67   32   68 1   
    68   33   63 1   
    69   33   64 1   
    70   34   65 1   
    71   34   66 1   
    72   37   67 1   
    73   38   67 1   
    74   68   70 1   
@<TRIPOS>SUBSTRUCTURE
     1 SII         1 TEMP              0 ****  ****    0 ROOT
