@<TRIPOS>MOLECULE
SII
   70    66     1     0     0
SMALL
bcc


@<TRIPOS>ATOM
      1 C1          5.0240   -0.8940   -0.3760 c1        1 SII     -0.190000
      2 C2          5.2070   -2.2660   -0.2430 c1        1 SII      0.083000
      3 C3          4.1010   -3.1180   -0.2250 c1        1 SII     -0.159000
      4 C7          1.1960   -0.6360   -0.6200 c3        1 SII     -0.029000
      5 C8          6.8900   -4.0640   -0.6430 c1        1 SII      0.310000
      6 C9          8.2780   -4.6620   -0.3970 c2        1 SII     -0.247000
      7 C10        -4.6000   -2.2280    1.9590 c1        1 SII     -0.145000
      8 C11        -4.5510   -1.1840    1.0390 c1        1 SII      0.073000
      9 C12        -5.6140   -0.9800    0.1670 c1        1 SII     -0.159000
     10 C13        -6.7260   -1.8190    0.2140 c1        1 SII     -0.132000
     11 C14        -6.7730   -2.8580    1.1300 c1        1 SII     -0.132000
     12 C15        -5.7110   -3.0640    2.0040 c1        1 SII      0.093000
     13 C16        -1.0930   -0.1390    1.2790 c3        1 SII     -0.188500
     14 C19        -0.9160   -1.6430   -1.1980 c3        1 SII     -0.077500
     15 C20        -0.2260   -1.3950    1.1580 c3        1 SII     -0.077500
     16 C21        -1.8250    1.2430    0.3920 c1        1 SII      0.110000
     17 C22        -3.6940    1.2750    1.6400 c1        1 SII      0.320000
     18 C24         0.4100    3.6020   -1.2820 c3        1 SII     -0.169500
     19 C27        -0.9670    5.3550    0.4980 c3        1 SII     -0.153000
     20 F1         -6.0140   -4.0520    2.8590 f         1 SII     -0.104000
     21 N1          6.5380   -2.8030   -0.0580 n3        1 SII     -0.330000
     22 O1          6.0670   -4.6830   -1.2960 o         1 SII     -0.345000
     23 N2          0.2130   -1.6450   -0.2280 n3        1 SII     -0.241000
     24 O2         -4.5860    1.7160    2.3460 o         1 SII     -0.283000
     25 N3         -3.5110   -0.1880    1.1420 n2        1 SII     -0.291000
     26 C4          2.8130   -2.5930   -0.3390 c1        1 SII     -0.080000
     27 N4         -2.6110    1.9700    1.1000 n2        1 SII     -0.250000
     28 C5          2.6310   -1.2220   -0.4720 c2        1 SII     -0.114000
     29 N5         -1.0600    1.8390   -0.6770 n2        1 SII     -0.278000
     30 C6          3.7370   -0.3700   -0.4900 c2        1 SII     -0.102000
     31 C17        -2.2280   -0.1360    0.3080 c3        1 SII      0.058000
     32 C18        -1.7850   -0.3880   -1.0830 c3        1 SII     -0.188500
     33 C23         0.4880    5.1200   -1.4210 c3        1 SII     -0.153000
     34 C25        -1.0270    3.0890   -0.8060 c3        1 SII      0.015000
     35 C26        -1.0320    3.8460    0.6260 c3        1 SII     -0.169500
     36 C28        -0.5060    5.7360   -0.7320 c3        1 SII     -0.160000
     37 H1          5.8010   -0.2950   -0.3890 ha        1 SII      0.127000
     38 H3          4.2290   -4.0830   -0.1310 ha        1 SII      0.176000
     39 H7          1.1040    0.1530   -0.0410 h1        1 SII      0.072500
     40 H7A         1.0440   -0.3770   -1.5540 h1        1 SII      0.072500
     41 H9          8.5280   -5.2330   -1.1590 ha        1 SII      0.108667
     42 H9A         8.2630   -5.2010    0.4250 ha        1 SII      0.108667
     43 H9B         8.9350   -3.9380   -0.3020 ha        1 SII      0.108667
     44 H10        -3.8530   -2.3730    2.5730 ha        1 SII      0.161000
     45 H12        -5.5820   -0.2450   -0.4820 ha        1 SII      0.142000
     46 H13        -7.4770   -1.6750   -0.4030 ha        1 SII      0.146000
     47 H14        -7.5550   -3.4470    1.1620 ha        1 SII      0.146000
     48 H16        -0.5340    0.6500    1.1170 hc        1 SII      0.096750
     49 H16A       -1.4560   -0.0900    2.1930 hc        1 SII      0.096750
     50 H19        -0.5510   -1.6950   -2.1130 h1        1 SII      0.105000
     51 H19A       -1.4780   -2.4350   -1.0340 h1        1 SII      0.105000
     52 H20        -0.7430   -2.1710    1.4730 h1        1 SII      0.105000
     53 H20A        0.5690   -1.2880    1.7280 h1        1 SII      0.105000
     54 H24         0.6190    3.1940   -2.1540 hc        1 SII      0.086000
     55 H24A        1.0810    3.3120   -0.6280 hc        1 SII      0.086000
     56 H27        -1.8680    5.7290    0.6340 hc        1 SII      0.084750
     57 H27A       -0.3650    5.7100    1.1900 hc        1 SII      0.084750
     58 HN1         7.1650   -2.3220    0.4050 hn        1 SII      0.227000
     59 H4          2.0380   -3.1900   -0.3260 ha        1 SII      0.151000
     60 HN5        -0.6060    1.3060   -1.2660 hn        1 SII      0.221000
     61 H6          3.6090    0.5980   -0.5840 ha        1 SII      0.125000
     62 H18        -2.5800   -0.4950   -1.6570 hc        1 SII      0.096750
     63 H18A       -1.2730    0.3790   -1.3930 hc        1 SII      0.096750
     64 H23         0.4150    5.3590   -2.3740 hc        1 SII      0.084750
     65 H23A        1.3550    5.4300   -1.0780 hc        1 SII      0.084750
     66 H25        -1.7470    3.4200   -1.3960 h1        1 SII      0.133000
     67 H26        -1.8520    3.6050    1.1070 hc        1 SII      0.086000
     68 H26A       -0.2590    3.5410    1.1470 hc        1 SII      0.086000
     69 H28        -1.2900    5.7330   -1.3280 hc        1 SII      0.084000
     70 H28A       -0.2260    6.6730   -0.6370 hc        1 SII      0.084000
@<TRIPOS>BOND
     1    1   30 1   
     2    1   37 1   
     3    2    3 1   
     4    2   21 1   
     5    3   38 1   
     6    4   23 1   
     7    4   28 1   
     8    4   39 1   
     9    4   40 1   
    10    5   21 1   
    11    5   22 1   
    12    6   41 1   
    13    6   42 1   
    14    6   43 1   
    15    7   12 1   
    16    7   44 1   
    17    8    9 1   
    18    8   25 1   
    19    9   45 1   
    20   10   11 1   
    21   10   46 1   
    22   11   47 1   
    23   12   20 1   
    24   13   15 1   
    25   13   31 1   
    26   13   48 1   
    27   13   49 1   
    28   14   23 1   
    29   14   32 1   
    30   14   50 1   
    31   14   51 1   
    32   15   23 1   
    33   15   52 1   
    34   15   53 1   
    35   16   27 1   
    36   16   31 1   
    37   17   24 1   
    38   17   27 1   
    39   18   33 1   
    40   18   34 1   
    41   18   54 1   
    42   18   55 1   
    43   19   35 1   
    44   19   36 1   
    45   19   56 1   
    46   19   57 1   
    47   21   58 1   
    48   25   31 1   
    49   26   28 1   
    50   26   59 1   
    51   28   30 1   
    52   29   34 1   
    53   29   60 1   
    54   30   61 1   
    55   31   32 1   
    56   32   62 1   
    57   32   63 1   
    58   33   36 1   
    59   33   64 1   
    60   33   65 1   
    61   34   35 1   
    62   34   66 1   
    63   35   67 1   
    64   35   68 1   
    65   36   69 1   
    66   36   70 1   
@<TRIPOS>SUBSTRUCTURE
     1 SII         1 TEMP              0 ****  ****    0 ROOT
