@<TRIPOS>MOLECULE
SII
   70    70     1     0     0
SMALL
bcc


@<TRIPOS>ATOM
      1 C1          0.0590    0.6140    0.0470 c1        1 SII      0.140000
      2 C2          2.5040    0.3020    0.0190 c2        1 SII      0.065000
      3 C3          2.1220    1.3620    0.7890 c2        1 SII     -0.268000
      4 C8          3.0870   -0.7440   -2.0870 cx        1 SII      0.056000
      5 C9          3.5800   -0.6680   -3.4980 cx        1 SII     -0.095000
      6 C10        -6.9610    1.1720    5.2210 c3        1 SII     -0.133000
      7 C11        -5.5160    1.5540    4.8740 c2        1 SII      0.118000
      8 C12        -4.7600    0.7820    4.0170 c2        1 SII     -0.272000
      9 C13        -5.4380   -0.2800    3.2870 c2        1 SII     -0.015000
     10 C14        -6.4700   -0.7850    3.9570 c1        1 SII     -0.264000
     11 C15        -7.1500   -0.3090    5.0030 c2        1 SII      0.103000
     12 C16        -3.2300    3.7480    4.0190 c3        1 SII     -0.225000
     13 C19        -1.6180    1.5270    5.4690 c2        1 SII      0.023000
     14 C20        -1.8940    0.3190    1.4870 c3        1 SII     -0.145000
     15 C21        -3.6770    4.4000    6.3930 c2        1 SII      0.130000
     16 C22        -5.7820    3.6570    6.2560 c2        1 SII      0.349000
     17 C24         0.3400    9.7820    3.0170 c3        1 SII     -0.269000
     18 C27        -1.2390    7.8900    8.8360 c3        1 SII     -0.176000
     19 F1         -7.8760   -1.0060    5.8900 f         1 SII     -0.083000
     20 N1          3.0300    0.4120   -1.2560 n3        1 SII     -0.277000
     21 O1          2.1820   -0.8400   -3.2170 os        1 SII     -0.274000
     22 N2         -0.9890    1.6820    4.2510 n3        1 SII     -0.307000
     23 O2         -7.0080    3.5990    6.4230 o         1 SII     -0.306000
     24 N3         -5.0460    2.7480    5.4070 n         1 SII     -0.316000
     25 C4          1.7070    1.1980    2.1750 c2        1 SII     -0.131000
     26 N4         -4.9090    4.6410    6.8430 n2        1 SII     -0.243000
     27 C5          0.4300    0.8390    2.4320 c2        1 SII     -0.050000
     28 C6         -0.4480    0.5910    1.2910 c2        1 SII     -0.370000
     29 C17        -3.6240    3.1690    5.3760 c3        1 SII      0.138000
     30 C18        -2.6970    2.1660    5.9720 c2        1 SII     -0.332000
     31 C23        -0.3800   11.1470    6.4410 c1        1 SII     -0.218500
     32 C25        -2.4460    6.1540    7.5590 c2        1 SII     -0.039000
     33 C26        -1.2850    6.7330    7.9230 c2        1 SII     -0.223000
     34 C28         0.3540   10.8380    7.3330 c1        1 SII     -0.218500
     35 H1         -2.3460   -0.1130    0.5600 hc        1 SII      0.083000
     36 H3          2.1480    2.4000    0.4190 ha        1 SII      0.154000
     37 H7         -0.5420   -0.3790    3.9030 h1        1 SII      0.088500
     38 H7A         0.8080    0.6600    4.5470 h1        1 SII      0.088500
     39 H9          3.8370    0.2990   -3.9670 h1        1 SII      0.123000
     40 H9A         3.1780   -1.6940   -1.5140 h2        1 SII      0.155000
     41 H9B         4.0720   -1.5450   -3.9570 h1        1 SII      0.123000
     42 H10        -7.1790    1.3830    6.3050 hc        1 SII      0.148000
     43 H12        -2.0520   -0.4060    2.3230 hc        1 SII      0.083000
     44 H13        -7.6570    1.8050    4.6100 hc        1 SII      0.148000
     45 H14        -5.1350   -0.5300    2.2660 ha        1 SII      0.150000
     46 H16        -2.4410    1.2660    1.7260 hc        1 SII      0.083000
     47 H16A       -3.8840    4.6200    3.7660 hc        1 SII      0.097000
     48 H19        -1.0910    0.8200    6.1500 h4        1 SII      0.141000
     49 H19A       -3.3510    2.9910    3.2060 hc        1 SII      0.097000
     50 H20        -3.7060    0.9850    3.7960 ha        1 SII      0.132000
     51 H20A       -1.5240    2.0740    3.5060 hn        1 SII      0.210000
     52 H24A        1.1600    9.0310    3.0400 hc        1 SII      0.067000
     53 H27        -0.6240    7.6400    9.7370 hc        1 SII      0.084667
     54 H27A       -0.3080    6.3800    7.5560 ha        1 SII      0.124000
     55 HN1         2.8490    1.2700   -1.7370 hn        1 SII      0.220000
     56 H4          2.4450    1.4050    2.9630 ha        1 SII      0.143000
     57 H6          2.4830   -0.7280    0.4330 h4        1 SII      0.150000
     58 H18        -2.1730    4.1050    4.0480 hc        1 SII      0.097000
     59 H18A       -2.9640    1.9080    7.0140 ha        1 SII      0.145000
     60 H23        -1.0340   11.4210    5.6530 ha        1 SII      0.219500
     61 H23A        0.1580   10.1630    4.0470 hc        1 SII      0.067000
     62 H25        -0.5870    9.3070    2.6280 hc        1 SII      0.067000
     63 H26        -2.2580    8.1950    9.1800 hc        1 SII      0.084667
     64 H26A       -3.4240    6.5160    7.9350 h4        1 SII      0.177000
     65 H28        -0.7650    8.7660    8.3220 hc        1 SII      0.084667
     66 H28A        1.0090   10.5690    8.1230 ha        1 SII      0.219500
     67 C7         -0.0670    0.6460    3.8320 c3        1 SII     -0.004000
     68 N5         -2.5220    5.0710    6.6750 n3        1 SII     -0.238000
     69 H24         0.6300   10.6260    2.3550 hc        1 SII      0.067000
     70 HN5        -1.6790    4.6770    6.3170 hn        1 SII      0.248000
@<TRIPOS>BOND
     1    1   28 1   
     2    2    3 1   
     3    2   20 1   
     4    2   57 1   
     5    3   25 1   
     6    3   36 1   
     7    4    5 1   
     8    4   20 1   
     9    4   21 1   
    10    4   40 1   
    11    5   21 1   
    12    5   39 1   
    13    5   41 1   
    14    6    7 1   
    15    6   11 1   
    16    6   42 1   
    17    6   44 1   
    18    7    8 1   
    19    7   24 1   
    20    8    9 1   
    21    8   50 1   
    22    9   10 1   
    23    9   45 1   
    24   10   11 1   
    25   11   19 1   
    26   12   29 1   
    27   12   47 1   
    28   12   49 1   
    29   12   58 1   
    30   13   22 1   
    31   13   30 1   
    32   13   48 1   
    33   14   28 1   
    34   14   35 1   
    35   14   43 1   
    36   14   46 1   
    37   15   26 1   
    38   15   29 1   
    39   15   68 1   
    40   16   23 1   
    41   16   24 1   
    42   16   26 1   
    43   17   52 1   
    44   17   61 1   
    45   17   62 1   
    46   17   69 1   
    47   18   33 1   
    48   18   53 1   
    49   18   63 1   
    50   18   65 1   
    51   20   55 1   
    52   22   51 1   
    53   22   67 1   
    54   24   29 1   
    55   25   27 1   
    56   25   56 1   
    57   27   28 1   
    58   27   67 1   
    59   29   30 1   
    60   30   59 1   
    61   31   34 1   
    62   31   60 1   
    63   32   33 1   
    64   32   64 1   
    65   32   68 1   
    66   33   54 1   
    67   34   66 1   
    68   37   67 1   
    69   38   67 1   
    70   68   70 1   
@<TRIPOS>SUBSTRUCTURE
     1 SII         1 TEMP              0 ****  ****    0 ROOT
