@<TRIPOS>MOLECULE
SIJ
   40    43     1     0     0
SMALL
bcc


@<TRIPOS>ATOM
      1 C12        -0.0390   -0.0820   -0.1240 cc        1 SIJ      0.400700
      2 N3          1.2860    0.1170   -0.0830 nd        1 SIJ     -0.538100
      3 N4         -0.6200   -0.2740    1.1470 na        1 SIJ     -0.381000
      4 C13         0.4290   -0.1890    2.0700 ca        1 SIJ      0.436800
      5 N5          0.4190   -0.3180    3.4290 nb        1 SIJ     -0.722000
      6 C           1.6550   -0.1960    3.9640 ca        1 SIJ      0.675900
      7 C11         1.6340    0.0630    1.2750 ca        1 SIJ     -0.188200
      8 C1          2.8770    0.1610    1.9890 ca        1 SIJ      0.735200
      9 N           2.8480    0.0350    3.3540 nb        1 SIJ     -0.779000
     10 N1          4.0980    0.2790    1.3010 nh        1 SIJ     -0.727300
     11 C10         5.3190    0.0820    2.0760 c3        1 SIJ      0.196300
     12 C9          6.5540   -0.0850    1.1950 c3        1 SIJ     -0.072900
     13 C4          6.7350    1.0900    0.2130 c3        1 SIJ      0.175200
     14 C3          5.4200    1.1910   -0.5920 c3        1 SIJ     -0.072900
     15 C2          4.2000    1.3450    0.3130 c3        1 SIJ      0.196300
     16 N2          7.0050    2.3490    0.9270 n7        1 SIJ     -0.795200
     17 C8          8.3450    2.4420    1.4690 c3        1 SIJ      0.154800
     18 C7          9.4780    2.1200    0.4960 c3        1 SIJ     -0.115400
     19 C6          9.2320    0.7850   -0.1730 c3        1 SIJ     -0.076400
     20 C5          7.8530    0.7270   -0.7940 c3        1 SIJ     -0.106400
     21 H12        -0.6470   -0.1050   -1.0360 h5        1 SIJ      0.072800
     22 H4         -1.5690   -0.4360    1.3570 hn        1 SIJ      0.318700
     23 H           1.7080   -0.2900    5.0710 h5        1 SIJ      0.052100
     24 H101        5.4860    0.9430    2.7860 h1        1 SIJ      0.058950
     25 H102        5.2010   -0.8590    2.6870 h1        1 SIJ      0.058950
     26 H21C        4.2570    2.3460    0.8340 h1        1 SIJ      0.058950
     27 H22C        3.2880    1.3480   -0.3420 h1        1 SIJ      0.058950
     28 H91C        6.4710   -1.0290    0.5960 hc        1 SIJ      0.052200
     29 H92C        7.4460   -0.1820    1.8650 hc        1 SIJ      0.052200
     30 H31C        5.3210    0.2640   -1.2130 hc        1 SIJ      0.052200
     31 H32C        5.4490    2.0690   -1.2880 hc        1 SIJ      0.052200
     32 H2          6.8440    3.1120    0.2930 hn        1 SIJ      0.350800
     33 H51C        7.8040    1.4390   -1.6590 hc        1 SIJ      0.044700
     34 H52C        7.6640   -0.3020   -1.1950 hc        1 SIJ      0.044700
     35 H81C        8.4070    1.7340    2.3430 h1        1 SIJ      0.051700
     36 H82C        8.4820    3.4870    1.8660 h1        1 SIJ      0.051700
     37 H71C        9.5550    2.9250   -0.2800 hc        1 SIJ      0.043700
     38 H72C       10.4480    2.0970    1.0560 hc        1 SIJ      0.043700
     39 H61C       10.0060    0.6100   -0.9650 hc        1 SIJ      0.041700
     40 H62C        9.3360   -0.0360    0.5850 hc        1 SIJ      0.041700
@<TRIPOS>BOND
     1    1    2 2   
     2    1    3 1   
     3    1   21 1   
     4    2    7 1   
     5    3    4 1   
     6    3   22 1   
     7    4    5 ar  
     8    4    7 ar  
     9    5    6 ar  
    10    6    9 ar  
    11    6   23 1   
    12    7    8 ar  
    13    8    9 ar  
    14    8   10 1   
    15   10   11 1   
    16   10   15 1   
    17   11   12 1   
    18   11   24 1   
    19   11   25 1   
    20   12   13 1   
    21   12   28 1   
    22   12   29 1   
    23   13   14 1   
    24   13   16 1   
    25   13   20 1   
    26   14   15 1   
    27   14   30 1   
    28   14   31 1   
    29   15   26 1   
    30   15   27 1   
    31   16   17 1   
    32   16   32 1   
    33   17   18 1   
    34   17   35 1   
    35   17   36 1   
    36   18   19 1   
    37   18   37 1   
    38   18   38 1   
    39   19   20 1   
    40   19   39 1   
    41   19   40 1   
    42   20   33 1   
    43   20   34 1   
@<TRIPOS>SUBSTRUCTURE
     1 SIJ         1 TEMP              0 ****  ****    0 ROOT
