@<TRIPOS>MOLECULE
SIJ
   40    43     1     0     0
SMALL
bcc


@<TRIPOS>ATOM
      1 C12         4.1010   -2.0820    0.0700 cc        1 SIJ      0.400700
      2 N3          2.7940   -1.7860    0.0250 nd        1 SIJ     -0.538100
      3 N4          4.9370   -0.9460    0.0550 na        1 SIJ     -0.381000
      4 C13         4.0850    0.1620   -0.0050 ca        1 SIJ      0.436800
      5 N5          4.3760    1.4960   -0.0590 nb        1 SIJ     -0.722000
      6 C           3.2630    2.2600   -0.1370 ca        1 SIJ      0.675900
      7 C11         2.7260   -0.3850   -0.0210 ca        1 SIJ     -0.188200
      8 C1          1.6440    0.5560   -0.1150 ca        1 SIJ      0.734200
      9 N           1.9550    1.8910   -0.1610 nb        1 SIJ     -0.779000
     10 N1          0.3160    0.1180   -0.2590 nh        1 SIJ     -0.727300
     11 C10        -0.6760    1.1200   -0.6360 c3        1 SIJ      0.196300
     12 C9         -2.0010    0.5000   -1.0730 c3        1 SIJ     -0.072900
     13 C4         -2.5840   -0.4450   -0.0030 c3        1 SIJ      0.175200
     14 C3         -1.4900   -1.4930    0.2950 c3        1 SIJ     -0.072900
     15 C2         -0.1720   -0.8470    0.7170 c3        1 SIJ      0.196300
     16 N2         -2.9490    0.2880    1.2200 n3        1 SIJ     -0.795200
     17 C8         -4.1540    1.0800    1.0950 c3        1 SIJ      0.154800
     18 C7         -5.3700    0.3530    0.5200 c3        1 SIJ     -0.115400
     19 C6         -5.0050   -0.3310   -0.7800 c3        1 SIJ     -0.076400
     20 C5         -3.7830   -1.2080   -0.6180 c3        1 SIJ     -0.106400
     21 H12         4.5190   -3.0950    0.1120 h5        1 SIJ      0.072800
     22 H4          5.9210   -0.9230    0.0820 hn        1 SIJ      0.318700
     23 H           3.4380    3.3570   -0.1810 h5        1 SIJ      0.052100
     24 H101       -0.8660    1.8360    0.2160 h1        1 SIJ      0.058950
     25 H102       -0.2690    1.7110   -1.5050 h1        1 SIJ      0.058950
     26 H21C        0.5830   -1.6680    0.8530 h1        1 SIJ      0.058950
     27 H22C       -0.3190   -0.3410    1.7170 h1        1 SIJ      0.058950
     28 H91C       -2.7150    1.3340   -1.2960 hc        1 SIJ      0.052200
     29 H92C       -1.8550   -0.0880   -2.0150 hc        1 SIJ      0.052200
     30 H31C       -1.8150   -2.1840    1.1150 hc        1 SIJ      0.052200
     31 H32C       -1.3350   -2.1070   -0.6300 hc        1 SIJ      0.052200
     32 H2         -3.0590   -0.3780    1.9660 hn        1 SIJ      0.350800
     33 H51C       -3.4820   -1.6220   -1.6140 hc        1 SIJ      0.044700
     34 H52C       -4.0350   -2.0780    0.0450 hc        1 SIJ      0.044700
     35 H81C       -4.4100    1.4800    2.1160 h1        1 SIJ      0.051700
     36 H82C       -3.9150    1.9610    0.4330 h1        1 SIJ      0.051700
     37 H71C       -5.7440   -0.4060    1.2560 hc        1 SIJ      0.043700
     38 H72C       -6.1930    1.0910    0.3490 hc        1 SIJ      0.043700
     39 H61C       -5.8670   -0.9530   -1.1360 hc        1 SIJ      0.041700
     40 H62C       -4.8060    0.4460   -1.5660 hc        1 SIJ      0.041700
@<TRIPOS>BOND
     1    1    2 2   
     2    1    3 1   
     3    1   21 1   
     4    2    7 1   
     5    3    4 1   
     6    3   22 1   
     7    4    5 ar  
     8    4    7 ar  
     9    5    6 ar  
    10    6    9 ar  
    11    6   23 1   
    12    7    8 ar  
    13    8    9 ar  
    14    8   10 1   
    15   10   11 1   
    16   10   15 1   
    17   11   12 1   
    18   11   24 1   
    19   11   25 1   
    20   12   13 1   
    21   12   28 1   
    22   12   29 1   
    23   13   14 1   
    24   13   16 1   
    25   13   20 1   
    26   14   15 1   
    27   14   30 1   
    28   14   31 1   
    29   15   26 1   
    30   15   27 1   
    31   16   17 1   
    32   16   32 1   
    33   17   18 1   
    34   17   35 1   
    35   17   36 1   
    36   18   19 1   
    37   18   37 1   
    38   18   38 1   
    39   19   20 1   
    40   19   39 1   
    41   19   40 1   
    42   20   33 1   
    43   20   34 1   
@<TRIPOS>SUBSTRUCTURE
     1 SIJ         1 TEMP              0 ****  ****    0 ROOT
