@<TRIPOS>MOLECULE
SIJ
   40    43     1     0     0
SMALL
bcc


@<TRIPOS>ATOM
      1 C12        -0.0380   -0.0830   -0.1300 cc        1 SIJ      0.400700
      2 N3          1.2870    0.1160   -0.0880 nd        1 SIJ     -0.538100
      3 N4         -0.6210   -0.2700    1.1400 na        1 SIJ     -0.381000
      4 C13         0.4260   -0.1820    2.0650 ca        1 SIJ      0.436800
      5 N5          0.4140   -0.3060    3.4250 nb        1 SIJ     -0.722000
      6 C           1.6490   -0.1830    3.9610 ca        1 SIJ      0.675900
      7 C11         1.6330    0.0660    1.2710 ca        1 SIJ     -0.188200
      8 C1          2.8750    0.1670    1.9870 ca        1 SIJ      0.734200
      9 N           2.8430    0.0450    3.3520 nb        1 SIJ     -0.779000
     10 N1          4.0970    0.2810    1.3000 nh        1 SIJ     -0.727300
     11 C10         5.3160    0.0850    2.0780 c3        1 SIJ      0.196300
     12 C9          6.5530   -0.0860    1.1990 c3        1 SIJ     -0.072900
     13 C4          6.7360    1.0870    0.2150 c3        1 SIJ      0.175200
     14 C3          5.4230    1.1880   -0.5920 c3        1 SIJ     -0.072900
     15 C2          4.2020    1.3450    0.3100 c3        1 SIJ      0.196300
     16 N2          7.0070    2.3470    0.9260 n3        1 SIJ     -0.795200
     17 C8          8.3450    2.4400    1.4700 c3        1 SIJ      0.154800
     18 C7          9.4800    2.1150    0.5000 c3        1 SIJ     -0.115400
     19 C6          9.2340    0.7790   -0.1670 c3        1 SIJ     -0.076400
     20 C5          7.8560    0.7200   -0.7900 c3        1 SIJ     -0.106400
     21 H12        -0.6450   -0.1080   -1.0440 h5        1 SIJ      0.072800
     22 H4         -1.5700   -0.4300    1.3500 hn        1 SIJ      0.318700
     23 H           1.7010   -0.2720    5.0680 h5        1 SIJ      0.052100
     24 H101        5.1970   -0.8540    2.6910 h1        1 SIJ      0.058950
     25 H102        5.4830    0.9470    2.7860 h1        1 SIJ      0.058950
     26 H21C        4.2590    2.3470    0.8290 h1        1 SIJ      0.058950
     27 H22C        3.2900    1.3470   -0.3460 h1        1 SIJ      0.058950
     28 H91C        7.4430   -0.1820    1.8710 hc        1 SIJ      0.052200
     29 H92C        6.4690   -1.0310    0.6020 hc        1 SIJ      0.052200
     30 H31C        5.4530    2.0630   -1.2900 hc        1 SIJ      0.052200
     31 H32C        5.3240    0.2590   -1.2120 hc        1 SIJ      0.052200
     32 H2          6.8480    3.1090    0.2900 hn        1 SIJ      0.350800
     33 H51C        7.8090    1.4300   -1.6570 hc        1 SIJ      0.044700
     34 H52C        7.6670   -0.3100   -1.1880 hc        1 SIJ      0.044700
     35 H81C        8.4060    1.7340    2.3460 h1        1 SIJ      0.051700
     36 H82C        8.4830    3.4860    1.8650 h1        1 SIJ      0.051700
     37 H71C        9.5590    2.9180   -0.2790 hc        1 SIJ      0.043700
     38 H72C       10.4490    2.0920    1.0610 hc        1 SIJ      0.043700
     39 H61C       10.0080    0.6010   -0.9570 hc        1 SIJ      0.041700
     40 H62C        9.3360   -0.0410    0.5930 hc        1 SIJ      0.041700
@<TRIPOS>BOND
     1    1    2 2   
     2    1    3 1   
     3    1   21 1   
     4    2    7 1   
     5    3    4 1   
     6    3   22 1   
     7    4    5 ar  
     8    4    7 ar  
     9    5    6 ar  
    10    6    9 ar  
    11    6   23 1   
    12    7    8 ar  
    13    8    9 ar  
    14    8   10 1   
    15   10   11 1   
    16   10   15 1   
    17   11   12 1   
    18   11   24 1   
    19   11   25 1   
    20   12   13 1   
    21   12   28 1   
    22   12   29 1   
    23   13   14 1   
    24   13   16 1   
    25   13   20 1   
    26   14   15 1   
    27   14   30 1   
    28   14   31 1   
    29   15   26 1   
    30   15   27 1   
    31   16   17 1   
    32   16   32 1   
    33   17   18 1   
    34   17   35 1   
    35   17   36 1   
    36   18   19 1   
    37   18   37 1   
    38   18   38 1   
    39   19   20 1   
    40   19   39 1   
    41   19   40 1   
    42   20   33 1   
    43   20   34 1   
@<TRIPOS>SUBSTRUCTURE
     1 SIJ         1 TEMP              0 ****  ****    0 ROOT
