@<TRIPOS>MOLECULE
SIJ
   40    43     1     0     0
SMALL
bcc


@<TRIPOS>ATOM
      1 C12        -0.0410   -0.0780   -0.1220 cc        1 SIJ      0.400700
      2 N3          1.2850    0.1210   -0.0820 nd        1 SIJ     -0.538100
      3 N4         -0.6200   -0.2740    1.1490 na        1 SIJ     -0.381000
      4 C13         0.4300   -0.1930    2.0710 ca        1 SIJ      0.436800
      5 N5          0.4220   -0.3270    3.4300 nb        1 SIJ     -0.722000
      6 C           1.6580   -0.2070    3.9640 ca        1 SIJ      0.675900
      7 C11         1.6340    0.0620    1.2760 ca        1 SIJ     -0.188200
      8 C1          2.8780    0.1580    1.9890 ca        1 SIJ      0.734200
      9 N           2.8500    0.0260    3.3530 nb        1 SIJ     -0.779000
     10 N1          4.0980    0.2780    1.3000 nh        1 SIJ     -0.727300
     11 C10         5.3200    0.0770    2.0730 c3        1 SIJ      0.196300
     12 C9          6.5540   -0.0870    1.1900 c3        1 SIJ     -0.072900
     13 C4          6.7340    1.0920    0.2130 c3        1 SIJ      0.175200
     14 C3          5.4190    1.1970   -0.5900 c3        1 SIJ     -0.072900
     15 C2          4.2000    1.3480    0.3160 c3        1 SIJ      0.196300
     16 N2          7.0060    2.3480    0.9320 n3        1 SIJ     -0.795200
     17 C8          8.3460    2.4390    1.4730 c3        1 SIJ      0.154800
     18 C7          9.4790    2.1210    0.4970 c3        1 SIJ     -0.115400
     19 C6          9.2310    0.7890   -0.1770 c3        1 SIJ     -0.076400
     20 C5          7.8520    0.7330   -0.7970 c3        1 SIJ     -0.106400
     21 H12        -0.6490   -0.0970   -1.0340 h5        1 SIJ      0.072800
     22 H4         -1.5680   -0.4360    1.3590 hn        1 SIJ      0.318700
     23 H           1.7130   -0.3050    5.0700 h5        1 SIJ      0.052100
     24 H101        5.2030   -0.8660    2.6800 h1        1 SIJ      0.058950
     25 H102        5.4880    0.9350    2.7860 h1        1 SIJ      0.058950
     26 H21C        4.2580    2.3470    0.8420 h1        1 SIJ      0.058950
     27 H22C        3.2860    1.3540   -0.3380 h1        1 SIJ      0.058950
     28 H91C        7.4470   -0.1870    1.8590 hc        1 SIJ      0.052200
     29 H92C        6.4700   -1.0280    0.5870 hc        1 SIJ      0.052200
     30 H31C        5.4470    2.0780   -1.2830 hc        1 SIJ      0.052200
     31 H32C        5.3190    0.2730   -1.2160 hc        1 SIJ      0.052200
     32 H2          6.8440    3.1140    0.3010 hn        1 SIJ      0.350800
     33 H51C        7.8020    1.4490   -1.6590 hc        1 SIJ      0.044700
     34 H52C        7.6620   -0.2940   -1.2020 hc        1 SIJ      0.044700
     35 H81C        8.4090    1.7270    2.3440 h1        1 SIJ      0.051700
     36 H82C        8.4840    3.4820    1.8740 h1        1 SIJ      0.051700
     37 H71C       10.4480    2.0950    1.0560 hc        1 SIJ      0.043700
     38 H72C        9.5550    2.9290   -0.2760 hc        1 SIJ      0.043700
     39 H61C       10.0040    0.6160   -0.9710 hc        1 SIJ      0.041700
     40 H62C        9.3360   -0.0360    0.5770 hc        1 SIJ      0.041700
@<TRIPOS>BOND
     1    1    2 2   
     2    1    3 1   
     3    1   21 1   
     4    2    7 1   
     5    3    4 1   
     6    3   22 1   
     7    4    5 ar  
     8    4    7 ar  
     9    5    6 ar  
    10    6    9 ar  
    11    6   23 1   
    12    7    8 ar  
    13    8    9 ar  
    14    8   10 1   
    15   10   11 1   
    16   10   15 1   
    17   11   12 1   
    18   11   24 1   
    19   11   25 1   
    20   12   13 1   
    21   12   28 1   
    22   12   29 1   
    23   13   14 1   
    24   13   16 1   
    25   13   20 1   
    26   14   15 1   
    27   14   30 1   
    28   14   31 1   
    29   15   26 1   
    30   15   27 1   
    31   16   17 1   
    32   16   32 1   
    33   17   18 1   
    34   17   35 1   
    35   17   36 1   
    36   18   19 1   
    37   18   37 1   
    38   18   38 1   
    39   19   20 1   
    40   19   39 1   
    41   19   40 1   
    42   20   33 1   
    43   20   34 1   
@<TRIPOS>SUBSTRUCTURE
     1 SIJ         1 TEMP              0 ****  ****    0 ROOT
