@<TRIPOS>MOLECULE
SIL
   40    40     1     0     0
SMALL
bcc


@<TRIPOS>ATOM
      1 C1         -0.6510    1.8320   -0.3940 c2        1 SIL     -0.252000
      2 C2          0.4090    1.0470   -0.2120 c2        1 SIL     -0.143200
      3 C5          1.2040    0.9980    1.0390 c3        1 SIL     -0.059200
      4 C7          2.6940    0.9550    0.7600 c3        1 SIL     -0.065400
      5 C10         3.4880    0.8560    2.0430 c3        1 SIL     -0.071400
      6 C13         4.9690    0.8080    1.8110 c3        1 SIL     -0.330600
      7 P16         5.6770    0.6670    3.3410 p5        1 SIL      1.341600
      8 O20         5.3040   -0.6120    3.9860 o         1 SIL     -0.859500
      9 O21         7.2740    0.4640    2.8590 os        1 SIL     -0.590200
     10 C23         8.2270    0.6460    3.8480 c3        1 SIL      0.188400
     11 C24         8.8630   -0.7010    4.2330 c3        1 SIL      0.089100
     12 C27         9.3680   -1.4910    3.0270 c3        1 SIL      0.120400
     13 O28        10.0360   -0.4650    5.0350 os        1 SIL     -0.446600
     14 C30        11.2160   -0.8140    4.3130 c3        1 SIL      0.347600
     15 O31        10.7870   -1.6060    3.2020 os        1 SIL     -0.463600
     16 C34        11.9320    0.4380    3.8180 c3        1 SIL     -0.107100
     17 C38        12.1130   -1.6590    5.2090 c3        1 SIL     -0.107100
     18 O1          5.6480    1.9570    4.0670 o         1 SIL     -0.859500
     19 H11        -1.0150    2.5250    0.3740 ha        1 SIL      0.102500
     20 H12        -1.2250    1.8340   -1.3290 ha        1 SIL      0.102500
     21 H2          0.7540    0.3660   -1.0080 ha        1 SIL      0.113000
     22 H51         0.9100    0.0770    1.6150 hc        1 SIL      0.048700
     23 H52         0.9720    1.8810    1.6930 hc        1 SIL      0.048700
     24 H71         2.9300    0.0760    0.1050 hc        1 SIL      0.032200
     25 H72         2.9980    1.8770    0.2000 hc        1 SIL      0.032200
     26 H101        3.2640    1.7380    2.7030 hc        1 SIL      0.056200
     27 H102        3.1920   -0.0680    2.6110 hc        1 SIL      0.056200
     28 H131        5.3170    1.7290    1.2870 hc        1 SIL      0.066200
     29 H132        5.2390   -0.0570    1.1600 hc        1 SIL      0.066200
     30 H231        7.7730    1.1240    4.7600 h1        1 SIL      0.033700
     31 H232        9.0390    1.3180    3.4480 h1        1 SIL      0.033700
     32 H24         8.1650   -1.3010    4.8730 h1        1 SIL      0.092700
     33 H271        8.9630   -2.5320    2.9900 h1        1 SIL      0.062200
     34 H272        9.1750   -0.9570    2.0620 h1        1 SIL      0.062200
     35 H341       12.2280    1.0650    4.6900 hc        1 SIL      0.042867
     36 H342       12.8380    0.1460    3.2390 hc        1 SIL      0.042867
     37 H343       11.2500    1.0270    3.1600 hc        1 SIL      0.042867
     38 H381       12.4170   -1.0580    6.0970 hc        1 SIL      0.042867
     39 H382       11.5620   -2.5650    5.5520 hc        1 SIL      0.042867
     40 H383       13.0170   -1.9720    4.6380 hc        1 SIL      0.042867
@<TRIPOS>BOND
     1    1    2 2   
     2    1   19 1   
     3    1   20 1   
     4    2    3 1   
     5    2   21 1   
     6    3    4 1   
     7    3   22 1   
     8    3   23 1   
     9    4    5 1   
    10    4   24 1   
    11    4   25 1   
    12    5    6 1   
    13    5   26 1   
    14    5   27 1   
    15    6    7 1   
    16    6   28 1   
    17    6   29 1   
    18    7    8 1   
    19    7    9 1   
    20    7   18 1   
    21    9   10 1   
    22   10   11 1   
    23   10   30 1   
    24   10   31 1   
    25   11   12 1   
    26   11   13 1   
    27   11   32 1   
    28   12   15 1   
    29   12   33 1   
    30   12   34 1   
    31   13   14 1   
    32   14   15 1   
    33   14   16 1   
    34   14   17 1   
    35   16   35 1   
    36   16   36 1   
    37   16   37 1   
    38   17   38 1   
    39   17   39 1   
    40   17   40 1   
@<TRIPOS>SUBSTRUCTURE
     1 SIL         1 TEMP              0 ****  ****    0 ROOT
