@<TRIPOS>MOLECULE
SIL
   40    40     1     0     0
SMALL
bcc


@<TRIPOS>ATOM
      1 C1         -2.9870   -7.9820    2.3260 c2        1 SIL     -0.252000
      2 C2         -2.7580   -6.6820    2.1540 c2        1 SIL     -0.143200
      3 C5         -1.7380   -6.1300    1.2300 c3        1 SIL     -0.059200
      4 C7         -0.9720   -4.9810    1.8560 c3        1 SIL     -0.065400
      5 C10         0.0300   -4.3990    0.8850 c3        1 SIL     -0.071400
      6 C13         0.8090   -3.2550    1.4650 c3        1 SIL     -0.330600
      7 P16         1.8410   -2.7230    0.2360 p5        1 SIL      1.341600
      8 O20         1.0750   -2.1780   -0.9080 o         1 SIL     -0.859500
      9 O21         2.4810   -1.3770    1.0130 os        1 SIL     -0.590200
     10 C23         3.6320   -0.8490    0.4490 c3        1 SIL      0.188400
     11 C24         3.3290    0.5020   -0.2210 c3        1 SIL      0.089100
     12 C27         2.5890    1.4740    0.6990 c3        1 SIL      0.120400
     13 O28         4.5650    1.1680   -0.5390 os        1 SIL     -0.446600
     14 C30         4.7450    2.3160    0.2890 c3        1 SIL      0.347600
     15 O31         3.4700    2.5910    0.8750 os        1 SIL     -0.463600
     16 C34         5.7730    2.0350    1.3790 c3        1 SIL     -0.107100
     17 C38         5.1570    3.4950   -0.5840 c3        1 SIL     -0.107100
     18 O1          2.9820   -3.6480    0.0530 o         1 SIL     -0.859500
     19 H11        -3.7590   -8.3570    3.0090 ha        1 SIL      0.102500
     20 H12        -2.4180   -8.7590    1.7990 ha        1 SIL      0.102500
     21 H2         -3.3430   -5.9260    2.7050 ha        1 SIL      0.113000
     22 H51        -1.0170   -6.9300    0.9110 hc        1 SIL      0.048700
     23 H52        -2.2560   -5.7650    0.3010 hc        1 SIL      0.048700
     24 H71        -0.4390   -5.3400    2.7750 hc        1 SIL      0.032200
     25 H72        -1.6880   -4.1810    2.1790 hc        1 SIL      0.032200
     26 H101        0.7590   -5.1910    0.5610 hc        1 SIL      0.056200
     27 H102       -0.4950   -4.0320   -0.0390 hc        1 SIL      0.056200
     28 H131        0.1240   -2.4400    1.7980 hc        1 SIL      0.066200
     29 H132        1.3830   -3.5830    2.3630 hc        1 SIL      0.066200
     30 H231        4.3880   -0.6760    1.2670 h1        1 SIL      0.033700
     31 H232        4.0690   -1.5560   -0.3090 h1        1 SIL      0.033700
     32 H24         2.7970    0.3510   -1.1970 h1        1 SIL      0.092700
     33 H271        1.6510    1.8730    0.2420 h1        1 SIL      0.062200
     34 H272        2.3810    1.0270    1.7030 h1        1 SIL      0.062200
     35 H341        6.7530    1.7850    0.9090 hc        1 SIL      0.042867
     36 H342        5.8850    2.9340    2.0270 hc        1 SIL      0.042867
     37 H343        5.4370    1.1730    2.0020 hc        1 SIL      0.042867
     38 H381        6.1320    3.2680   -1.0750 hc        1 SIL      0.042867
     39 H382        4.3850    3.6760   -1.3680 hc        1 SIL      0.042867
     40 H383        5.2570    4.4070    0.0500 hc        1 SIL      0.042867
@<TRIPOS>BOND
     1    1    2 2   
     2    1   19 1   
     3    1   20 1   
     4    2    3 1   
     5    2   21 1   
     6    3    4 1   
     7    3   22 1   
     8    3   23 1   
     9    4    5 1   
    10    4   24 1   
    11    4   25 1   
    12    5    6 1   
    13    5   26 1   
    14    5   27 1   
    15    6    7 1   
    16    6   28 1   
    17    6   29 1   
    18    7    8 1   
    19    7    9 1   
    20    7   18 1   
    21    9   10 1   
    22   10   11 1   
    23   10   30 1   
    24   10   31 1   
    25   11   12 1   
    26   11   13 1   
    27   11   32 1   
    28   12   15 1   
    29   12   33 1   
    30   12   34 1   
    31   13   14 1   
    32   14   15 1   
    33   14   16 1   
    34   14   17 1   
    35   16   35 1   
    36   16   36 1   
    37   16   37 1   
    38   17   38 1   
    39   17   39 1   
    40   17   40 1   
@<TRIPOS>SUBSTRUCTURE
     1 SIL         1 TEMP              0 ****  ****    0 ROOT
