@<TRIPOS>MOLECULE
SIL
   40    40     1     0     0
SMALL
bcc


@<TRIPOS>ATOM
      1 C1         -0.6630    1.9210   -0.3150 c2        1 SIL     -0.252000
      2 C2          0.4160    1.1520   -0.1910 c2        1 SIL     -0.143200
      3 C5          1.2020    1.0150    1.0590 c3        1 SIL     -0.059200
      4 C7          2.6940    1.0340    0.7930 c3        1 SIL     -0.065400
      5 C10         3.4800    0.8450    2.0700 c3        1 SIL     -0.071400
      6 C13         4.9650    0.8540    1.8500 c3        1 SIL     -0.330600
      7 P16         5.6630    0.5980    3.3690 p5        1 SIL      1.341600
      8 O20         5.3140   -0.7390    3.9000 o         1 SIL     -0.859500
      9 O21         7.2680    0.4700    2.8860 os        1 SIL     -0.590200
     10 C23         8.2100    0.5860    3.8960 c3        1 SIL      0.188400
     11 C24         8.8710   -0.7750    4.1710 c3        1 SIL      0.089100
     12 C27         9.4010   -1.4490    2.9060 c3        1 SIL      0.120400
     13 O28        10.0330   -0.5850    5.0000 os        1 SIL     -0.446600
     14 C30        11.2250   -0.8470    4.2610 c3        1 SIL      0.347600
     15 O31        10.8210   -1.5500    3.0840 os        1 SIL     -0.463600
     16 C34        11.9180    0.4570    3.8810 c3        1 SIL     -0.107100
     17 C38        12.1340   -1.7460    5.0910 c3        1 SIL     -0.107100
     18 O1          5.6020    1.8200    4.2020 o         1 SIL     -0.859500
     19 H11        -1.0520    2.5360    0.5060 ha        1 SIL      0.102500
     20 H12        -1.2300    1.9900   -1.2520 ha        1 SIL      0.102500
     21 H2          0.7850    0.5510   -1.0400 ha        1 SIL      0.113000
     22 H51         0.9410    1.8320    1.7840 hc        1 SIL      0.048700
     23 H52         0.9270    0.0400    1.5500 hc        1 SIL      0.048700
     24 H71         2.9790    2.0090    0.3170 hc        1 SIL      0.032200
     25 H72         2.9590    0.2210    0.0670 hc        1 SIL      0.032200
     26 H101        3.2040   -0.1330    2.5530 hc        1 SIL      0.056200
     27 H102        3.2290    1.6600    2.8020 hc        1 SIL      0.056200
     28 H131        5.2930    1.8260    1.4120 hc        1 SIL      0.066700
     29 H132        5.2620    0.0570    1.1290 hc        1 SIL      0.066700
     30 H231        7.7390    0.9750    4.8410 h1        1 SIL      0.033700
     31 H232        9.0100    1.3070    3.5620 h1        1 SIL      0.033700
     32 H24         8.1810   -1.4420    4.7520 h1        1 SIL      0.092700
     33 H271        9.2040   -0.8400    1.9890 h1        1 SIL      0.062200
     34 H272        9.0190   -2.4910    2.7780 h1        1 SIL      0.062200
     35 H341       12.1940    1.0140    4.8060 hc        1 SIL      0.042867
     36 H342       11.2290    1.0860    3.2690 hc        1 SIL      0.042867
     37 H343       12.8350    0.2340    3.2880 hc        1 SIL      0.042867
     38 H381       11.6000   -2.6900    5.3500 hc        1 SIL      0.042867
     39 H382       12.4190   -1.2170    6.0290 hc        1 SIL      0.042867
     40 H383       13.0480   -1.9910    4.5030 hc        1 SIL      0.042867
@<TRIPOS>BOND
     1    1    2 2   
     2    1   19 1   
     3    1   20 1   
     4    2    3 1   
     5    2   21 1   
     6    3    4 1   
     7    3   22 1   
     8    3   23 1   
     9    4    5 1   
    10    4   24 1   
    11    4   25 1   
    12    5    6 1   
    13    5   26 1   
    14    5   27 1   
    15    6    7 1   
    16    6   28 1   
    17    6   29 1   
    18    7    8 1   
    19    7    9 1   
    20    7   18 1   
    21    9   10 1   
    22   10   11 1   
    23   10   30 1   
    24   10   31 1   
    25   11   12 1   
    26   11   13 1   
    27   11   32 1   
    28   12   15 1   
    29   12   33 1   
    30   12   34 1   
    31   13   14 1   
    32   14   15 1   
    33   14   16 1   
    34   14   17 1   
    35   16   35 1   
    36   16   36 1   
    37   16   37 1   
    38   17   38 1   
    39   17   39 1   
    40   17   40 1   
@<TRIPOS>SUBSTRUCTURE
     1 SIL         1 TEMP              0 ****  ****    0 ROOT
