@<TRIPOS>MOLECULE
SIM
   70    88     1     0     0
SMALL
bcc


@<TRIPOS>ATOM
      1 O1A         0.0000    0.0000    0.0000 o         1 SIM     -0.509500
      2 O1B         1.8790   -0.0010   -1.1630 o         1 SIM     -0.509500
      3 O3          0.2250    1.2220    2.4590 oh        1 SIM     -0.309000
      4 O5         -0.0230    0.9600    5.0530 oh        1 SIM     -0.275000
      5 O14        -1.1850   -1.6060    8.4800 os        1 SIM     -0.170000
      6 O18        -3.3420   -1.8010    8.9210 o         1 SIM     -0.345000
      7 C1          1.2080    0.0000    0.0000 c2        1 SIM      0.327000
      8 C2          1.9620    0.0000    1.3050 DU        1 SIM      0.329000
      9 C3          0.9680    0.0010    2.4680 DU        1 SIM      0.226000
     10 C4          1.7290   -0.1240    3.7890 DU        1 SIM     -0.434000
     11 C5          0.7310   -0.2490    4.9420 DU        1 SIM     -0.134000
     12 C6          1.4900   -0.4990    6.2470 DU        1 SIM     -0.398000
     13 C7          0.4920   -0.6290    7.4000 DU        1 SIM     -0.336000
     14 C8          1.2520   -0.7200    8.7250 DU        1 SIM     -0.186000
     15 C9          2.4290    0.2570    8.7080 DU        1 SIM     -0.294000
     16 C10         3.0510    0.3990   10.0640 c3        1 SIM     -0.303000
     17 C11         2.4510    0.0720   11.1950 c2        1 SIM     -0.551000
     18 C12         1.0810   -0.4920   11.1620 c3        1 SIM      0.114000
     19 C17         0.6000   -1.0880   12.2360 c3        1 SIM     -0.653000
     20 C16        -0.7670   -1.7240   12.2200 DU        1 SIM     -0.106000
     21 C15        -1.0070   -2.2720   10.8060 DU        1 SIM     -0.389000
     22 C14        -0.9850   -1.0990    9.8260 DU        1 SIM     -0.195000
     23 C13         0.3190   -0.3430    9.8780 c3        1 SIM     -0.533000
     24 C9A         1.9340    1.6280    8.2420 c3        1 SIM     -0.421000
     25 C19        -2.7470   -2.2820    6.6920 DU        1 SIM     -0.130000
     26 C20        -4.1300   -2.9350    6.6280 DU        1 SIM     -0.397000
     27 C21        -4.4350   -3.3440    5.1860 c3        1 SIM     -0.432000
     28 C22        -2.7270   -1.0430    5.7950 c3        1 SIM     -0.368000
     29 C23        -1.6900   -3.2780    6.2100 c3        1 SIM     -0.368000
     30 C24        -0.8190   -2.8670   13.2350 c3        1 SIM     -0.313000
     31 HO3        -0.1430    0.8200    3.2280 ho        1 SIM      0.256000
     32 HO5         0.1600    1.2030    4.1600 ho        1 SIM      0.204000
     33 H21         1.2750    0.2560    2.1020 ha        1 SIM      0.065000
     34 H22         2.5850    0.8840    1.3620 ha        1 SIM      0.065000
     35 H3          1.7830   -0.4470    1.9120 DU        1 SIM     -0.054000
     36 H41         1.0030   -0.4850    3.0710 DU        1 SIM      0.157000
     37 H42         2.3430    0.7560    3.9370 ha        1 SIM      0.122000
     38 H5          1.5520   -0.6310    4.3480 DU        1 SIM      0.187000
     39 H61         0.7690   -0.7910    5.4940 DU        1 SIM      0.230000
     40 H62         2.1590    0.3320    6.4410 ha        1 SIM      0.152000
     41 H71         1.2850   -1.0260    6.7780 DU        1 SIM      0.217000
     42 H72        -0.1020   -1.5240    7.2630 ha        1 SIM      0.162000
     43 H8          0.5410   -0.2360    8.0660 DU        1 SIM      0.204000
     44 H9          2.0240   -0.7440    8.7910 DU        1 SIM      0.175000
     45 H10         3.1180    0.1390    9.0150 DU        1 SIM      0.229000
     46 H11         3.2950    0.4520   10.6330 DU        1 SIM      0.229000
     47 H17         1.5270   -0.5290   12.2010 DU        1 SIM      0.478000
     48 H16         0.1770   -1.4320   12.6660 DU        1 SIM      0.305000
     49 H151       -1.2660   -1.6230   11.6340 DU        1 SIM      0.183000
     50 H152       -1.9730   -2.7620   10.7650 ha        1 SIM      0.137000
     51 H14        -0.6000   -2.0450   10.1890 DU        1 SIM      0.172000
     52 H13        -0.7580   -0.3800    9.9790 DU        1 SIM      0.273000
     53 H9A1        1.1520    1.2430    8.8850 hc        1 SIM      0.160667
     54 H9A2        2.5850    1.9990    7.4590 hc        1 SIM      0.160667
     55 H9A3        0.9250    1.5360    7.8590 hc        1 SIM      0.160667
     56 H201       -3.3460   -2.2570    6.9450 DU        1 SIM      0.246000
     57 H202       -4.1440   -3.8120    7.2630 ha        1 SIM      0.134000
     58 H211       -4.6600   -2.7810    6.0840 DU        1 SIM      0.251000
     59 H212       -3.6960   -4.0620    4.8510 hc        1 SIM      0.069000
     60 H213       -4.4030   -2.4690    4.5480 hc        1 SIM      0.069000
     61 H221       -3.4750   -1.8050    5.6130 hc        1 SIM      0.161500
     62 H222       -2.1020   -0.2810    6.2450 hc        1 SIM      0.161500
     63 H223       -3.7350   -0.6620    5.6810 hc        1 SIM      0.161500
     64 H231       -1.9670   -2.4220    5.6050 hc        1 SIM      0.161500
     65 H232       -2.0380   -4.2880    6.3890 hc        1 SIM      0.161500
     66 H233       -0.7650   -3.1130    6.7500 hc        1 SIM      0.161500
     67 H241       -0.9120   -2.9030   12.1570 DU        1 SIM      0.224000
     68 H242        0.2140   -3.1300   13.4300 hc        1 SIM      0.092500
     69 H243       -1.4010   -2.4900   14.0670 hc        1 SIM      0.092500
     70 C18        -2.4470   -1.8790    8.1120 c2        1 SIM      0.289000
@<TRIPOS>BOND
     1    1    7 1   
     2    2    7 1   
     3    3    9 1   
     4    3   31 1   
     5    4   11 1   
     6    4   32 1   
     7    5   22 1   
     8    5   70 1   
     9    6   70 1   
    10    7    8 1   
    11    8    9 1   
    12    8   33 1   
    13    8   34 1   
    14    8   35 1   
    15    9   10 1   
    16    9   35 1   
    17    9   36 1   
    18   10   11 1   
    19   10   36 1   
    20   10   37 1   
    21   10   38 1   
    22   11   12 1   
    23   11   38 1   
    24   11   39 1   
    25   12   13 1   
    26   12   39 1   
    27   12   40 1   
    28   12   41 1   
    29   13   14 1   
    30   13   41 1   
    31   13   42 1   
    32   13   43 1   
    33   14   15 1   
    34   14   23 1   
    35   14   43 1   
    36   14   44 1   
    37   15   16 1   
    38   15   24 1   
    39   15   44 1   
    40   15   45 1   
    41   16   17 1   
    42   16   45 1   
    43   16   46 1   
    44   17   18 1   
    45   17   46 1   
    46   18   19 1   
    47   18   23 1   
    48   18   47 1   
    49   19   20 1   
    50   19   47 1   
    51   19   48 1   
    52   20   21 1   
    53   20   30 1   
    54   20   48 1   
    55   20   49 1   
    56   20   67 1   
    57   21   22 1   
    58   21   49 1   
    59   21   50 1   
    60   21   51 1   
    61   22   23 1   
    62   22   51 1   
    63   22   52 1   
    64   23   52 1   
    65   24   53 1   
    66   24   54 1   
    67   24   55 1   
    68   25   26 1   
    69   25   28 1   
    70   25   29 1   
    71   25   56 1   
    72   25   70 1   
    73   26   27 1   
    74   26   56 1   
    75   26   57 1   
    76   26   58 1   
    77   27   58 1   
    78   27   59 1   
    79   27   60 1   
    80   28   61 1   
    81   28   62 1   
    82   28   63 1   
    83   29   64 1   
    84   29   65 1   
    85   29   66 1   
    86   30   67 1   
    87   30   68 1   
    88   30   69 1   
@<TRIPOS>SUBSTRUCTURE
     1 SIM         1 TEMP              0 ****  ****    0 ROOT
