@<TRIPOS>MOLECULE
SIM
   70    71     1     0     0
SMALL
bcc


@<TRIPOS>ATOM
      1 O1A         6.8870    0.2690   -1.6970 o         1 SIM     -0.846300
      2 O1B         7.0850   -1.1560   -3.4040 o         1 SIM     -0.846300
      3 O3          4.8430   -0.1910    0.1170 oh        1 SIM     -0.675800
      4 O5          2.1500   -0.4320    1.1460 oh        1 SIM     -0.636800
      5 O14        -1.9260    1.2290    0.3320 os        1 SIM     -0.421900
      6 O18        -3.0830    3.1200    0.6460 o         1 SIM     -0.563000
      7 C1          6.5640   -0.7910   -2.3150 c         1 SIM      0.909600
      8 C2          5.4850   -1.6920   -1.6900 c3        1 SIM     -0.235400
      9 C3          4.3810   -0.8740   -1.0410 c3        1 SIM      0.171100
     10 C4          3.2200   -1.7660   -0.6000 c3        1 SIM     -0.122400
     11 C5          2.0030   -0.9570   -0.1690 c3        1 SIM      0.154100
     12 C6          0.7450   -1.8270   -0.1600 c3        1 SIM     -0.080400
     13 C7         -0.4630   -1.0020    0.2300 c3        1 SIM     -0.073400
     14 C8         -1.7750   -1.7500    0.1220 c3        1 SIM     -0.036700
     15 C9         -1.7670   -3.0690    0.9180 c3        1 SIM     -0.036500
     16 C10        -3.1160   -3.7070    0.9510 c2        1 SIM     -0.147200
     17 C11        -4.2430   -3.0790    0.5870 ce        1 SIM     -0.146000
     18 C12        -4.2060   -1.7100    0.0860 ce        1 SIM     -0.077200
     19 C17        -5.1000   -1.2530   -0.8060 c2        1 SIM     -0.166200
     20 C16        -5.0080    0.0790   -1.4630 c3        1 SIM     -0.029500
     21 C15        -3.6030    0.6540   -1.3290 c3        1 SIM     -0.095400
     22 C14        -3.1620    0.5290    0.1230 c3        1 SIM      0.154100
     23 C13        -3.0030   -0.9320    0.5580 c3        1 SIM     -0.019500
     24 C9A        -1.2610   -2.9150    2.3420 c3        1 SIM     -0.089100
     25 C19        -0.6030    3.2080    0.7190 c3        1 SIM     -0.082000
     26 C20        -0.8100    4.6630    1.1450 c3        1 SIM     -0.075400
     27 C21         0.4460    5.4930    1.1060 c3        1 SIM     -0.092100
     28 C22         0.1920    2.4410    1.7650 c3        1 SIM     -0.094600
     29 C23         0.1020    3.1200   -0.6280 c3        1 SIM     -0.094600
     30 C24        -5.4050   -0.0090   -2.9230 c3        1 SIM     -0.085100
     31 HO3         5.6830    0.2380   -0.1300 ho        1 SIM      0.465000
     32 HO5         3.0570   -0.1010    1.2170 ho        1 SIM      0.437000
     33 H21         5.0540   -2.3510   -2.4830 hc        1 SIM      0.036700
     34 H22         5.9770   -2.3370   -0.9210 hc        1 SIM      0.036700
     35 H3          4.0080   -0.1050   -1.7780 h1        1 SIM      0.028700
     36 H41         2.9400   -2.4290   -1.4570 hc        1 SIM      0.049700
     37 H42         3.5550   -2.4110    0.2530 hc        1 SIM      0.049700
     38 H5          1.8530   -0.0900   -0.8770 h1        1 SIM      0.028700
     39 H61         0.6010   -2.2620   -1.1820 hc        1 SIM      0.039200
     40 H62         0.8960   -2.6740    0.5570 hc        1 SIM      0.039200
     41 H71        -0.3280   -0.6070    1.2720 hc        1 SIM      0.059700
     42 H72        -0.4990   -0.1150   -0.4610 hc        1 SIM      0.059700
     43 H8         -1.9170   -2.0220   -0.9640 hc        1 SIM      0.046700
     44 H9         -1.0660   -3.7710    0.3770 hc        1 SIM      0.058700
     45 H10        -3.1350   -4.7470    1.3130 ha        1 SIM      0.118000
     46 H11        -5.2240   -3.5760    0.6170 ha        1 SIM      0.121000
     47 H17        -5.9560   -1.8750   -1.1140 ha        1 SIM      0.120000
     48 H16        -5.7280    0.7750   -0.9400 hc        1 SIM      0.057700
     49 H151       -2.8880    0.1060   -1.9930 hc        1 SIM      0.057700
     50 H152       -3.6000    1.7340   -1.6270 hc        1 SIM      0.057700
     51 H14        -3.9530    0.9960    0.7820 h1        1 SIM      0.065700
     52 H13        -3.0040   -0.9150    1.6870 hc        1 SIM      0.064700
     53 H9A1       -1.8860   -2.1880    2.9140 hc        1 SIM      0.039700
     54 H9A2       -1.3000   -3.9010    2.8660 hc        1 SIM      0.039700
     55 H9A3       -0.2050   -2.5520    2.3480 hc        1 SIM      0.039700
     56 H201       -1.5810    5.1270    0.4720 hc        1 SIM      0.049700
     57 H202       -1.2340    4.6680    2.1840 hc        1 SIM      0.049700
     58 H211        0.2330    6.5150    1.5060 hc        1 SIM      0.035700
     59 H212        1.2550    5.0360    1.7260 hc        1 SIM      0.035700
     60 H213        0.8230    5.5990    0.0600 hc        1 SIM      0.035700
     61 H221        0.3850    1.3930    1.4160 hc        1 SIM      0.052867
     62 H222        1.1770    2.9380    1.9350 hc        1 SIM      0.052867
     63 H223       -0.3650    2.4050    2.7310 hc        1 SIM      0.052867
     64 H231       -0.4150    3.7580   -1.3830 hc        1 SIM      0.052867
     65 H232        1.1590    3.4650   -0.5230 hc        1 SIM      0.052867
     66 H233        0.1110    2.0610   -0.9860 hc        1 SIM      0.052867
     67 H241       -6.4570   -0.3710   -3.0190 hc        1 SIM      0.034700
     68 H242       -5.3270    0.9970   -3.4010 hc        1 SIM      0.034700
     69 H243       -4.7360   -0.7140   -3.4710 hc        1 SIM      0.034700
     70 C18        -1.9790    2.5730    0.5760 c         1 SIM      0.635100
@<TRIPOS>BOND
     1    1    7 1   
     2    2    7 1   
     3    3    9 1   
     4    3   31 1   
     5    4   11 1   
     6    4   32 1   
     7    5   22 1   
     8    5   70 1   
     9    6   70 2   
    10    7    8 1   
    11    8    9 1   
    12    8   33 1   
    13    8   34 1   
    14    9   10 1   
    15    9   35 1   
    16   10   11 1   
    17   10   36 1   
    18   10   37 1   
    19   11   12 1   
    20   11   38 1   
    21   12   13 1   
    22   12   39 1   
    23   12   40 1   
    24   13   14 1   
    25   13   41 1   
    26   13   42 1   
    27   14   15 1   
    28   14   23 1   
    29   14   43 1   
    30   15   16 1   
    31   15   24 1   
    32   15   44 1   
    33   16   17 2   
    34   16   45 1   
    35   17   18 1   
    36   17   46 1   
    37   18   19 2   
    38   18   23 1   
    39   19   20 1   
    40   19   47 1   
    41   20   21 1   
    42   20   30 1   
    43   20   48 1   
    44   21   22 1   
    45   21   49 1   
    46   21   50 1   
    47   22   23 1   
    48   22   51 1   
    49   23   52 1   
    50   24   53 1   
    51   24   54 1   
    52   24   55 1   
    53   25   26 1   
    54   25   28 1   
    55   25   29 1   
    56   25   70 1   
    57   26   27 1   
    58   26   56 1   
    59   26   57 1   
    60   27   58 1   
    61   27   59 1   
    62   27   60 1   
    63   28   61 1   
    64   28   62 1   
    65   28   63 1   
    66   29   64 1   
    67   29   65 1   
    68   29   66 1   
    69   30   67 1   
    70   30   68 1   
    71   30   69 1   
@<TRIPOS>SUBSTRUCTURE
     1 SIM         1 TEMP              0 ****  ****    0 ROOT
