@<TRIPOS>MOLECULE
SIN
   12    11     1     0     0
SMALL
bcc


@<TRIPOS>ATOM
      1 C1          0.0240    0.0020    0.0520 c         1 SIN      0.896600
      2 O1          0.9260   -0.8640    0.2720 o         1 SIN     -0.891300
      3 O2         -0.3150    0.8400    0.9500 o         1 SIN     -0.891300
      4 C2         -0.7140    0.0310   -1.2870 c3        1 SIN     -0.156400
      5 C3          0.2020    0.0310   -2.4860 c3        1 SIN     -0.156400
      6 C4         -0.5360   -0.0110   -3.8240 c         1 SIN      0.896600
      7 O3         -1.4350   -0.8840   -4.0380 o         1 SIN     -0.891300
      8 O4         -0.2010    0.8200   -4.7290 o         1 SIN     -0.891300
      9 H21        -1.3790   -0.8710   -1.3380 hc        1 SIN      0.021200
     10 H22        -1.3730    0.9370   -1.3160 hc        1 SIN      0.021200
     11 H31         0.8730   -0.8650   -2.4290 hc        1 SIN      0.021200
     12 H32         0.8530    0.9420   -2.4620 hc        1 SIN      0.021200
@<TRIPOS>BOND
     1    1    2 1   
     2    1    3 1   
     3    1    4 1   
     4    4    5 1   
     5    4    9 1   
     6    4   10 1   
     7    5    6 1   
     8    5   11 1   
     9    5   12 1   
    10    6    7 1   
    11    6    8 1   
@<TRIPOS>SUBSTRUCTURE
     1 SIN         1 TEMP              0 ****  ****    0 ROOT
