@<TRIPOS>MOLECULE
SIN
   12    11     1     0     0
SMALL
bcc


@<TRIPOS>ATOM
      1 C1          1.9580   -0.0510    0.0160 c         1 SIN      0.896600
      2 O1          2.2770   -0.9530    0.8510 o         1 SIN     -0.891300
      3 O2          2.8150    0.4220   -0.7990 o         1 SIN     -0.891300
      4 C2          0.5420    0.5260    0.0010 c3        1 SIN     -0.156400
      5 C3         -0.5410   -0.5240   -0.0440 c3        1 SIN     -0.156400
      6 C4         -1.9580    0.0500    0.0120 c         1 SIN      0.896600
      7 O3         -2.2810    0.8820    0.9150 o         1 SIN     -0.891300
      8 O4         -2.8110   -0.3560   -0.8420 o         1 SIN     -0.891300
      9 H21         0.4070    1.1450    0.9260 hc        1 SIN      0.021200
     10 H22         0.4400    1.2100   -0.8800 hc        1 SIN      0.021200
     11 H31        -0.4360   -1.1340   -0.9780 hc        1 SIN      0.021200
     12 H32        -0.4110   -1.2160    0.8280 hc        1 SIN      0.021200
@<TRIPOS>BOND
     1    1    2 1   
     2    1    3 1   
     3    1    4 1   
     4    4    5 1   
     5    4    9 1   
     6    4   10 1   
     7    5    6 1   
     8    5   11 1   
     9    5   12 1   
    10    6    7 1   
    11    6    8 1   
@<TRIPOS>SUBSTRUCTURE
     1 SIN         1 TEMP              0 ****  ****    0 ROOT
