@<TRIPOS>MOLECULE
SIN
   12    11     1     0     0
SMALL
bcc


@<TRIPOS>ATOM
      1 C1          0.0130   -0.0160    0.0530 c         1 SIN      0.896600
      2 O1          0.9160   -0.8820    0.2700 o         1 SIN     -0.891300
      3 O2         -0.3350    0.8100    0.9580 o         1 SIN     -0.891300
      4 C2         -0.7180    0.0240   -1.2890 c3        1 SIN     -0.156400
      5 C3          0.2050    0.0380   -2.4830 c3        1 SIN     -0.156400
      6 C4         -0.5250    0.0070   -3.8260 c         1 SIN      0.896600
      7 O3         -1.4170   -0.8670   -4.0550 o         1 SIN     -0.891300
      8 O4         -0.1890    0.8510   -4.7190 o         1 SIN     -0.891300
      9 H21        -1.3790   -0.8790   -1.3540 hc        1 SIN      0.021200
     10 H22        -1.3790    0.9280   -1.3130 hc        1 SIN      0.021200
     11 H31         0.8780   -0.8570   -2.4310 hc        1 SIN      0.021200
     12 H32         0.8540    0.9510   -2.4460 hc        1 SIN      0.021200
@<TRIPOS>BOND
     1    1    2 1   
     2    1    3 1   
     3    1    4 1   
     4    4    5 1   
     5    4    9 1   
     6    4   10 1   
     7    5    6 1   
     8    5   11 1   
     9    5   12 1   
    10    6    7 1   
    11    6    8 1   
@<TRIPOS>SUBSTRUCTURE
     1 SIN         1 TEMP              0 ****  ****    0 ROOT
