@<TRIPOS>MOLECULE
SIO
   52    52     1     0     0
SMALL
bcc


@<TRIPOS>ATOM
      1 OA4         3.5250   -0.8710    2.0020 o         1 SIO     -0.565000
      2 CA4         4.1640   -0.8190    0.9460 c         1 SIO      0.641100
      3 CM4         5.5140   -1.3970    0.6790 c3        1 SIO     -0.151100
      4 O4          3.6510   -0.1790   -0.1380 os        1 SIO     -0.433900
      5 C4          2.3970    0.5240   -0.0020 c3        1 SIO      0.142100
      6 C5          1.2320   -0.4170   -0.4190 c3        1 SIO      0.057700
      7 N5          1.1360   -1.5340    0.4880 n         1 SIO     -0.548900
      8 C10         0.7600   -2.8000    0.1190 c         1 SIO      0.664100
      9 O10         0.4890   -3.1020   -1.0670 o         1 SIO     -0.658100
     10 C11         0.6660   -3.8360    1.2170 c3        1 SIO     -0.177100
     11 C3          2.5010    1.7150   -0.9430 c3        1 SIO     -0.123400
     12 C2          1.1550    2.4490   -0.9720 c3        1 SIO      0.211600
     13 O2          1.0620    3.4310   -1.9770 os        1 SIO     -0.379600
     14 CM2         1.3580    3.0090   -3.2980 c3        1 SIO      0.115700
     15 C1          0.8630    3.1660    0.4070 c         1 SIO      0.932600
     16 O1         -0.2920    3.0430    0.8870 o         1 SIO     -0.803800
     17 O3          1.8360    3.7550    0.9380 o         1 SIO     -0.803800
     18 O6          0.1380    1.5240   -1.3850 os        1 SIO     -0.451600
     19 C6         -0.0610    0.4510   -0.4730 c3        1 SIO      0.110100
     20 C7         -1.2760   -0.3200   -1.0340 c3        1 SIO      0.125100
     21 O7         -1.9580    0.4260   -2.0230 oh        1 SIO     -0.606800
     22 C8         -2.2500   -0.7170    0.1020 c3        1 SIO      0.104100
     23 O8         -1.8310   -1.9200    0.7250 oh        1 SIO     -0.608800
     24 C9         -3.6780   -0.8820   -0.4290 c3        1 SIO      0.111400
     25 O9         -4.5370   -0.7260    0.7160 os        1 SIO     -0.427900
     26 CA9        -5.8380   -1.0980    0.5770 c         1 SIO      0.631100
     27 OA9        -6.2180   -1.5830   -0.4930 o         1 SIO     -0.562000
     28 CM9        -6.6450   -0.8450    1.8050 c3        1 SIO     -0.150100
     29 HM4         5.6690   -2.2900    1.3310 hc        1 SIO      0.067700
     30 HM4A        5.6110   -1.6890   -0.3940 hc        1 SIO      0.067700
     31 HM4B        6.2870   -0.6260    0.9170 hc        1 SIO      0.067700
     32 H4          2.2640    0.8800    1.0590 h1        1 SIO      0.103700
     33 H5          1.4370   -0.8150   -1.4570 h1        1 SIO      0.089700
     34 HN5         1.2750   -1.3320    1.4530 hn        1 SIO      0.330500
     35 H11        -0.2630   -3.6440    1.8090 hc        1 SIO      0.062700
     36 H11A        0.6040   -4.8490    0.7530 hc        1 SIO      0.062700
     37 H11B        1.5490   -3.7980    1.8980 hc        1 SIO      0.062700
     38 H3          3.2760    2.4300   -0.5630 hc        1 SIO      0.067700
     39 H3A         2.7910    1.3650   -1.9640 hc        1 SIO      0.067700
     40 HM2         0.8920    2.0240   -3.5370 h1        1 SIO      0.023367
     41 HM2A        0.9260    3.8130   -3.9460 h1        1 SIO      0.023367
     42 HM2B        2.4660    2.9570   -3.4430 h1        1 SIO      0.023367
     43 H6         -0.2870    0.8690    0.5510 h1        1 SIO      0.104700
     44 H7         -0.9300   -1.2530   -1.5690 h1        1 SIO      0.085700
     45 HO7        -1.9150    1.3640   -1.7810 ho        1 SIO      0.437000
     46 H8         -2.2410    0.0470    0.9310 h1        1 SIO      0.110700
     47 HO8        -1.7220   -2.5830    0.0290 ho        1 SIO      0.402000
     48 H9         -3.9430   -0.0860   -1.1720 h1        1 SIO      0.067700
     49 H9A        -3.8340   -1.8930   -0.8830 h1        1 SIO      0.067700
     50 HM9        -5.9900   -0.8320    2.7100 hc        1 SIO      0.070367
     51 HM9A       -7.1460    0.1480    1.7050 hc        1 SIO      0.070367
     52 HM9B       -7.4200   -1.6420    1.9080 hc        1 SIO      0.070367
@<TRIPOS>BOND
     1    1    2 2   
     2    2    3 1   
     3    2    4 1   
     4    3   29 1   
     5    3   30 1   
     6    3   31 1   
     7    4    5 1   
     8    5    6 1   
     9    5   11 1   
    10    5   32 1   
    11    6    7 1   
    12    6   19 1   
    13    6   33 1   
    14    7    8 1   
    15    7   34 1   
    16    8    9 2   
    17    8   10 1   
    18   10   35 1   
    19   10   36 1   
    20   10   37 1   
    21   11   12 1   
    22   11   38 1   
    23   11   39 1   
    24   12   13 1   
    25   12   15 1   
    26   12   18 1   
    27   13   14 1   
    28   14   40 1   
    29   14   41 1   
    30   14   42 1   
    31   15   16 1   
    32   15   17 1   
    33   18   19 1   
    34   19   20 1   
    35   19   43 1   
    36   20   21 1   
    37   20   22 1   
    38   20   44 1   
    39   21   45 1   
    40   22   23 1   
    41   22   24 1   
    42   22   46 1   
    43   23   47 1   
    44   24   25 1   
    45   24   48 1   
    46   24   49 1   
    47   25   26 1   
    48   26   27 2   
    49   26   28 1   
    50   28   50 1   
    51   28   51 1   
    52   28   52 1   
@<TRIPOS>SUBSTRUCTURE
     1 SIO         1 TEMP              0 ****  ****    0 ROOT
