@<TRIPOS>MOLECULE
SIS
   68    70     1     0     0
SMALL
bcc


@<TRIPOS>ATOM
      1 C11        -3.4300    0.7780    0.4180 c3        1 SIS      0.285900
      2 C12         0.7360   -2.5210    0.2260 c3        1 SIS      0.155500
      3 C13         2.6780    0.0560   -1.1670 c3        1 SIS      0.300900
      4 C21        -4.1140    1.6850    1.4800 c3        1 SIS      0.157500
      5 C22        -0.6530   -3.1490    0.0340 c3        1 SIS     -0.120400
      6 C23         4.1800   -0.2020   -0.9380 c3        1 SIS      0.095100
      7 C31        -5.0650    2.6070    0.6980 c3        1 SIS     -0.039200
      8 C32        -1.7100   -2.3640    0.8150 c3        1 SIS      0.171500
      9 C33         4.6800    0.5540    0.3200 c3        1 SIS      0.169500
     10 C41        -5.8840    1.8320   -0.2610 c2        1 SIS     -0.261200
     11 C42        -1.7620   -0.9240    0.2400 c3        1 SIS      0.109100
     12 C43         4.3450    2.0600    0.1000 c3        1 SIS      0.127800
     13 C51        -5.5300    0.6090   -0.6930 c2        1 SIS      0.029900
     14 C52        -0.3890   -0.2440    0.3100 c3        1 SIS      0.112100
     15 C53         2.8300    2.2000   -0.1180 c3        1 SIS      0.099400
     16 C61        -6.3490   -0.2540   -1.6210 c3        1 SIS      0.203000
     17 C62         0.7080   -1.0910   -0.3640 c3        1 SIS      0.121100
     18 C83         4.7480    2.9090    1.2970 c3        1 SIS     -0.114100
     19 N12         1.8260   -3.3130   -0.3110 n3        1 SIS     -0.907800
     20 N21        -4.7820    0.9850    2.5540 n3        1 SIS     -0.890800
     21 N32        -2.9940   -3.0380    0.8300 n3        1 SIS     -0.890800
     22 N33         6.0790    0.3730    0.6500 n3        1 SIS     -0.820200
     23 N61        -5.6900   -0.7370   -2.8030 n3        1 SIS     -0.896800
     24 O11        -2.6730   -0.2060    1.0830 os        1 SIS     -0.416600
     25 O23         4.4210   -1.5870   -0.8700 oh        1 SIS     -0.594800
     26 O43         5.0590    2.4650   -1.0640 oh        1 SIS     -0.593800
     27 O51        -4.3680   -0.0370   -0.3060 os        1 SIS     -0.386900
     28 O52        -0.5330    0.9940   -0.3700 oh        1 SIS     -0.618800
     29 O53         2.3450    1.4280   -1.2110 os        1 SIS     -0.433600
     30 O62         1.9540   -0.4580   -0.0610 os        1 SIS     -0.450600
     31 H1         -2.8180    1.3740   -0.3130 h2        1 SIS      0.087700
     32 H2          0.9360   -2.4240    1.3360 h1        1 SIS      0.077700
     33 H3          2.3410   -0.3630   -2.1560 h2        1 SIS      0.089700
     34 H4         -3.2960    2.3060    1.9490 h1        1 SIS      0.078700
     35 H5         -0.9170   -3.1710   -1.0550 hc        1 SIS      0.055200
     36 H6         -0.6390   -4.2090    0.4030 hc        1 SIS      0.055200
     37 H7          4.7430    0.1540   -1.8480 h1        1 SIS      0.103700
     38 H8         -5.7280    3.1660    1.4100 hc        1 SIS      0.064700
     39 H9         -4.4520    3.3670    0.1430 hc        1 SIS      0.064700
     40 H10        -1.3800   -2.2840    1.8940 h1        1 SIS      0.075700
     41 H11         4.0660    0.2010    1.2020 h1        1 SIS      0.074700
     42 H12        -6.8110    2.3040   -0.6140 ha        1 SIS      0.142000
     43 H13        -2.1290   -0.9300   -0.8220 h1        1 SIS      0.067700
     44 H14        -0.1070   -0.0510    1.3830 h1        1 SIS      0.064700
     45 H15         2.2890    1.9010    0.8180 h1        1 SIS      0.059200
     46 H16         2.5660    3.2540   -0.4030 h1        1 SIS      0.059200
     47 H17        -6.7020   -1.1480   -1.0290 h1        1 SIS      0.067700
     48 H18        -7.2550    0.3390   -1.9350 h1        1 SIS      0.067700
     49 H19         0.5240   -1.1240   -1.4730 h1        1 SIS      0.058700
     50 H20         4.3700    2.4470    2.2390 hc        1 SIS      0.050033
     51 H21         5.8600    2.9860    1.3540 hc        1 SIS      0.050033
     52 H22         4.3240    3.9380    1.2000 hc        1 SIS      0.050033
     53 H23         5.7670   -1.2440    1.9540 h1        1 SIS      0.035700
     54 H24         6.3990   -1.7340    0.3200 h1        1 SIS      0.035700
     55 H25         7.4970   -0.8810    1.5020 h1        1 SIS      0.035700
     56 H26         1.7630   -4.2560    0.0170 hn        1 SIS      0.354300
     57 H27         1.8190   -3.3090   -1.3110 hn        1 SIS      0.354300
     58 H29        -5.5660    0.4710    2.1990 hn        1 SIS      0.357300
     59 H30        -4.1450    0.3470    2.9910 hn        1 SIS      0.357300
     60 H32        -3.6610   -2.4680    1.3170 hn        1 SIS      0.355300
     61 H33        -3.3240   -3.1870   -0.1040 hn        1 SIS      0.355300
     62 H35         6.6520    0.6620   -0.1210 hn        1 SIS      0.375800
     63 H37        -5.3940    0.0210   -3.3860 hn        1 SIS      0.351800
     64 H38        -4.8890   -1.2880   -2.5620 hn        1 SIS      0.351800
     65 H40         3.9280   -1.9310   -0.1100 ho        1 SIS      0.429000
     66 H41         4.8580    3.3970   -1.2060 ho        1 SIS      0.404000
     67 H42         0.3490    1.3870   -0.4390 ho        1 SIS      0.428000
     68 C93         6.4450   -0.9380    1.1130 c3        1 SIS      0.150100
@<TRIPOS>BOND
     1    1    4 1   
     2    1   24 1   
     3    1   27 1   
     4    1   31 1   
     5    2    5 1   
     6    2   17 1   
     7    2   19 1   
     8    2   32 1   
     9    3    6 1   
    10    3   29 1   
    11    3   30 1   
    12    3   33 1   
    13    4    7 1   
    14    4   20 1   
    15    4   34 1   
    16    5    8 1   
    17    5   35 1   
    18    5   36 1   
    19    6    9 1   
    20    6   25 1   
    21    6   37 1   
    22    7   10 1   
    23    7   38 1   
    24    7   39 1   
    25    8   11 1   
    26    8   21 1   
    27    8   40 1   
    28    9   12 1   
    29    9   22 1   
    30    9   41 1   
    31   10   13 2   
    32   10   42 1   
    33   11   14 1   
    34   11   24 1   
    35   11   43 1   
    36   12   15 1   
    37   12   18 1   
    38   12   26 1   
    39   13   16 1   
    40   13   27 1   
    41   14   17 1   
    42   14   28 1   
    43   14   44 1   
    44   15   29 1   
    45   15   45 1   
    46   15   46 1   
    47   16   23 1   
    48   16   47 1   
    49   16   48 1   
    50   17   30 1   
    51   17   49 1   
    52   18   50 1   
    53   18   51 1   
    54   18   52 1   
    55   19   56 1   
    56   19   57 1   
    57   20   58 1   
    58   20   59 1   
    59   21   60 1   
    60   21   61 1   
    61   22   62 1   
    62   22   68 1   
    63   23   63 1   
    64   23   64 1   
    65   25   65 1   
    66   26   66 1   
    67   28   67 1   
    68   53   68 1   
    69   54   68 1   
    70   55   68 1   
@<TRIPOS>SUBSTRUCTURE
     1 SIS         1 TEMP              0 ****  ****    0 ROOT
