@<TRIPOS>MOLECULE
SJ1
   61    58     1     0     0
SMALL
bcc


@<TRIPOS>ATOM
      1 N1         -5.9130    5.7380    5.3220 n1        1 SJ1     -0.673800
      2 C2         -5.4420    6.7110    4.5800 c1        1 SJ1      0.534600
      3 N2         -5.4930    8.0430    5.0480 n2        1 SJ1     -0.785600
      4 N3         -4.8770    6.4230    3.2970 n3        1 SJ1     -0.689800
      5 C3         -3.8790    5.4540    3.1780 c3        1 SJ1      0.185800
      6 C4         -3.9180    4.8330    1.7310 c3        1 SJ1     -0.124400
      7 C5         -2.6460    4.0380    1.4920 c3        1 SJ1     -0.080400
      8 C6         -2.7380    3.3210    0.1590 c3        1 SJ1     -0.016300
      9 C7         -2.8480    4.3350   -0.9480 c         1 SJ1      0.556900
     10 O1         -3.8160    4.3020   -1.7260 o         1 SJ1     -0.522100
     11 N4         -1.5670    2.5250   -0.0400 n         1 SJ1     -0.569900
     12 C8         -1.6780    1.1750   -0.6900 c         1 SJ1      0.637100
     13 O2         -2.6970    0.5090   -0.5480 o         1 SJ1     -0.596100
     14 C9         -0.5560    0.6650   -1.5890 c3        1 SJ1      0.036700
     15 C10        -0.9500    0.8350   -3.0280 c3        1 SJ1     -0.100100
     16 N5         -0.3270   -0.7130   -1.3200 n         1 SJ1     -0.551900
     17 C11         0.8150   -1.3540   -1.8450 c         1 SJ1      0.629100
     18 O3          1.6140   -0.7240   -2.4930 o         1 SJ1     -0.632100
     19 C12         1.0270   -2.8580   -1.6130 c3        1 SJ1     -0.018300
     20 C13         0.1160   -3.6340   -2.5060 c3        1 SJ1      0.137400
     21 O4          0.0700   -4.9670   -2.0830 oh        1 SJ1     -0.587800
     22 N6          2.4030   -3.2040   -1.9070 n         1 SJ1     -0.504900
     23 C14         3.1130   -4.1210   -1.0580 c         1 SJ1      0.718100
     24 O5          2.6120   -4.4870    0.0160 o         1 SJ1     -0.572000
     25 O6          4.4110   -4.5760   -1.4300 os        1 SJ1     -0.439900
     26 C15         4.9840   -5.5340   -0.5050 c3        1 SJ1      0.148400
     27 C16         6.4080   -5.8800   -0.9460 c3        1 SJ1     -0.071700
     28 C17         7.3100   -5.8430    0.2210 c3        1 SJ1     -0.095600
     29 C18         6.4240   -7.2790   -1.5530 c3        1 SJ1     -0.095600
     30 H1         -6.2810    5.9240    6.1570 DU        1 SJ1      0.146000
     31 H2N1       -5.1000    8.7200    4.5590 hn        1 SJ1      0.391300
     32 H2N2       -5.9200    8.2340    5.8240 hn        1 SJ1      0.391300
     33 H3         -5.1160    6.9100    2.5820 hn        1 SJ1      0.390800
     34 H3C1       -2.9990    5.8680    3.3330 h1        1 SJ1      0.061700
     35 H3C2       -4.0280    4.7460    3.8420 h1        1 SJ1      0.061700
     36 H4C1       -3.9860    5.5540    1.0650 hc        1 SJ1      0.066200
     37 H4C2       -4.6860    4.2480    1.6520 hc        1 SJ1      0.066200
     38 H5C1       -1.8810    4.6460    1.4820 hc        1 SJ1      0.051700
     39 H5C2       -2.5330    3.3860    2.2060 hc        1 SJ1      0.051700
     40 H6         -3.5440    2.7340    0.1540 h1        1 SJ1      0.115700
     41 H7         -2.1670    5.0390   -1.0390 h4        1 SJ1      0.001200
     42 H4         -0.7460    2.8260    0.2650 hn        1 SJ1      0.336500
     43 H9          0.2660    1.1750   -1.4120 h1        1 SJ1      0.088700
     44 H101       -1.7500    1.4140   -3.0840 hc        1 SJ1      0.058700
     45 H102       -1.1530   -0.0420   -3.4170 hc        1 SJ1      0.058700
     46 H103       -0.2080    1.2510   -3.5250 hc        1 SJ1      0.058700
     47 H5         -0.8940   -1.1720   -0.7580 hn        1 SJ1      0.330500
     48 H12         0.8290   -3.0760   -0.6760 h1        1 SJ1      0.116700
     49 H131        0.4440   -3.5950   -3.4120 h1        1 SJ1      0.063700
     50 H132       -0.7760   -3.2530   -2.4690 h1        1 SJ1      0.063700
     51 HB         -0.4910   -5.4060   -2.5740 ho        1 SJ1      0.415000
     52 HA          2.7870   -2.8970   -2.6390 hn        1 SJ1      0.324500
     53 H151        4.4420   -6.3420   -0.4990 h1        1 SJ1      0.062200
     54 H152        5.0040   -5.1490    0.3920 h1        1 SJ1      0.062200
     55 H16         6.7170   -5.2140   -1.6280 hc        1 SJ1      0.062700
     56 H171        6.9560   -6.4310    0.9290 hc        1 SJ1      0.040867
     57 H172        8.1930   -6.1500   -0.0430 hc        1 SJ1      0.040867
     58 H173        7.3710   -4.9360    0.5540 hc        1 SJ1      0.040867
     59 H181        7.3410   -7.4980   -1.8520 hc        1 SJ1      0.040867
     60 H182        5.8170   -7.3110   -2.3150 hc        1 SJ1      0.040867
     61 H183        6.1320   -7.9400   -0.8690 hc        1 SJ1      0.040867
@<TRIPOS>BOND
     1    1    2 3   
     2    2    4 1   
     3    3   31 1   
     4    3   32 1   
     5    4    5 1   
     6    4   33 1   
     7    5    6 1   
     8    5   34 1   
     9    5   35 1   
    10    6    7 1   
    11    6   36 1   
    12    6   37 1   
    13    7    8 1   
    14    7   38 1   
    15    7   39 1   
    16    8    9 1   
    17    8   11 1   
    18    8   40 1   
    19    9   10 2   
    20    9   41 1   
    21   11   12 1   
    22   11   42 1   
    23   12   13 2   
    24   12   14 1   
    25   14   15 1   
    26   14   16 1   
    27   14   43 1   
    28   15   44 1   
    29   15   45 1   
    30   15   46 1   
    31   16   17 1   
    32   16   47 1   
    33   17   18 2   
    34   17   19 1   
    35   19   20 1   
    36   19   22 1   
    37   19   48 1   
    38   20   21 1   
    39   20   49 1   
    40   20   50 1   
    41   21   51 1   
    42   22   23 1   
    43   22   52 1   
    44   23   24 2   
    45   23   25 1   
    46   25   26 1   
    47   26   27 1   
    48   26   53 1   
    49   26   54 1   
    50   27   28 1   
    51   27   29 1   
    52   27   55 1   
    53   28   56 1   
    54   28   57 1   
    55   28   58 1   
    56   29   59 1   
    57   29   60 1   
    58   29   61 1   
@<TRIPOS>SUBSTRUCTURE
     1 SJ1         1 TEMP              0 ****  ****    0 ROOT
