@<TRIPOS>MOLECULE
SJ1
   66    65     1     0     0
SMALL
bcc


@<TRIPOS>ATOM
      1 N1          3.5580    0.2710    2.6340 n2        1 SJ1     -0.594100
      2 C2          3.9520    1.3880    2.1780 c2        1 SJ1      0.622100
      3 N2          4.2430    2.6470    2.9670 nz        1 SJ1     -0.865600
      4 N3          4.1710    1.5410    0.6840 ny        1 SJ1     -0.744000
      5 C3          3.9110    0.2730   -0.1130 c3        1 SJ1      0.123800
      6 C4          4.1520    0.4600   -1.6180 c3        1 SJ1     -0.109400
      7 C5          3.8740   -0.8620   -2.3340 c3        1 SJ1     -0.097400
      8 C6          4.1240   -0.7630   -3.8510 c3        1 SJ1     -0.010500
      9 C7          5.6360   -0.7940   -4.1570 c         1 SJ1      0.583900
     10 O1          6.0680   -1.5130   -5.0490 o         1 SJ1     -0.477100
     11 N4          3.3970   -1.8630   -4.6130 ny        1 SJ1     -0.658800
     12 C8          3.5330   -1.7360   -6.1120 c         1 SJ1      0.529100
     13 O2          3.5830   -0.6110   -6.5840 o         1 SJ1     -0.377100
     14 C9          3.5450   -3.0380   -6.9410 c3        1 SJ1      0.088500
     15 C10         4.5420   -4.0410   -6.3690 c3        1 SJ1     -0.169100
     16 N5          3.8390   -2.7410   -8.3990 ny        1 SJ1     -0.681800
     17 C11         3.0860   -3.6310   -9.3790 c         1 SJ1      0.550100
     18 O3          2.2840   -4.4200   -8.9120 o         1 SJ1     -0.375100
     19 C12         3.3830   -3.4280  -10.8760 c3        1 SJ1      0.062500
     20 C13         4.8940   -3.1930  -11.1370 c3        1 SJ1      0.106400
     21 O4          5.5920   -3.9850  -10.2000 oh        1 SJ1     -0.674800
     22 N6          2.8390   -4.5630  -11.6840 ny        1 SJ1     -0.689800
     23 C14         2.1860   -4.0740  -13.0210 c         1 SJ1      0.649100
     24 O5          1.7630   -2.9340  -13.0630 o         1 SJ1     -0.411000
     25 O6          2.2320   -5.0590  -13.8910 os        1 SJ1     -0.380900
     26 C15         1.5520   -4.8260  -15.2260 c3        1 SJ1      0.182400
     27 C16         2.0760   -5.9590  -16.0880 c3        1 SJ1     -0.082700
     28 C17         1.0460   -6.2340  -17.1720 c3        1 SJ1     -0.104600
     29 C18         3.4200   -5.6150  -16.6920 c3        1 SJ1     -0.104600
     30 H1          3.3760    0.0430    3.6010 hn        1 SJ1      0.569400
     31 H2N1        4.0590    2.4740    3.9780 hn        1 SJ1      0.514467
     32 H2N2        3.6340    3.4320    2.6780 hn        1 SJ1      0.514467
     33 H3          3.5390    2.2800    0.3340 hn        1 SJ1      0.487800
     34 H3C1        2.8360   -0.0310    0.0690 hx        1 SJ1      0.144700
     35 H3C2        4.5960   -0.5320    0.2900 hx        1 SJ1      0.144700
     36 H4C1        5.2140    0.7760   -1.8040 hc        1 SJ1      0.091700
     37 H4C2        3.4750    1.2580   -2.0280 hc        1 SJ1      0.091700
     38 H5C1        4.5310   -1.6680   -1.9030 hc        1 SJ1      0.097700
     39 H5C2        2.8050   -1.1520   -2.1350 hc        1 SJ1      0.097700
     40 H6          3.7210    0.2240   -4.2460 hx        1 SJ1      0.157700
     41 H7          6.2500   -0.1100   -3.5350 h4        1 SJ1      0.097200
     42 H4          3.7810   -2.7730   -4.3170 hn        1 SJ1      0.486800
     43 H9          2.4910   -3.4750   -6.8890 hx        1 SJ1      0.175700
     44 H101        5.5210   -3.5600   -6.1120 hc        1 SJ1      0.119700
     45 H102        4.1080   -4.5340   -5.4600 hc        1 SJ1      0.119700
     46 H103        4.7470   -4.8750   -7.0950 hc        1 SJ1      0.119700
     47 H5          4.8580   -2.8990   -8.5670 hn        1 SJ1      0.503300
     48 H12         2.8160   -2.4840  -11.1990 hx        1 SJ1      0.195700
     49 H131        5.1730   -3.4390  -12.2000 h1        1 SJ1      0.115700
     50 H132        5.1260   -2.1050  -10.9580 h1        1 SJ1      0.115700
     51 HB          6.4490   -4.2530  -10.5770 ho        1 SJ1      0.505000
     52 HA          3.5870   -5.2350  -11.9160 hn        1 SJ1      0.490300
     53 H151        1.8540   -3.8090  -15.5770 h1        1 SJ1      0.099700
     54 H152        0.4570   -4.8970  -15.0080 h1        1 SJ1      0.099700
     55 H16         2.1820   -6.8840  -15.4510 hc        1 SJ1      0.082700
     56 H171        0.8790   -5.3290  -17.8040 hc        1 SJ1      0.065200
     57 H172        1.4220   -7.0570  -17.8300 hc        1 SJ1      0.065200
     58 H173        0.0720   -6.5540  -16.7280 hc        1 SJ1      0.065200
     59 H181        3.8010   -6.4840  -17.2850 hc        1 SJ1      0.065200
     60 H182        4.1610   -5.3800  -15.8910 hc        1 SJ1      0.065200
     61 H183        3.3380   -4.7380  -17.3800 hc        1 SJ1      0.065200
     62 H23         5.2340    2.9320    2.8820 hn        1 SJ1      0.514467
     63 H32         5.1510    1.8290    0.5240 hn        1 SJ1      0.487800
     64 H42         2.3940   -1.8270   -4.3710 hn        1 SJ1      0.486800
     65 H52         3.6230   -1.7560   -8.6180 hn        1 SJ1      0.503300
     66 H62         2.1020   -5.0720  -11.1730 hn        1 SJ1      0.490300
@<TRIPOS>BOND
     1    1    2 2   
     2    1   30 1   
     3    2    3 1   
     4    2    4 1   
     5    3   31 1   
     6    3   32 1   
     7    3   62 1   
     8    4    5 1   
     9    4   33 1   
    10    4   63 1   
    11    5    6 1   
    12    5   34 1   
    13    5   35 1   
    14    6    7 1   
    15    6   36 1   
    16    6   37 1   
    17    7    8 1   
    18    7   38 1   
    19    7   39 1   
    20    8    9 1   
    21    8   11 1   
    22    8   40 1   
    23    9   10 2   
    24    9   41 1   
    25   11   12 1   
    26   11   42 1   
    27   11   64 1   
    28   12   13 2   
    29   12   14 1   
    30   14   15 1   
    31   14   16 1   
    32   14   43 1   
    33   15   44 1   
    34   15   45 1   
    35   15   46 1   
    36   16   17 1   
    37   16   47 1   
    38   16   65 1   
    39   17   18 2   
    40   17   19 1   
    41   19   20 1   
    42   19   22 1   
    43   19   48 1   
    44   20   21 1   
    45   20   49 1   
    46   20   50 1   
    47   21   51 1   
    48   22   23 1   
    49   22   52 1   
    50   22   66 1   
    51   23   24 2   
    52   23   25 1   
    53   25   26 1   
    54   26   27 1   
    55   26   53 1   
    56   26   54 1   
    57   27   28 1   
    58   27   29 1   
    59   27   55 1   
    60   28   56 1   
    61   28   57 1   
    62   28   58 1   
    63   29   59 1   
    64   29   60 1   
    65   29   61 1   
@<TRIPOS>SUBSTRUCTURE
     1 SJ1         1 TEMP              0 ****  ****    0 ROOT
