@<TRIPOS>MOLECULE
SJ1
   66    65     1     0     0
SMALL
bcc


@<TRIPOS>ATOM
      1 N1          2.9110   -0.5440    1.9940 n2        1 SJ1     -0.594100
      2 C2          2.5860    0.6040    1.5620 c2        1 SJ1      0.622100
      3 N2          2.1000    1.7850    2.3750 n4        1 SJ1     -0.865600
      4 N3          2.6720    0.8840    0.0720 n4        1 SJ1     -0.744000
      5 C3          3.1970   -0.2820   -0.7480 c3        1 SJ1      0.123800
      6 C4          3.2830    0.0400   -2.2480 c3        1 SJ1     -0.109400
      7 C5          3.8340   -1.1790   -2.9870 c3        1 SJ1     -0.097400
      8 C6          3.9800   -0.9240   -4.5000 c3        1 SJ1     -0.010500
      9 C7          5.2060   -0.0300   -4.7800 c         1 SJ1      0.581900
     10 O1          6.0210   -0.3480   -5.6360 o         1 SJ1     -0.473100
     11 N4          4.0690   -2.2270   -5.2820 n4        1 SJ1     -0.658800
     12 C8          4.0720   -2.0270   -6.7800 c         1 SJ1      0.528100
     13 O2          3.4320   -1.0910   -7.2290 o         1 SJ1     -0.373100
     14 C9          4.8520   -3.0530   -7.6280 c3        1 SJ1      0.089500
     15 C10         6.2660   -3.2410   -7.0870 c3        1 SJ1     -0.173100
     16 N5          4.8730   -2.6420   -9.0860 n4        1 SJ1     -0.676800
     17 C11         4.8060   -3.8150  -10.0530 c         1 SJ1      0.560100
     18 O3          4.2660   -4.8370   -9.6730 o         1 SJ1     -0.365100
     19 C12         5.4730   -3.5850  -11.4190 c3        1 SJ1      0.063500
     20 C13         6.9870   -3.9390  -11.2700 c3        1 SJ1      0.123400
     21 O4          7.4300   -3.1350  -10.1950 oh        1 SJ1     -0.671800
     22 N6          4.8020   -4.3840  -12.4860 n4        1 SJ1     -0.674800
     23 C14         3.3620   -3.8870  -12.7200 c         1 SJ1      0.667100
     24 O5          2.8340   -3.2850  -11.7920 o         1 SJ1     -0.502000
     25 O6          2.9830   -4.1820  -13.9420 os        1 SJ1     -0.352900
     26 C15         1.5730   -3.8980  -14.3550 c3        1 SJ1      0.170400
     27 C16         0.6380   -4.9600  -13.8170 c3        1 SJ1     -0.097700
     28 C17        -0.7870   -4.5350  -14.1280 c3        1 SJ1     -0.106100
     29 C18         0.9320   -6.3170  -14.4180 c3        1 SJ1     -0.106100
     30 H1          2.8970   -0.8530    2.9550 hn        1 SJ1      0.569400
     31 H2N1        2.0510    1.5170    3.3810 hn        1 SJ1      0.514467
     32 H2N2        1.1510    2.0820    2.0930 hn        1 SJ1      0.514467
     33 H3          1.7260    1.1210   -0.2700 hn        1 SJ1      0.487800
     34 H3C1        4.2230   -0.5460   -0.3520 hx        1 SJ1      0.144700
     35 H3C2        2.5010   -1.1590   -0.5830 hx        1 SJ1      0.144700
     36 H4C1        2.2670    0.2960   -2.6520 hc        1 SJ1      0.091200
     37 H4C2        3.9570    0.9220   -2.4160 hc        1 SJ1      0.091200
     38 H5C1        3.1370   -2.0450   -2.8060 hc        1 SJ1      0.096700
     39 H5C2        4.8380   -1.4550   -2.5600 hc        1 SJ1      0.096700
     40 H6          3.0640   -0.3750   -4.8890 hx        1 SJ1      0.156700
     41 H7          5.2500    0.8970   -4.1720 h4        1 SJ1      0.095200
     42 H4          4.9380   -2.7110   -5.0090 hn        1 SJ1      0.486300
     43 H9          4.2770   -4.0390   -7.5670 hx        1 SJ1      0.174700
     44 H101        6.2510   -3.9580   -6.2260 hc        1 SJ1      0.120033
     45 H102        6.9470   -3.6970   -7.8600 hc        1 SJ1      0.120033
     46 H103        6.7250   -2.2690   -6.7690 hc        1 SJ1      0.120033
     47 H5          4.0750   -2.0170   -9.2990 hn        1 SJ1      0.503800
     48 H12         5.3840   -2.4920  -11.7180 hx        1 SJ1      0.159700
     49 H131        7.5310   -3.7020  -12.2260 h1        1 SJ1      0.119200
     50 H132        7.1240   -5.0240  -11.0020 h1        1 SJ1      0.119200
     51 HB          8.3560   -2.8800  -10.3640 ho        1 SJ1      0.505000
     52 HA          4.7630   -5.3860  -12.2370 hn        1 SJ1      0.506800
     53 H151        1.7170   -3.9600  -15.4740 h1        1 SJ1      0.122700
     54 H152        1.3190   -2.8660  -14.0110 h1        1 SJ1      0.122700
     55 H16         0.7670   -5.0100  -12.6980 hc        1 SJ1      0.040700
     56 H171       -0.9430   -4.4400  -15.2310 hc        1 SJ1      0.066867
     57 H172       -1.0280   -3.5580  -13.6430 hc        1 SJ1      0.066867
     58 H173       -1.4960   -5.3100  -13.7440 hc        1 SJ1      0.066867
     59 H181        1.9960   -6.6040  -14.2410 hc        1 SJ1      0.066867
     60 H182        0.7420   -6.3150  -15.5200 hc        1 SJ1      0.066867
     61 H183        0.2700   -7.0910  -13.9570 hc        1 SJ1      0.066867
     62 H23         2.7470    2.5900    2.3060 hn        1 SJ1      0.514467
     63 H32         3.2990    1.6920   -0.0750 hn        1 SJ1      0.487800
     64 H42         3.2610   -2.8190   -5.0330 hn        1 SJ1      0.486300
     65 H52         5.7610   -2.1310   -9.2700 hn        1 SJ1      0.503800
     66 H62         5.3380   -4.2980  -13.3700 hn        1 SJ1      0.506800
@<TRIPOS>BOND
     1    1    2 2   
     2    1   30 1   
     3    2    3 1   
     4    2    4 1   
     5    3   31 1   
     6    3   32 1   
     7    3   62 1   
     8    4    5 1   
     9    4   33 1   
    10    4   63 1   
    11    5    6 1   
    12    5   34 1   
    13    5   35 1   
    14    6    7 1   
    15    6   36 1   
    16    6   37 1   
    17    7    8 1   
    18    7   38 1   
    19    7   39 1   
    20    8    9 1   
    21    8   11 1   
    22    8   40 1   
    23    9   10 2   
    24    9   41 1   
    25   11   12 1   
    26   11   42 1   
    27   11   64 1   
    28   12   13 2   
    29   12   14 1   
    30   14   15 1   
    31   14   16 1   
    32   14   43 1   
    33   15   44 1   
    34   15   45 1   
    35   15   46 1   
    36   16   17 1   
    37   16   47 1   
    38   16   65 1   
    39   17   18 2   
    40   17   19 1   
    41   19   20 1   
    42   19   22 1   
    43   19   48 1   
    44   20   21 1   
    45   20   49 1   
    46   20   50 1   
    47   21   51 1   
    48   22   23 1   
    49   22   52 1   
    50   22   66 1   
    51   23   24 2   
    52   23   25 1   
    53   25   26 1   
    54   26   27 1   
    55   26   53 1   
    56   26   54 1   
    57   27   28 1   
    58   27   29 1   
    59   27   55 1   
    60   28   56 1   
    61   28   57 1   
    62   28   58 1   
    63   29   59 1   
    64   29   60 1   
    65   29   61 1   
@<TRIPOS>SUBSTRUCTURE
     1 SJ1         1 TEMP              0 ****  ****    0 ROOT
