@<TRIPOS>MOLECULE
SJ1
   66    65     1     0     0
SMALL
bcc


@<TRIPOS>ATOM
      1 N1          3.0730    0.1140    2.0990 n2        1 SJ1     -0.594100
      2 C2          2.8440    1.2460    1.5710 c2        1 SJ1      0.622100
      3 N2          2.4700    2.5280    2.2830 n4        1 SJ1     -0.865600
      4 N3          2.9360    1.3910    0.0630 n4        1 SJ1     -0.744000
      5 C3          3.3500    0.1180   -0.6570 c3        1 SJ1      0.123800
      6 C4          3.4460    0.3030   -2.1790 c3        1 SJ1     -0.109400
      7 C5          3.8830   -1.0170   -2.8130 c3        1 SJ1     -0.097400
      8 C6          4.0330   -0.9050   -4.3430 c3        1 SJ1     -0.010500
      9 C7          5.3250   -0.1430   -4.7040 c         1 SJ1      0.581900
     10 O1          6.1050   -0.6020   -5.5280 o         1 SJ1     -0.473100
     11 N4          4.0060   -2.2730   -5.0100 n4        1 SJ1     -0.659800
     12 C8          4.0010   -2.2040   -6.5200 c         1 SJ1      0.528100
     13 O2          3.4340   -1.2600   -7.0440 o         1 SJ1     -0.373100
     14 C9          4.6810   -3.3630   -7.2800 c3        1 SJ1      0.088500
     15 C10         6.0860   -3.6130   -6.7410 c3        1 SJ1     -0.173100
     16 N5          4.7050   -3.0890   -8.7690 n4        1 SJ1     -0.675800
     17 C11         4.5240   -4.3360   -9.6220 c         1 SJ1      0.562100
     18 O3          3.9200   -5.2750   -9.1380 o         1 SJ1     -0.366100
     19 C12         5.1710   -4.2830  -11.0160 c3        1 SJ1      0.064500
     20 C13         6.6490   -4.7610  -10.8660 c3        1 SJ1      0.123400
     21 O4          7.1860   -3.9170   -9.8680 oh        1 SJ1     -0.671800
     22 N6          4.3970   -5.1020  -11.9950 n4        1 SJ1     -0.673800
     23 C14         2.9850   -4.5180  -12.1960 c         1 SJ1      0.666100
     24 O5          2.5770   -3.7610  -11.3180 o         1 SJ1     -0.515000
     25 O6          2.4680   -4.9500  -13.3170 os        1 SJ1     -0.359900
     26 C15         1.0650   -4.5110  -13.6800 c3        1 SJ1      0.184400
     27 C16         0.9550   -4.8840  -15.1470 c3        1 SJ1     -0.083700
     28 C17        -0.5080   -5.1620  -15.4510 c3        1 SJ1     -0.105600
     29 C18         1.4990   -3.7880  -16.0360 c3        1 SJ1     -0.105600
     30 H1          3.0430   -0.1100    3.0830 hn        1 SJ1      0.569400
     31 H2N1        1.5460    2.8820    1.9810 hn        1 SJ1      0.514467
     32 H2N2        2.4110    2.3520    3.3090 hn        1 SJ1      0.514467
     33 H3          2.0100    1.6790   -0.2950 hn        1 SJ1      0.487800
     34 H3C1        4.3540   -0.1990   -0.2440 hx        1 SJ1      0.144700
     35 H3C2        2.5830   -0.6780   -0.4150 hx        1 SJ1      0.144700
     36 H4C1        4.1910    1.1070   -2.4240 hc        1 SJ1      0.091200
     37 H4C2        2.4510    0.6110   -2.6000 hc        1 SJ1      0.091200
     38 H5C1        3.1180   -1.8010   -2.5560 hc        1 SJ1      0.096700
     39 H5C2        4.8650   -1.3400   -2.3690 hc        1 SJ1      0.096700
     40 H6          3.1600   -0.3170   -4.7750 hx        1 SJ1      0.156700
     41 H7          5.4470    0.8300   -4.1830 h4        1 SJ1      0.095200
     42 H4          4.8380   -2.8000   -4.7030 hn        1 SJ1      0.486300
     43 H9          4.0320   -4.2890   -7.1200 hx        1 SJ1      0.174700
     44 H101        6.0320   -4.2450   -5.8170 hc        1 SJ1      0.120033
     45 H102        6.6270   -2.6560   -6.5200 hc        1 SJ1      0.120033
     46 H103        6.7130   -4.1900   -7.4780 hc        1 SJ1      0.120033
     47 H5          3.9560   -2.4240   -9.0300 hn        1 SJ1      0.503300
     48 H12         5.1720   -3.2150  -11.4060 hx        1 SJ1      0.159700
     49 H131        7.1890   -4.6490  -11.8480 h1        1 SJ1      0.119200
     50 H132        6.6960   -5.8290  -10.5150 h1        1 SJ1      0.119200
     51 HB          8.1300   -3.7740  -10.0630 ho        1 SJ1      0.504000
     52 HA          4.3030   -6.0800  -11.6760 hn        1 SJ1      0.506300
     53 H151        1.0030   -3.4140  -13.4810 h1        1 SJ1      0.094200
     54 H152        0.3960   -5.1100  -13.0120 h1        1 SJ1      0.094200
     55 H16         1.5430   -5.8310  -15.3280 hc        1 SJ1      0.090700
     56 H171       -0.8900   -6.0170  -14.8440 hc        1 SJ1      0.066367
     57 H172       -1.1360   -4.2600  -15.2530 hc        1 SJ1      0.066367
     58 H173       -0.6080   -5.4270  -16.5350 hc        1 SJ1      0.066367
     59 H181        0.8980   -2.8510  -15.9310 hc        1 SJ1      0.066367
     60 H182        1.4490   -4.1110  -17.1060 hc        1 SJ1      0.066367
     61 H183        2.5630   -3.5670  -15.7830 hc        1 SJ1      0.066367
     62 H23         3.1820    3.2660    2.1420 hn        1 SJ1      0.514467
     63 H32         3.6280    2.1260   -0.1550 hn        1 SJ1      0.487800
     64 H42         3.1580   -2.7750   -4.7030 hn        1 SJ1      0.486300
     65 H52         5.6280   -2.6720   -9.0120 hn        1 SJ1      0.503300
     66 H62         4.8910   -5.1120  -12.9060 hn        1 SJ1      0.506300
@<TRIPOS>BOND
     1    1    2 2   
     2    1   30 1   
     3    2    3 1   
     4    2    4 1   
     5    3   31 1   
     6    3   32 1   
     7    3   62 1   
     8    4    5 1   
     9    4   33 1   
    10    4   63 1   
    11    5    6 1   
    12    5   34 1   
    13    5   35 1   
    14    6    7 1   
    15    6   36 1   
    16    6   37 1   
    17    7    8 1   
    18    7   38 1   
    19    7   39 1   
    20    8    9 1   
    21    8   11 1   
    22    8   40 1   
    23    9   10 2   
    24    9   41 1   
    25   11   12 1   
    26   11   42 1   
    27   11   64 1   
    28   12   13 2   
    29   12   14 1   
    30   14   15 1   
    31   14   16 1   
    32   14   43 1   
    33   15   44 1   
    34   15   45 1   
    35   15   46 1   
    36   16   17 1   
    37   16   47 1   
    38   16   65 1   
    39   17   18 2   
    40   17   19 1   
    41   19   20 1   
    42   19   22 1   
    43   19   48 1   
    44   20   21 1   
    45   20   49 1   
    46   20   50 1   
    47   21   51 1   
    48   22   23 1   
    49   22   52 1   
    50   22   66 1   
    51   23   24 2   
    52   23   25 1   
    53   25   26 1   
    54   26   27 1   
    55   26   53 1   
    56   26   54 1   
    57   27   28 1   
    58   27   29 1   
    59   27   55 1   
    60   28   56 1   
    61   28   57 1   
    62   28   58 1   
    63   29   59 1   
    64   29   60 1   
    65   29   61 1   
@<TRIPOS>SUBSTRUCTURE
     1 SJ1         1 TEMP              0 ****  ****    0 ROOT
