@<TRIPOS>MOLECULE
SJ1
   61    60     1     0     0
SMALL
bcc


@<TRIPOS>ATOM
      1 N1         -3.6640   -5.0400    0.3530 n2        1 SJ1     -0.869100
      2 C2         -4.6090   -4.2620   -0.1130 c2        1 SJ1      0.739100
      3 N2         -6.0090   -4.5580   -0.0960 nh        1 SJ1     -0.929800
      4 N3         -4.2450   -2.9850   -0.6890 nh        1 SJ1     -0.790200
      5 C3         -4.9410   -1.8410   -0.1260 c3        1 SJ1      0.170800
      6 C4         -4.1970   -0.5220   -0.3440 c3        1 SJ1     -0.090400
      7 C5         -5.0190    0.6200    0.2090 c3        1 SJ1     -0.079400
      8 C6         -4.3780    1.9850   -0.1010 c3        1 SJ1     -0.020300
      9 C7         -5.4400    3.0460    0.1820 c         1 SJ1      0.545900
     10 O1         -5.3660    3.8730    1.0880 o         1 SJ1     -0.519100
     11 N4         -3.1390    2.2030    0.6030 n         1 SJ1     -0.546900
     12 C8         -1.9890    2.6010   -0.0460 c         1 SJ1      0.635100
     13 O2         -1.9110    2.6280   -1.2910 o         1 SJ1     -0.615100
     14 C9         -0.7870    3.0010    0.8500 c3        1 SJ1      0.037700
     15 C10        -0.9490    4.4910    1.1590 c3        1 SJ1     -0.108100
     16 N5          0.4660    2.6930    0.2060 n         1 SJ1     -0.553900
     17 C11         1.3180    1.7220    0.7040 c         1 SJ1      0.668100
     18 O3          1.1280    1.1900    1.8120 o         1 SJ1     -0.586100
     19 C12         2.5450    1.3960   -0.1780 c3        1 SJ1      0.039700
     20 C13         3.5490    2.5680   -0.0960 c3        1 SJ1      0.097400
     21 O4          3.9900    2.6800    1.2440 oh        1 SJ1     -0.595800
     22 N6          3.0870    0.1040    0.1760 n         1 SJ1     -0.503900
     23 C14         4.1040   -0.4150   -0.6090 c         1 SJ1      0.731100
     24 O5          4.4320   -0.0710   -1.7580 o         1 SJ1     -0.598000
     25 O6          4.7500   -1.4780   -0.0150 os        1 SJ1     -0.434900
     26 C15         5.6850   -2.1700   -0.8670 c3        1 SJ1      0.152400
     27 C16         6.2430   -3.3180   -0.0310 c3        1 SJ1     -0.073700
     28 C17         6.9000   -4.3270   -0.9480 c3        1 SJ1     -0.091600
     29 C18         7.2220   -2.8040    1.0020 c3        1 SJ1     -0.091600
     30 H1         -3.9500   -5.9490    0.6420 hn        1 SJ1      0.392400
     31 H2N1       -6.2100   -5.5300   -0.1880 hn        1 SJ1      0.391300
     32 H2N2       -6.5670   -4.0000   -0.7050 hn        1 SJ1      0.391300
     33 H3         -3.2480   -2.8550   -0.6770 hn        1 SJ1      0.406800
     34 H3C1       -5.1330   -1.9640    0.9790 h1        1 SJ1      0.040700
     35 H3C2       -5.9460   -1.7770   -0.6360 h1        1 SJ1      0.040700
     36 H4C1       -4.0100   -0.3610   -1.4380 hc        1 SJ1      0.061700
     37 H4C2       -3.1990   -0.5570    0.1660 hc        1 SJ1      0.061700
     38 H5C1       -5.1480    0.4970    1.3160 hc        1 SJ1      0.051700
     39 H5C2       -6.0410    0.6060   -0.2550 hc        1 SJ1      0.051700
     40 H6         -4.1560    2.0280   -1.2150 h1        1 SJ1      0.111700
     41 H7         -6.3090    3.0050   -0.5120 h4        1 SJ1      0.007200
     42 H4         -3.2080    2.3360    1.5860 hn        1 SJ1      0.320500
     43 H9         -0.8250    2.4230    1.8250 h1        1 SJ1      0.105700
     44 H101       -0.1220    4.8390    1.8230 hc        1 SJ1      0.054700
     45 H102       -0.9380    5.0990    0.2230 hc        1 SJ1      0.054700
     46 H103       -1.9220    4.6520    1.6820 hc        1 SJ1      0.054700
     47 H5          0.5410    2.9630   -0.7490 hn        1 SJ1      0.324500
     48 H12         2.2250    1.3270   -1.2640 h1        1 SJ1      0.096700
     49 H131        4.4160    2.3570   -0.7800 h1        1 SJ1      0.047200
     50 H132        3.0430    3.5170   -0.4180 h1        1 SJ1      0.047200
     51 HB          4.6730    3.3610    1.2550 ho        1 SJ1      0.409000
     52 HA          3.0920   -0.1200    1.1510 hn        1 SJ1      0.344500
     53 H151        6.4850   -1.4520   -1.1820 h1        1 SJ1      0.055700
     54 H152        5.1390   -2.5440   -1.7710 h1        1 SJ1      0.055700
     55 H16         5.3830   -3.8120    0.5040 hc        1 SJ1      0.067700
     56 H171        7.3300   -5.1640   -0.3470 hc        1 SJ1      0.038367
     57 H172        6.1570   -4.7490   -1.6660 hc        1 SJ1      0.038367
     58 H173        7.7250   -3.8500   -1.5310 hc        1 SJ1      0.038367
     59 H181        6.7300   -2.0330    1.6430 hc        1 SJ1      0.038367
     60 H182        7.5730   -3.6420    1.6510 hc        1 SJ1      0.038367
     61 H183        8.1110   -2.3430    0.5080 hc        1 SJ1      0.038367
@<TRIPOS>BOND
     1    1    2 2   
     2    1   30 1   
     3    2    3 1   
     4    2    4 1   
     5    3   31 1   
     6    3   32 1   
     7    4    5 1   
     8    4   33 1   
     9    5    6 1   
    10    5   34 1   
    11    5   35 1   
    12    6    7 1   
    13    6   36 1   
    14    6   37 1   
    15    7    8 1   
    16    7   38 1   
    17    7   39 1   
    18    8    9 1   
    19    8   11 1   
    20    8   40 1   
    21    9   10 2   
    22    9   41 1   
    23   11   12 1   
    24   11   42 1   
    25   12   13 2   
    26   12   14 1   
    27   14   15 1   
    28   14   16 1   
    29   14   43 1   
    30   15   44 1   
    31   15   45 1   
    32   15   46 1   
    33   16   17 1   
    34   16   47 1   
    35   17   18 2   
    36   17   19 1   
    37   19   20 1   
    38   19   22 1   
    39   19   48 1   
    40   20   21 1   
    41   20   49 1   
    42   20   50 1   
    43   21   51 1   
    44   22   23 1   
    45   22   52 1   
    46   23   24 2   
    47   23   25 1   
    48   25   26 1   
    49   26   27 1   
    50   26   53 1   
    51   26   54 1   
    52   27   28 1   
    53   27   29 1   
    54   27   55 1   
    55   28   56 1   
    56   28   57 1   
    57   28   58 1   
    58   29   59 1   
    59   29   60 1   
    60   29   61 1   
@<TRIPOS>SUBSTRUCTURE
     1 SJ1         1 TEMP              0 ****  ****    0 ROOT
