@<TRIPOS>MOLECULE
SJJ
   39    41     1     0     0
SMALL
bcc


@<TRIPOS>ATOM
      1 C5          0.0810    0.5050    0.0850 ca        1 SJJ     -0.017500
      2 C7          0.4080   -0.4060    2.3170 ca        1 SJJ     -0.017500
      3 C4          1.4370    0.7290   -0.0350 ca        1 SJJ     -0.201500
      4 C8          1.7730   -0.1800    2.2120 ca        1 SJJ     -0.201500
      5 C19        -5.2150   -5.5090    4.4250 ca        1 SJJ     -0.226800
      6 C23        -5.3160   -4.0810    6.3680 ca        1 SJJ     -0.226800
      7 C20        -6.3640   -6.1610    4.9110 ca        1 SJJ      0.416200
      8 C22        -6.4600   -4.8010    6.7670 ca        1 SJJ      0.416200
      9 C11        -3.9880    0.0640    0.6640 cc        1 SJJ      0.544300
     10 C6         -0.4600   -0.0780    1.2590 ca        1 SJJ     -0.275500
     11 C18        -4.6880   -4.4500    5.1740 ca        1 SJJ     -0.135300
     12 C3          2.2970    0.3830    1.0360 ca        1 SJJ      0.212100
     13 C9         -1.8690   -0.2920    1.3370 cc        1 SJJ      0.474900
     14 C13        -2.7780   -1.0800    2.0910 cd        1 SJJ      0.040500
     15 C14        -2.5160   -2.0380    3.1280 c         1 SJJ      0.511600
     16 C1          4.5290    0.3190    1.8730 c3        1 SJJ      0.104700
     17 C17        -3.4490   -3.7520    4.7230 c3        1 SJJ      0.166100
     18 N21        -6.9820   -5.8180    6.0570 nb        1 SJJ     -0.618000
     19 N12        -4.1030   -0.8160    1.6340 nd        1 SJJ     -0.689000
     20 N16        -3.7530   -2.7480    3.6570 ny        1 SJJ     -0.661800
     21 O15        -1.4530   -2.3690    3.6430 o         1 SJJ     -0.469100
     22 O10        -2.6460    0.4280    0.4280 os        1 SJJ     -0.376800
     23 O2          3.6190    0.6430    0.8190 os        1 SJJ     -0.299900
     24 H5         -0.5930    0.7790   -0.7440 ha        1 SJJ      0.157000
     25 H4          1.8670    1.1740   -0.9460 ha        1 SJJ      0.169000
     26 H7          0.0120   -0.8340    3.2520 ha        1 SJJ      0.157000
     27 H8          2.4340   -0.4420    3.0520 ha        1 SJJ      0.169000
     28 H23        -4.9290   -3.2670    6.9960 ha        1 SJJ      0.152000
     29 H22        -6.9860   -4.5490    7.7090 h4        1 SJJ      0.049600
     30 H11        -4.7300    0.5540    0.0240 h5        1 SJJ      0.122100
     31 H171       -2.7050   -4.4900    4.3010 hx        1 SJJ      0.117200
     32 H172       -2.9510   -3.2080    5.5790 hx        1 SJJ      0.117200
     33 H16        -4.4020   -2.0420    4.0250 hn        1 SJJ      0.466300
     34 H11C        5.5210    0.6230    1.4490 h1        1 SJJ      0.062033
     35 H12C        4.5050   -0.7770    2.0840 h1        1 SJJ      0.062033
     36 H13C        4.2890    0.9090    2.7890 h1        1 SJJ      0.062033
     37 H19        -4.7410   -5.8460    3.4930 ha        1 SJJ      0.152000
     38 H162       -4.2230   -3.2170    2.8730 hn        1 SJJ      0.466300
     39 H20        -6.8130   -7.0070    4.3550 h4        1 SJJ      0.049600
@<TRIPOS>BOND
     1    1    3 ar  
     2    1   10 ar  
     3    1   24 1   
     4    2    4 ar  
     5    2   10 ar  
     6    2   26 1   
     7    3   12 ar  
     8    3   25 1   
     9    4   12 ar  
    10    4   27 1   
    11    5    7 ar  
    12    5   11 ar  
    13    5   37 1   
    14    6    8 ar  
    15    6   11 ar  
    16    6   28 1   
    17    7   18 ar  
    18    7   39 1   
    19    8   18 ar  
    20    8   29 1   
    21    9   19 2   
    22    9   22 1   
    23    9   30 1   
    24   10   13 1   
    25   11   17 1   
    26   12   23 1   
    27   13   14 2   
    28   13   22 1   
    29   14   15 1   
    30   14   19 1   
    31   15   20 1   
    32   15   21 2   
    33   16   23 1   
    34   16   34 1   
    35   16   35 1   
    36   16   36 1   
    37   17   20 1   
    38   17   31 1   
    39   17   32 1   
    40   20   33 1   
    41   20   38 1   
@<TRIPOS>SUBSTRUCTURE
     1 SJJ         1 TEMP              0 ****  ****    0 ROOT
