@<TRIPOS>MOLECULE
SJJ
   39    41     1     0     0
SMALL
bcc


@<TRIPOS>ATOM
      1 C5          0.0860    0.5030    0.0870 ca        1 SJJ     -0.017500
      2 C7          0.4080   -0.4040    2.3210 ca        1 SJJ     -0.017500
      3 C4          1.4420    0.7280   -0.0300 ca        1 SJJ     -0.201500
      4 C8          1.7730   -0.1760    2.2200 ca        1 SJJ     -0.201500
      5 C19        -5.2100   -5.5160    4.4250 ca        1 SJJ     -0.226800
      6 C23        -5.3270   -4.0760    6.3580 ca        1 SJJ     -0.226800
      7 C20        -6.3600   -6.1690    4.9080 ca        1 SJJ      0.416200
      8 C22        -6.4720   -4.7960    6.7550 ca        1 SJJ      0.416200
      9 C11        -3.9840    0.0570    0.6550 cc        1 SJJ      0.544300
     10 C6         -0.4570   -0.0790    1.2600 ca        1 SJJ     -0.275500
     11 C18        -4.6910   -4.4500    5.1700 ca        1 SJJ     -0.136300
     12 C3          2.3000    0.3860    1.0440 ca        1 SJJ      0.212100
     13 C9         -1.8670   -0.2950    1.3350 cc        1 SJJ      0.474900
     14 C13        -2.7770   -1.0830    2.0870 cd        1 SJJ      0.040500
     15 C14        -2.5160   -2.0380    3.1270 c         1 SJJ      0.511600
     16 C1          4.5290    0.3260    1.8870 c3        1 SJJ      0.104700
     17 C17        -3.4510   -3.7510    4.7230 c3        1 SJJ      0.166100
     18 N21        -6.9850   -5.8200    6.0490 nb        1 SJJ     -0.618000
     19 N12        -4.1000   -0.8220    1.6260 nd        1 SJJ     -0.689000
     20 N16        -3.7540   -2.7500    3.6530 n4        1 SJJ     -0.661800
     21 O15        -1.4540   -2.3670    3.6450 o         1 SJJ     -0.469100
     22 O10        -2.6420    0.4220    0.4220 os        1 SJJ     -0.376800
     23 O2          3.6220    0.6470    0.8300 os        1 SJJ     -0.299900
     24 H5         -0.5860    0.7740   -0.7450 ha        1 SJJ      0.157000
     25 H4          1.8740    1.1720   -0.9410 ha        1 SJJ      0.169000
     26 H7          0.0100   -0.8310    3.2550 ha        1 SJJ      0.157000
     27 H8          2.4310   -0.4350    3.0620 ha        1 SJJ      0.169000
     28 H23        -4.9460   -3.2560    6.9830 ha        1 SJJ      0.151500
     29 H22        -7.0040   -4.5400    7.6920 h4        1 SJJ      0.049600
     30 H11        -4.7250    0.5450    0.0120 h5        1 SJJ      0.122100
     31 H171       -2.7040   -4.4880    4.3040 hx        1 SJJ      0.117200
     32 H172       -2.9580   -3.2050    5.5780 hx        1 SJJ      0.117200
     33 H16        -4.4060   -2.0440    4.0170 hn        1 SJJ      0.466300
     34 H11C        5.5220    0.6310    1.4660 h1        1 SJJ      0.062033
     35 H12C        4.5070   -0.7700    2.1000 h1        1 SJJ      0.062033
     36 H13C        4.2860    0.9180    2.8020 h1        1 SJJ      0.062033
     37 H19        -4.7290   -5.8570    3.4980 ha        1 SJJ      0.151500
     38 H162       -4.2200   -3.2220    2.8680 hn        1 SJJ      0.466300
     39 H20        -6.8020   -7.0200    4.3560 h4        1 SJJ      0.049600
@<TRIPOS>BOND
     1    1    3 ar  
     2    1   10 ar  
     3    1   24 1   
     4    2    4 ar  
     5    2   10 ar  
     6    2   26 1   
     7    3   12 ar  
     8    3   25 1   
     9    4   12 ar  
    10    4   27 1   
    11    5    7 ar  
    12    5   11 ar  
    13    5   37 1   
    14    6    8 ar  
    15    6   11 ar  
    16    6   28 1   
    17    7   18 ar  
    18    7   39 1   
    19    8   18 ar  
    20    8   29 1   
    21    9   19 2   
    22    9   22 1   
    23    9   30 1   
    24   10   13 1   
    25   11   17 1   
    26   12   23 1   
    27   13   14 2   
    28   13   22 1   
    29   14   15 1   
    30   14   19 1   
    31   15   20 1   
    32   15   21 2   
    33   16   23 1   
    34   16   34 1   
    35   16   35 1   
    36   16   36 1   
    37   17   20 1   
    38   17   31 1   
    39   17   32 1   
    40   20   33 1   
    41   20   38 1   
@<TRIPOS>SUBSTRUCTURE
     1 SJJ         1 TEMP              0 ****  ****    0 ROOT
