@<TRIPOS>MOLECULE
SJJ
   38    40     1     0     0
SMALL
bcc


@<TRIPOS>ATOM
      1 C5         -3.7060   -1.0600   -0.6030 ca        1 SJJ     -0.053000
      2 C7         -2.5010    0.6110    0.6780 ca        1 SJJ     -0.053000
      3 C4         -4.8650   -0.3060   -0.5190 ca        1 SJJ     -0.193500
      4 C8         -3.6600    1.3790    0.7700 ca        1 SJJ     -0.193500
      5 C19         5.0350    0.0000   -0.8630 ca        1 SJJ     -0.234300
      6 C23         4.5750    1.5190    0.9450 ca        1 SJJ     -0.234300
      7 C20         6.2730   -0.2700   -0.2530 ca        1 SJJ      0.393700
      8 C22         5.8360    1.1840    1.4740 ca        1 SJJ      0.393700
      9 C11        -0.2580   -3.3660   -0.3620 cc        1 SJJ      0.484300
     10 C6         -2.5090   -0.6070   -0.0130 ca        1 SJJ     -0.200500
     11 C18         4.1720    0.9150   -0.2500 ca        1 SJJ     -0.079300
     12 C3         -4.8400    0.9230    0.1710 ca        1 SJJ      0.151100
     13 C9         -1.3190   -1.4120   -0.1240 cc        1 SJJ      0.325900
     14 C13         0.0640   -1.2090   -0.2020 cd        1 SJJ      0.167500
     15 C14         0.8340    0.0560   -0.1410 c         1 SJJ      0.609600
     16 C1         -6.0500    2.8460    0.8810 c3        1 SJJ      0.111700
     17 C17         2.8500    1.2610   -0.8760 c3        1 SJJ      0.119300
     18 N21         6.6780    0.3070    0.8950 nb        1 SJJ     -0.661000
     19 N12         0.7060   -2.4600   -0.3520 nd        1 SJJ     -0.662000
     20 N16         1.9320    0.1580   -0.9790 n         1 SJJ     -0.537900
     21 O15         0.4800    1.0070    0.5860 o         1 SJJ     -0.615100
     22 O10        -1.5310   -2.7970   -0.2310 os        1 SJJ     -0.386800
     23 O2         -6.0410    1.5970    0.1960 os        1 SJJ     -0.323900
     24 H5         -3.7160   -2.0250   -1.1340 ha        1 SJJ      0.162500
     25 H4         -5.8030   -0.6490   -0.9800 ha        1 SJJ      0.149500
     26 H7         -1.5710    0.9700    1.1560 ha        1 SJJ      0.162500
     27 H8         -3.6310    2.3330    1.3140 ha        1 SJJ      0.149500
     28 H20         6.9810   -0.9870   -0.7060 h4        1 SJJ      0.023600
     29 H23         3.9260    2.2350    1.4660 ha        1 SJJ      0.146000
     30 H22         6.1900    1.6410    2.4150 h4        1 SJJ      0.023600
     31 H11        -0.2260   -4.4530   -0.4490 h5        1 SJJ      0.093100
     32 H171        2.3590    2.0940   -0.2930 h1        1 SJJ      0.075200
     33 H172        3.0480    1.6350   -1.9250 h1        1 SJJ      0.075200
     34 H16         2.2910   -0.6730   -1.3920 hn        1 SJJ      0.321500
     35 H11C       -7.1070    3.1970    0.7640 h1        1 SJJ      0.048033
     36 H12C       -5.7980    2.7050    1.9600 h1        1 SJJ      0.048033
     37 H13C       -5.3400    3.5630    0.4010 h1        1 SJJ      0.048033
     38 H19         4.7600   -0.4970   -1.8020 ha        1 SJJ      0.146000
@<TRIPOS>BOND
     1    1    3 ar  
     2    1   10 ar  
     3    1   24 1   
     4    2    4 ar  
     5    2   10 ar  
     6    2   26 1   
     7    3   12 ar  
     8    3   25 1   
     9    4   12 ar  
    10    4   27 1   
    11    5    7 ar  
    12    5   11 ar  
    13    5   38 1   
    14    6    8 ar  
    15    6   11 ar  
    16    6   29 1   
    17    7   18 ar  
    18    7   28 1   
    19    8   18 ar  
    20    8   30 1   
    21    9   19 2   
    22    9   22 1   
    23    9   31 1   
    24   10   13 1   
    25   11   17 1   
    26   12   23 1   
    27   13   14 2   
    28   13   22 1   
    29   14   15 1   
    30   14   19 1   
    31   15   20 1   
    32   15   21 2   
    33   16   23 1   
    34   16   35 1   
    35   16   36 1   
    36   16   37 1   
    37   17   20 1   
    38   17   32 1   
    39   17   33 1   
    40   20   34 1   
@<TRIPOS>SUBSTRUCTURE
     1 SJJ         1 TEMP              0 ****  ****    0 ROOT
