@<TRIPOS>MOLECULE
SJR
   29    30     1     0     0
SMALL
bcc


@<TRIPOS>ATOM
      1 C          -0.0600   -0.0150   -0.0690 c3        1 SJR      0.111700
      2 N           3.4810   -0.1170    6.0680 ns        1 SJR     -0.564400
      3 O           1.3360   -0.2750    0.0260 os        1 SJR     -0.322900
      4 C1          1.9130   -0.0750    1.2620 ca        1 SJR      0.146100
      5 N1          5.4100   -0.1420    7.5160 nb        1 SJR     -0.667000
      6 O1          5.1420    1.0470    4.9330 o         1 SJR     -0.534100
      7 C2          3.3020   -0.3090    1.3110 ca        1 SJR     -0.188000
      8 C3          3.9770   -0.1380    2.5120 ca        1 SJR     -0.060000
      9 C4          3.2820    0.2520    3.6660 ca        1 SJR     -0.184600
     10 C5          4.0640    0.4360    4.9250 c         1 SJR      0.687700
     11 C6          4.0530   -0.2250    7.3490 ca        1 SJR      0.541200
     12 C7          3.1730   -0.4460    8.4540 ca        1 SJR     -0.296300
     13 C8          3.7130   -0.5630    9.7310 ca        1 SJR     -0.067000
     14 C9          5.0930   -0.4640    9.9060 ca        1 SJR     -0.280300
     15 C10         5.8860   -0.2540    8.7650 ca        1 SJR      0.426200
     16 C11         1.9080    0.4900    3.6070 ca        1 SJR     -0.060000
     17 C12         1.2160    0.3300    2.4070 ca        1 SJR     -0.188000
     18 H          -0.6350   -0.6990    0.6010 h1        1 SJR      0.047367
     19 HA         -0.2800    1.0530    0.1760 h1        1 SJR      0.047367
     20 HB         -0.2900   -0.2290   -1.1440 h1        1 SJR      0.047367
     21 HN          2.5800   -0.5280    5.9730 hn        1 SJR      0.321500
     22 H2          3.8310   -0.6180    0.3980 ha        1 SJR      0.149500
     23 H3          5.0660   -0.2970    2.5660 ha        1 SJR      0.146000
     24 H7          2.0870   -0.5180    8.3050 ha        1 SJR      0.138000
     25 H8          3.0510   -0.7300   10.5940 ha        1 SJR      0.137000
     26 H9          5.5510   -0.5450   10.8990 ha        1 SJR      0.145000
     27 H10         6.9860   -0.1730    8.8470 h4        1 SJR      0.026100
     28 H11         1.3570    0.8270    4.4990 ha        1 SJR      0.146000
     29 H12         0.1360    0.5270    2.3730 ha        1 SJR      0.149500
@<TRIPOS>BOND
     1    1    3 1   
     2    1   18 1   
     3    1   19 1   
     4    1   20 1   
     5    2   10 1   
     6    2   11 1   
     7    2   21 1   
     8    3    4 1   
     9    4    7 ar  
    10    4   17 ar  
    11    5   11 ar  
    12    5   15 ar  
    13    6   10 2   
    14    7    8 ar  
    15    7   22 1   
    16    8    9 ar  
    17    8   23 1   
    18    9   10 1   
    19    9   16 ar  
    20   11   12 ar  
    21   12   13 ar  
    22   12   24 1   
    23   13   14 ar  
    24   13   25 1   
    25   14   15 ar  
    26   14   26 1   
    27   15   27 1   
    28   16   17 ar  
    29   16   28 1   
    30   17   29 1   
@<TRIPOS>SUBSTRUCTURE
     1 SJR         1 TEMP              0 ****  ****    0 ROOT
