@<TRIPOS>MOLECULE
SJR
   29    30     1     0     0
SMALL
bcc


@<TRIPOS>ATOM
      1 C          -0.0510   -0.0420   -0.0750 c3        1 SJR      0.111700
      2 N           3.4780   -0.1100    6.0690 n         1 SJR     -0.564400
      3 O           1.3450   -0.3000    0.0240 os        1 SJR     -0.322900
      4 C1          1.9190   -0.0920    1.2600 ca        1 SJR      0.146100
      5 N1          5.4050   -0.1260    7.5200 nb        1 SJR     -0.667000
      6 O1          5.1390    1.0520    4.9320 o         1 SJR     -0.534100
      7 C2          3.3090   -0.3240    1.3130 ca        1 SJR     -0.188000
      8 C3          3.9810   -0.1460    2.5140 ca        1 SJR     -0.060000
      9 C4          3.2830    0.2470    3.6650 ca        1 SJR     -0.184600
     10 C5          4.0630    0.4390    4.9250 c         1 SJR      0.687700
     11 C6          4.0480   -0.2110    7.3520 ca        1 SJR      0.541200
     12 C7          3.1670   -0.4280    8.4560 ca        1 SJR     -0.296300
     13 C8          3.7050   -0.5380    9.7340 ca        1 SJR     -0.067000
     14 C9          5.0840   -0.4360    9.9110 ca        1 SJR     -0.280300
     15 C10         5.8790   -0.2310    8.7700 ca        1 SJR      0.426200
     16 C11         1.9090    0.4830    3.6020 ca        1 SJR     -0.060000
     17 C12         1.2190    0.3160    2.4020 ca        1 SJR     -0.188000
     18 H          -0.2740    1.0260    0.1650 h1        1 SJR      0.047367
     19 HA         -0.2790   -0.2620   -1.1490 h1        1 SJR      0.047367
     20 HB         -0.6260   -0.7240    0.5970 h1        1 SJR      0.047367
     21 HN          2.5780   -0.5230    5.9740 hn        1 SJR      0.321500
     22 H2          3.8400   -0.6350    0.4020 ha        1 SJR      0.149500
     23 H3          5.0700   -0.3030    2.5710 ha        1 SJR      0.146000
     24 H7          2.0820   -0.5030    8.3060 ha        1 SJR      0.138000
     25 H8          3.0420   -0.7020   10.5970 ha        1 SJR      0.137000
     26 H9          5.5410   -0.5130   10.9050 ha        1 SJR      0.145000
     27 H10         6.9790   -0.1480    8.8540 h4        1 SJR      0.026100
     28 H11         1.3560    0.8230    4.4920 ha        1 SJR      0.146000
     29 H12         0.1380    0.5110    2.3650 ha        1 SJR      0.149500
@<TRIPOS>BOND
     1    1    3 1   
     2    1   18 1   
     3    1   19 1   
     4    1   20 1   
     5    2   10 1   
     6    2   11 1   
     7    2   21 1   
     8    3    4 1   
     9    4    7 ar  
    10    4   17 ar  
    11    5   11 ar  
    12    5   15 ar  
    13    6   10 2   
    14    7    8 ar  
    15    7   22 1   
    16    8    9 ar  
    17    8   23 1   
    18    9   10 1   
    19    9   16 ar  
    20   11   12 ar  
    21   12   13 ar  
    22   12   24 1   
    23   13   14 ar  
    24   13   25 1   
    25   14   15 ar  
    26   14   26 1   
    27   15   27 1   
    28   16   17 ar  
    29   16   28 1   
    30   17   29 1   
@<TRIPOS>SUBSTRUCTURE
     1 SJR         1 TEMP              0 ****  ****    0 ROOT
