@<TRIPOS>MOLECULE
SK1
   59    58     1     0     0
SMALL
bcc


@<TRIPOS>ATOM
      1 N3          0.3510    1.0620    3.2420 n         1 SK1     -0.353000
      2 N5          0.0740   -2.1260   -3.8290 n3        1 SK1     -0.397000
      3 N4         -1.7950   -0.6780   -3.2710 n2        1 SK1     -0.333000
      4 C14         0.1420   -0.6870   -1.8440 c2        1 SK1     -0.022000
      5 C13        -0.4120   -0.8390   -0.6220 c2        1 SK1     -0.059000
      6 C12         0.0580   -0.3350    0.6460 c2        1 SK1     -0.157000
      7 C17         0.8710    0.7170    0.8110 c2        1 SK1     -0.163000
      8 C16         2.4230    0.4350   -2.4000 c1        1 SK1     -0.201000
      9 C15         1.3730   -0.0790   -2.1330 c1        1 SK1     -0.119000
     10 C11         1.2050    1.3520    2.1240 c3        1 SK1     -0.017000
     11 C10        -0.8820    1.6500    3.3990 c2        1 SK1      0.273000
     12 O5         -1.3310    2.5570    2.6650 o         1 SK1     -0.442000
     13 C8         -3.0980    1.3410   -0.3010 c2        1 SK1      0.095000
     14 N2         -3.3280    1.1700    0.9680 n         1 SK1     -0.130000
     15 C7         -3.4890   -0.1790    1.5860 c2        1 SK1      0.307000
     16 O4         -3.2130   -1.1250    0.8120 o         1 SK1     -0.427000
     17 C5         -3.8810   -0.1940    2.9340 c2        1 SK1     -0.388000
     18 C6         -4.3690    1.0280    3.6410 c3        1 SK1      0.050000
     19 O3         -5.3760    1.7130    2.9070 oh        1 SK1     -0.361000
     20 N1         -3.8690   -1.4170    3.6150 n3        1 SK1     -0.770000
     21 S1         -2.5700   -1.9350    4.3700 s6        1 SK1      2.810000
     22 O1         -1.4500   -1.0610    4.1840 o         1 SK1     -0.962000
     23 O2         -2.2560   -3.2900    4.1530 o         1 SK1     -0.962000
     24 C1         -2.9190   -1.7600    6.0890 c3        1 SK1     -0.783000
     25 C4         -4.3430   -2.0480    6.5110 c3        1 SK1     -0.111000
     26 C19        -4.4580   -2.2930    7.9720 c2        1 SK1     -0.089000
     27 C20        -5.2010   -3.3180    8.4460 c2        1 SK1     -0.200000
     28 C21        -5.8580   -4.2270    7.5430 c2        1 SK1      0.004000
     29 C2         -5.7370   -4.0780    6.1900 c2        1 SK1     -0.226000
     30 C3         -4.9440   -3.0540    5.6260 c1        1 SK1     -0.127000
     31 C22        -2.8890    2.6500   -0.9650 c3        1 SK1     -0.247000
     32 H3          0.4470    0.1550    3.6550 hn        1 SK1      0.252000
     33 H5N1        0.8670   -2.5470   -3.4070 hn        1 SK1      0.202500
     34 H5N2       -0.4590   -2.7220   -4.4160 hn        1 SK1      0.202500
     35 H4         -2.2880   -1.0290   -4.0650 hn        1 SK1      0.138000
     36 H13        -1.3770   -1.3880   -0.5410 ha        1 SK1      0.173000
     37 H12        -0.3920   -0.8500    1.5200 ha        1 SK1      0.156000
     38 H16         1.3420    1.2200   -0.0510 ha        1 SK1      0.133000
     39 H15         3.3530    0.8860   -2.6360 ha        1 SK1      0.225000
     40 H111        2.2560    1.0460    2.4040 h1        1 SK1      0.104500
     41 H112        1.1960    2.4730    1.9700 h1        1 SK1      0.104500
     42 H8         -1.4460    1.2600    4.2810 h5        1 SK1      0.147000
     43 H2         -3.0390    0.4270   -0.9500 h4        1 SK1      0.220000
     44 H5         -3.3570    1.9570    1.6030 hn        1 SK1      0.278000
     45 H6C1       -4.7710    0.7760    4.6610 h1        1 SK1      0.075500
     46 H6C2       -3.5530    1.7980    3.7590 h1        1 SK1      0.075500
     47 HA         -6.0620    1.0690    2.6950 ho        1 SK1      0.204000
     48 H1         -4.7070   -1.9580    3.5800 hn        1 SK1      0.270000
     49 H1C1       -2.6340   -0.7340    6.4330 h1        1 SK1      0.139000
     50 H1C2       -2.2350   -2.4680    6.6300 h1        1 SK1      0.139000
     51 H19        -4.9780   -1.1190    6.2920 hc        1 SK1      0.169000
     52 H20        -3.9270   -1.5990    8.6410 ha        1 SK1      0.137000
     53 H21        -5.3120   -3.4970    9.5270 ha        1 SK1      0.140000
     54 HC         -6.4450   -5.0490    7.9840 ha        1 SK1      0.135000
     55 HB         -6.2240   -4.7850    5.4980 ha        1 SK1      0.154000
     56 H221       -3.7020    2.8030   -1.7210 hc        1 SK1      0.127000
     57 H222       -1.9080    2.6170   -1.5080 hc        1 SK1      0.127000
     58 H223       -2.8790    3.5150   -0.2570 hc        1 SK1      0.127000
     59 C18        -0.6220   -1.1910   -3.0450 c2        1 SK1      0.150000
@<TRIPOS>BOND
     1    1   10 1   
     2    1   11 1   
     3    1   32 1   
     4    2   33 1   
     5    2   34 1   
     6    2   59 1   
     7    3   35 1   
     8    3   59 1   
     9    4    5 1   
    10    4    9 1   
    11    4   59 1   
    12    5    6 1   
    13    5   36 1   
    14    6    7 1   
    15    6   37 1   
    16    7   10 1   
    17    7   38 1   
    18    8    9 1   
    19    8   39 1   
    20   10   40 1   
    21   10   41 1   
    22   11   12 1   
    23   11   42 1   
    24   13   14 1   
    25   13   31 1   
    26   13   43 1   
    27   14   15 1   
    28   14   44 1   
    29   15   16 1   
    30   15   17 1   
    31   17   18 1   
    32   17   20 1   
    33   18   19 1   
    34   18   45 1   
    35   18   46 1   
    36   19   47 1   
    37   20   21 1   
    38   20   48 1   
    39   21   22 1   
    40   21   23 1   
    41   21   24 1   
    42   24   25 1   
    43   24   49 1   
    44   24   50 1   
    45   25   26 1   
    46   25   30 1   
    47   25   51 1   
    48   26   27 1   
    49   26   52 1   
    50   27   28 1   
    51   27   53 1   
    52   28   29 1   
    53   28   54 1   
    54   29   30 1   
    55   29   55 1   
    56   31   56 1   
    57   31   57 1   
    58   31   58 1   
@<TRIPOS>SUBSTRUCTURE
     1 SK1         1 TEMP              0 ****  ****    0 ROOT
