@<TRIPOS>MOLECULE
SK1
   59    60     1     0     0
SMALL
bcc


@<TRIPOS>ATOM
      1 N3         -3.1740   -0.2820    1.3030 n         1 SK1     -0.547900
      2 N5        -10.3720   -1.1630   -0.3320 nh        1 SK1     -0.957800
      3 N4         -9.5530    0.8350   -1.4490 n2        1 SK1     -0.826100
      4 C14        -8.0100   -0.5420   -0.2210 ca        1 SK1     -0.135900
      5 C13        -6.9200   -0.5400   -1.0970 ca        1 SK1     -0.103000
      6 C12        -5.6430   -0.8180   -0.6130 ca        1 SK1     -0.124500
      7 C17        -5.4480   -1.0910    0.7450 ca        1 SK1     -0.115300
      8 C16        -6.5390   -1.0820    1.6180 ca        1 SK1     -0.124500
      9 C15        -7.8190   -0.8100    1.1370 ca        1 SK1     -0.103000
     10 C11        -4.0670   -1.4090    1.2490 c3        1 SK1      0.128300
     11 C10        -2.3480    0.0490    0.2500 c         1 SK1      0.631100
     12 O5         -2.2310   -0.6810   -0.7550 o         1 SK1     -0.617100
     13 C8         -1.5420    1.3680    0.3790 c3        1 SK1      0.032700
     14 N2         -0.2560    1.2530   -0.2650 n         1 SK1     -0.553900
     15 C7          0.9240    1.3650    0.4490 c         1 SK1      0.655100
     16 O4          0.9410    1.7440    1.6340 o         1 SK1     -0.584100
     17 C5          2.2250    1.0550   -0.3380 c3        1 SK1      0.181500
     18 C6          2.4810    2.2190   -1.3250 c3        1 SK1      0.114400
     19 O3          2.7430    3.3920   -0.5790 oh        1 SK1     -0.588800
     20 N1          3.3220    0.7940    0.5460 n3        1 SK1     -0.910100
     21 S1          4.3740   -0.4260    0.3970 s6        1 SK1      1.452900
     22 O1          3.8580   -1.3790   -0.5080 o         1 SK1     -0.644300
     23 O2          4.7650   -0.8650    1.6730 o         1 SK1     -0.644300
     24 C1          5.7210    0.3670   -0.3610 c3        1 SK1     -0.249300
     25 C4          6.8590   -0.5440   -0.6270 ca        1 SK1     -0.073300
     26 C19         6.7360   -1.5640   -1.5800 ca        1 SK1     -0.115000
     27 C20         7.8160   -2.4020   -1.8520 ca        1 SK1     -0.127000
     28 C21         9.0250   -2.2280   -1.1790 ca        1 SK1     -0.122000
     29 C2          9.1520   -1.2150   -0.2300 ca        1 SK1     -0.127000
     30 C3          8.0750   -0.3730    0.0460 ca        1 SK1     -0.115000
     31 C22        -2.4130    2.4750   -0.2190 c3        1 SK1     -0.106100
     32 H3         -3.3680    0.4120    1.9860 hn        1 SK1      0.311500
     33 H5N1      -10.0340   -2.0480   -0.0350 hn        1 SK1      0.399300
     34 H5N2      -11.2000   -1.2040   -0.8800 hn        1 SK1      0.399300
     35 H4        -10.4770    1.0080   -1.7830 hn        1 SK1      0.383400
     36 H13        -7.0670   -0.3100   -2.1630 ha        1 SK1      0.147500
     37 H12        -4.7760   -0.8250   -1.2960 ha        1 SK1      0.145000
     38 H16        -6.3920   -1.2910    2.6880 ha        1 SK1      0.145000
     39 H15        -8.6720   -0.7950    1.8330 ha        1 SK1      0.147500
     40 H111       -3.6100   -2.1920    0.5740 h1        1 SK1      0.072700
     41 H112       -4.1370   -1.8350    2.2920 h1        1 SK1      0.072700
     42 H8         -1.3600    1.6050    1.4730 h1        1 SK1      0.102700
     43 H2         -0.2530    0.7750   -1.1390 hn        1 SK1      0.324500
     44 H5          2.0550    0.1260   -0.9690 h1        1 SK1      0.096700
     45 H6C1        3.3690    1.9790   -1.9720 h1        1 SK1      0.034700
     46 H6C2        1.5800    2.3530   -1.9800 h1        1 SK1      0.034700
     47 HA          2.7250    4.1280   -1.2040 ho        1 SK1      0.408000
     48 H1          3.3500    1.4330    1.3120 hn        1 SK1      0.476800
     49 H1C1        5.4100    0.8260   -1.3390 h1        1 SK1      0.110700
     50 H1C2        6.0800    1.2250    0.2700 h1        1 SK1      0.110700
     51 H19         5.7750   -1.7150   -2.0980 ha        1 SK1      0.143000
     52 H20         7.7100   -3.2040   -2.5970 ha        1 SK1      0.135000
     53 H21         9.8760   -2.8900   -1.3950 ha        1 SK1      0.133000
     54 HC         10.1030   -1.0780    0.3060 ha        1 SK1      0.135000
     55 HB          8.1810    0.4220    0.7980 ha        1 SK1      0.143000
     56 H221       -1.8950    3.4610   -0.1390 hc        1 SK1      0.052700
     57 H222       -2.6370    2.2730   -1.2940 hc        1 SK1      0.052700
     58 H223       -3.3740    2.5270    0.3460 hc        1 SK1      0.052700
     59 C18        -9.3830   -0.2420   -0.7440 ce        1 SK1      0.649800
@<TRIPOS>BOND
     1    1   10 1   
     2    1   11 1   
     3    1   32 1   
     4    2   33 1   
     5    2   34 1   
     6    2   59 1   
     7    3   35 1   
     8    3   59 2   
     9    4    5 ar  
    10    4    9 ar  
    11    4   59 1   
    12    5    6 ar  
    13    5   36 1   
    14    6    7 ar  
    15    6   37 1   
    16    7    8 ar  
    17    7   10 1   
    18    8    9 ar  
    19    8   38 1   
    20    9   39 1   
    21   10   40 1   
    22   10   41 1   
    23   11   12 2   
    24   11   13 1   
    25   13   14 1   
    26   13   31 1   
    27   13   42 1   
    28   14   15 1   
    29   14   43 1   
    30   15   16 2   
    31   15   17 1   
    32   17   18 1   
    33   17   20 1   
    34   17   44 1   
    35   18   19 1   
    36   18   45 1   
    37   18   46 1   
    38   19   47 1   
    39   20   21 1   
    40   20   48 1   
    41   21   22 2   
    42   21   23 2   
    43   21   24 1   
    44   24   25 1   
    45   24   49 1   
    46   24   50 1   
    47   25   26 ar  
    48   25   30 ar  
    49   26   27 ar  
    50   26   51 1   
    51   27   28 ar  
    52   27   52 1   
    53   28   29 ar  
    54   28   53 1   
    55   29   30 ar  
    56   29   54 1   
    57   30   55 1   
    58   31   56 1   
    59   31   57 1   
    60   31   58 1   
@<TRIPOS>SUBSTRUCTURE
     1 SK1         1 TEMP              0 ****  ****    0 ROOT
