@<TRIPOS>MOLECULE
SK2
   49    47     1     0     0
SMALL
bcc


@<TRIPOS>ATOM
      1 O6          1.8130   -6.0630    1.7500 o         1 SK2     -1.054333
      2 S1          2.9500   -6.2600    0.7730 s4        1 SK2      2.835000
      3 O4          4.2840   -6.2800    1.4820 o         1 SK2     -1.054333
      4 O5          2.9180   -7.6430    0.1680 o         1 SK2     -1.054333
      5 N3          2.9090   -5.0990   -0.3880 n2        1 SK2     -0.769000
      6 C15         2.5640   -3.7640   -0.0460 c2        1 SK2      0.183000
      7 C16         3.2220   -3.1170    1.0280 c2        1 SK2     -0.197000
      8 C14         1.6210   -3.0660   -0.8130 c1        1 SK2     -0.238000
      9 C13         1.3310   -1.7390   -0.5200 c1        1 SK2     -0.028000
     10 C12         0.2700   -0.9210   -1.3360 c3        1 SK2      0.004000
     11 N2         -0.0630    0.3170   -0.8580 n         1 SK2     -0.253000
     12 C4          0.9780    1.1370   -0.2990 c3        1 SK2      0.015000
     13 C5          1.9240    1.6890   -1.4520 c2        1 SK2      0.278000
     14 O1          1.9410    1.1430   -2.5370 o         1 SK2     -0.362000
     15 N1          2.7350    2.8290   -1.2190 n         1 SK2     -0.374000
     16 C6          3.6910    3.2340   -2.1950 c3        1 SK2     -0.081000
     17 C3          1.7570    0.4390    0.7610 c3        1 SK2     -0.091000
     18 C2          1.9970   -1.0850    0.5660 c2        1 SK2     -0.178000
     19 C1          2.9320   -1.7790    1.3250 c2        1 SK2     -0.081000
     20 C7         -1.3160    0.8910   -1.1890 c2        1 SK2      0.396000
     21 O3         -1.8400    0.6330   -2.2540 o         1 SK2     -0.407000
     22 O2         -1.9640    1.7380   -0.2760 os        1 SK2     -0.279000
     23 C8         -3.2290    2.1790   -0.7060 c3        1 SK2      0.035000
     24 C11        -4.1740    2.2260    0.4730 c2        1 SK2     -0.110000
     25 C19        -5.2350    1.3380    0.5460 c2        1 SK2     -0.103000
     26 C9         -6.1200    1.4010    1.6120 c1        1 SK2     -0.135000
     27 C18        -3.9980    3.1780    1.4650 c1        1 SK2     -0.115000
     28 C10        -4.8820    3.2410    2.5300 c1        1 SK2     -0.134000
     29 C17        -5.9430    2.3530    2.6030 c1        1 SK2     -0.134000
     30 HN3         3.1310   -5.3070   -1.2490 hn        1 SK2      0.206000
     31 H16         3.8580   -3.6120    1.5790 ha        1 SK2      0.175000
     32 H14         1.1510   -3.5200   -1.5390 ha        1 SK2      0.123000
     33 H121        0.6110   -0.8090   -2.2470 h1        1 SK2      0.111500
     34 H122       -0.5490   -1.4550   -1.3820 h1        1 SK2      0.111500
     35 H4          0.6100    1.9700    0.0520 h1        1 SK2      0.127000
     36 HN1         2.6330    3.3120   -0.4530 hn        1 SK2      0.213000
     37 H61         3.3270    3.0810   -3.0920 h1        1 SK2      0.080333
     38 H62         4.5150    2.7120   -2.0820 h1        1 SK2      0.080333
     39 H63         3.8890    4.1880   -2.0810 h1        1 SK2      0.080333
     40 H31         1.2700    0.5520    1.6030 hc        1 SK2      0.084500
     41 H32         2.6340    0.8690    0.8100 hc        1 SK2      0.084500
     42 H1          3.3870   -1.3350    2.0660 ha        1 SK2      0.113000
     43 H81        -3.5790    1.5610   -1.3810 h1        1 SK2      0.110500
     44 H82        -3.1480    3.0740   -1.0950 h1        1 SK2      0.110500
     45 H19        -5.3600    0.6680   -0.1520 ha        1 SK2      0.165000
     46 H9         -6.8730    0.7820    1.6580 ha        1 SK2      0.132000
     47 H18        -3.2500    3.8030    1.4130 ha        1 SK2      0.128000
     48 H10        -4.7630    3.9180    3.2240 ha        1 SK2      0.125000
     49 H17        -6.5670    2.3970    3.3540 ha        1 SK2      0.125000
@<TRIPOS>BOND
     1    1    2 1   
     2    2    3 1   
     3    2    4 1   
     4    5    6 1   
     5    5   30 1   
     6    6    7 1   
     7    6    8 1   
     8    7   19 1   
     9    7   31 1   
    10    8   32 1   
    11    9   10 1   
    12    9   18 1   
    13   10   11 1   
    14   10   33 1   
    15   10   34 1   
    16   11   12 1   
    17   11   20 1   
    18   12   13 1   
    19   12   17 1   
    20   12   35 1   
    21   13   14 1   
    22   13   15 1   
    23   15   16 1   
    24   15   36 1   
    25   16   37 1   
    26   16   38 1   
    27   16   39 1   
    28   17   18 1   
    29   17   40 1   
    30   17   41 1   
    31   18   19 1   
    32   19   42 1   
    33   20   21 1   
    34   20   22 1   
    35   22   23 1   
    36   23   24 1   
    37   23   43 1   
    38   23   44 1   
    39   24   25 1   
    40   24   27 1   
    41   25   26 1   
    42   25   45 1   
    43   26   46 1   
    44   27   47 1   
    45   28   29 1   
    46   28   48 1   
    47   29   49 1   
@<TRIPOS>SUBSTRUCTURE
     1 SK2         1 TEMP              0 ****  ****    0 ROOT
