@<TRIPOS>MOLECULE
SK2
   51    52     1     0     0
SMALL
bcc


@<TRIPOS>ATOM
      1 O6         -0.3130   -0.0960    0.9720 o         1 SK2     -0.572400
      2 S1          0.5360   -0.8160    0.2030 s4        1 SK2      1.806000
      3 O4          1.6670   -1.3360    0.7370 o         1 SK2     -0.572400
      4 O5          0.2130   -1.0770   -1.0870 o         1 SK2     -0.692200
      5 N3          1.9750    1.1360   -0.7030 nh        1 SK2     -0.866200
      6 C15         1.6120    2.4420   -0.2990 ca        1 SK2      0.112600
      7 C16         2.2260    3.0470    0.8190 ca        1 SK2     -0.144000
      8 C14         0.5640    3.1220   -0.9590 ca        1 SK2     -0.140000
      9 C13         0.1220    4.3470   -0.4700 ca        1 SK2     -0.077300
     10 C12        -1.0500    5.0320   -1.0980 c3        1 SK2      0.129300
     11 N2         -0.9600    6.4890   -1.0730 n         1 SK2     -0.461800
     12 C4         -0.2720    7.1510    0.0130 c3        1 SK2      0.061700
     13 C5          0.9610    7.9490   -0.4690 c         1 SK2      0.525100
     14 O1          2.0020    8.1230    0.1400 o         1 SK2     -0.409100
     15 N1          0.8140    8.6660   -1.7910 n4        1 SK2     -0.676800
     16 C6          1.8930    9.6360   -2.0670 c3        1 SK2      0.082100
     17 C3          0.1770    6.2160    1.1540 c3        1 SK2     -0.036100
     18 C2          0.7250    4.9340    0.6510 ca        1 SK2     -0.127300
     19 C1          1.7820    4.2810    1.2850 ca        1 SK2     -0.073000
     20 C7         -1.9970    7.2130   -1.6840 c         1 SK2      0.733100
     21 O3         -2.0020    8.4600   -1.7780 o         1 SK2     -0.636000
     22 O2         -2.9710    6.4720   -2.2640 os        1 SK2     -0.395900
     23 C8         -4.0170    7.2310   -2.9490 c3        1 SK2      0.205700
     24 C11        -4.9520    6.2170   -3.5030 ca        1 SK2     -0.132300
     25 C19        -4.8500    5.8270   -4.8430 ca        1 SK2     -0.097500
     26 C9         -5.7540    4.9060   -5.3720 ca        1 SK2     -0.129000
     27 C18        -5.9560    5.6730   -2.6940 ca        1 SK2     -0.097500
     28 C10        -6.8560    4.7510   -3.2260 ca        1 SK2     -0.129000
     29 C17        -6.7560    4.3670   -4.5640 ca        1 SK2     -0.096000
     30 HN3         1.8620    0.9940   -1.6910 hn        1 SK2      0.410300
     31 H16         3.0510    2.5390    1.3450 ha        1 SK2      0.159000
     32 H14         0.0750    2.6760   -1.8410 ha        1 SK2      0.155000
     33 H121       -1.9890    4.7010   -0.5590 h1        1 SK2      0.088200
     34 H122       -1.1560    4.7340   -2.1830 h1        1 SK2      0.088200
     35 H4         -0.9410    7.9580    0.4630 h1        1 SK2      0.114700
     36 HN1        -0.1070    9.1490   -1.7920 hn        1 SK2      0.479300
     37 H61         1.7130   10.1110   -3.0690 hx        1 SK2      0.108700
     38 H62         1.9000   10.4240   -1.2670 hx        1 SK2      0.108700
     39 H63         2.8860    9.1090   -2.0650 hx        1 SK2      0.108700
     40 H31         0.9270    6.7550    1.7950 hc        1 SK2      0.096200
     41 H32        -0.7260    6.0040    1.7930 hc        1 SK2      0.096200
     42 H1          2.2640    4.7350    2.1660 ha        1 SK2      0.153000
     43 H81        -3.5290    7.8500   -3.7460 h1        1 SK2      0.070200
     44 H82        -4.5060    7.8970   -2.1910 h1        1 SK2      0.070200
     45 H19        -4.0620    6.2510   -5.4830 ha        1 SK2      0.133500
     46 H9         -5.6760    4.6050   -6.4280 ha        1 SK2      0.146500
     47 H18        -6.0370    5.9760   -1.6390 ha        1 SK2      0.133500
     48 H10        -7.6480    4.3270   -2.5890 ha        1 SK2      0.146500
     49 H17        -7.4700    3.6410   -4.9830 ha        1 SK2      0.148000
     50 H321        2.9010    0.8850   -0.4060 hn        1 SK2      0.410300
     51 H12         0.7890    7.9570   -2.5340 hn        1 SK2      0.479300
@<TRIPOS>BOND
     1    1    2 1   
     2    2    3 1   
     3    2    4 2   
     4    5    6 1   
     5    5   30 1   
     6    5   50 1   
     7    6    7 ar  
     8    6    8 ar  
     9    7   19 ar  
    10    7   31 1   
    11    8    9 ar  
    12    8   32 1   
    13    9   10 1   
    14    9   18 ar  
    15   10   11 1   
    16   10   33 1   
    17   10   34 1   
    18   11   12 1   
    19   11   20 1   
    20   12   13 1   
    21   12   17 1   
    22   12   35 1   
    23   13   14 2   
    24   13   15 1   
    25   15   16 1   
    26   15   36 1   
    27   15   51 1   
    28   16   37 1   
    29   16   38 1   
    30   16   39 1   
    31   17   18 1   
    32   17   40 1   
    33   17   41 1   
    34   18   19 ar  
    35   19   42 1   
    36   20   21 2   
    37   20   22 1   
    38   22   23 1   
    39   23   24 1   
    40   23   43 1   
    41   23   44 1   
    42   24   25 ar  
    43   24   27 ar  
    44   25   26 ar  
    45   25   45 1   
    46   26   29 ar  
    47   26   46 1   
    48   27   28 ar  
    49   27   47 1   
    50   28   29 ar  
    51   28   48 1   
    52   29   49 1   
@<TRIPOS>SUBSTRUCTURE
     1 SK2         1 TEMP              0 ****  ****    0 ROOT
