@<TRIPOS>MOLECULE
SK2
   49    51     1     0     0
SMALL
bcc


@<TRIPOS>ATOM
      1 O6         -8.5440   47.3910   46.4940 o         1 SK2     -0.729200
      2 S1         -8.6760   48.3600   47.5120 s6        1 SK2      1.530700
      3 O4         -7.7330   48.2000   48.5530 o         1 SK2     -0.729200
      4 O5         -8.7850   49.6850   47.0200 o         1 SK2     -0.729200
      5 N3        -10.2460   48.1030   48.2200 nh        1 SK2     -0.714500
      6 C15       -10.6650   47.1670   49.1290 ca        1 SK2      0.264600
      7 C16        -9.7480   46.2520   49.7310 ca        1 SK2     -0.192000
      8 C14       -12.0270   47.0710   49.5180 ca        1 SK2     -0.246000
      9 C13       -12.4490   46.1120   50.4370 ca        1 SK2     -0.071300
     10 C12       -13.9080   46.0820   50.7860 c3        1 SK2      0.142300
     11 N2        -14.2930   45.1170   51.7970 n         1 SK2     -0.435800
     12 C4        -13.2940   44.5550   52.6840 c3        1 SK2      0.043700
     13 C5        -12.9690   45.4850   53.8820 c         1 SK2      0.647100
     14 O1        -13.1170   45.0550   55.0440 o         1 SK2     -0.625100
     15 N1        -12.5290   46.7590   53.6180 n         1 SK2     -0.554900
     16 C6        -12.0910   47.6460   54.6480 c3        1 SK2      0.077300
     17 C3        -11.9840   44.1860   51.9720 c3        1 SK2     -0.030100
     18 C2        -11.5380   45.2220   51.0110 ca        1 SK2     -0.185300
     19 C1        -10.1870   45.3110   50.6410 ca        1 SK2     -0.080000
     20 C7        -15.5320   44.5090   51.7330 c         1 SK2      0.747100
     21 O3        -15.9630   43.5690   52.4250 o         1 SK2     -0.597000
     22 O2        -16.3860   45.0650   50.7940 os        1 SK2     -0.439900
     23 C8        -17.6950   44.4680   50.7510 c3        1 SK2      0.194700
     24 C11       -18.4540   45.1120   49.6400 ca        1 SK2     -0.089300
     25 C19       -17.8060   45.7120   48.5560 ca        1 SK2     -0.114500
     26 C9        -18.5520   46.2760   47.5210 ca        1 SK2     -0.132500
     27 C18       -19.8540   45.0820   49.6810 ca        1 SK2     -0.114500
     28 C10       -20.5950   45.6420   48.6420 ca        1 SK2     -0.132500
     29 C17       -19.9450   46.2400   47.5610 ca        1 SK2     -0.132000
     30 HN3       -10.9670   48.7150   47.9140 hn        1 SK2      0.409800
     31 H16        -8.6750   46.3160   49.4750 ha        1 SK2      0.178000
     32 H14       -12.7690   47.7580   49.0850 ha        1 SK2      0.122000
     33 H121      -14.4920   45.8780   49.8390 h1        1 SK2      0.061200
     34 H122      -14.2150   47.1050   51.1580 h1        1 SK2      0.061200
     35 H4        -13.7250   43.6140   53.1540 h1        1 SK2      0.112700
     36 HN1       -12.2860   46.9950   52.6810 hn        1 SK2      0.332500
     37 H61       -10.9680   47.6920   54.6910 h1        1 SK2      0.040033
     38 H62       -12.4820   48.6780   54.4380 h1        1 SK2      0.040033
     39 H63       -12.4750   47.3010   55.6450 h1        1 SK2      0.040033
     40 H31       -12.1370   43.2150   51.4250 hc        1 SK2      0.057200
     41 H32       -11.1990   44.0080   52.7550 hc        1 SK2      0.057200
     42 H1         -9.4620   44.6150   51.0910 ha        1 SK2      0.121000
     43 H81       -18.1940   44.6320   51.7440 h1        1 SK2      0.063700
     44 H82       -17.5860   43.3640   50.5730 h1        1 SK2      0.063700
     45 H19       -16.7050   45.7440   48.5300 ha        1 SK2      0.141000
     46 H9        -18.0370   46.7500   46.6730 ha        1 SK2      0.130500
     47 H18       -20.3670   44.6160   50.5350 ha        1 SK2      0.141000
     48 H10       -21.6930   45.6140   48.6770 ha        1 SK2      0.130500
     49 H17       -20.5320   46.6830   46.7440 ha        1 SK2      0.127000
@<TRIPOS>BOND
     1    1    2 1   
     2    2    3 1   
     3    2    4 1   
     4    2    5 1   
     5    5    6 1   
     6    5   30 1   
     7    6    7 ar  
     8    6    8 ar  
     9    7   19 ar  
    10    7   31 1   
    11    8    9 ar  
    12    8   32 1   
    13    9   10 1   
    14    9   18 ar  
    15   10   11 1   
    16   10   33 1   
    17   10   34 1   
    18   11   12 1   
    19   11   20 1   
    20   12   13 1   
    21   12   17 1   
    22   12   35 1   
    23   13   14 2   
    24   13   15 1   
    25   15   16 1   
    26   15   36 1   
    27   16   37 1   
    28   16   38 1   
    29   16   39 1   
    30   17   18 1   
    31   17   40 1   
    32   17   41 1   
    33   18   19 ar  
    34   19   42 1   
    35   20   21 2   
    36   20   22 1   
    37   22   23 1   
    38   23   24 1   
    39   23   43 1   
    40   23   44 1   
    41   24   25 ar  
    42   24   27 ar  
    43   25   26 ar  
    44   25   45 1   
    45   26   29 ar  
    46   26   46 1   
    47   27   28 ar  
    48   27   47 1   
    49   28   29 ar  
    50   28   48 1   
    51   29   49 1   
@<TRIPOS>SUBSTRUCTURE
     1 SK2         1 TEMP              0 ****  ****    0 ROOT
