@<TRIPOS>MOLECULE
SK2
   50    52     1     0     0
SMALL
bcc


@<TRIPOS>ATOM
      1 O6          4.0750    2.0190   -0.0250 o         1 SK2     -0.739200
      2 S1          3.2220    2.1990   -1.1220 s6        1 SK2      1.552700
      3 O4          2.9910    3.6100   -1.3720 o         1 SK2     -0.739200
      4 O5          3.5190    1.4880   -2.2950 o         1 SK2     -0.739200
      5 N3          1.6500    1.6450   -0.6560 nh        1 SK2     -0.752500
      6 C15         0.8770    2.5070    0.0980 ca        1 SK2      0.219600
      7 C16         1.3670    2.9830    1.3460 ca        1 SK2     -0.162000
      8 C14        -0.3030    3.0960   -0.4300 ca        1 SK2     -0.187000
      9 C13        -0.7560    4.2940    0.1060 ca        1 SK2     -0.109300
     10 C12        -1.8070    5.1100   -0.5870 c3        1 SK2      0.125300
     11 N2         -1.3320    6.4720   -0.8290 n         1 SK2     -0.455800
     12 C4         -0.4130    7.0440    0.1330 c3        1 SK2      0.043700
     13 C5          1.0490    7.0490   -0.3710 c         1 SK2      0.532100
     14 O1          1.8270    7.9630   -0.1270 o         1 SK2     -0.448100
     15 N1          1.5760    5.8850   -1.1390 n4        1 SK2     -0.646800
     16 C6          2.2600    6.2780   -2.3920 c3        1 SK2      0.092100
     17 C3         -0.4120    6.2990    1.4920 c3        1 SK2     -0.038100
     18 C2         -0.1190    4.8710    1.2190 ca        1 SK2     -0.188300
     19 C1          0.8690    4.1540    1.8960 ca        1 SK2     -0.089000
     20 C7         -2.1710    7.3590   -1.5170 c         1 SK2      0.732100
     21 O3         -1.9990    8.5820   -1.6350 o         1 SK2     -0.569000
     22 O2         -3.2280    6.7530   -2.1460 os        1 SK2     -0.422900
     23 C8         -4.0210    7.6360   -2.9810 c3        1 SK2      0.196700
     24 C11        -5.0220    6.7800   -3.6770 ca        1 SK2     -0.109300
     25 C19        -5.1820    6.8910   -5.0620 ca        1 SK2     -0.106500
     26 C9         -6.1480    6.1260   -5.7150 ca        1 SK2     -0.130500
     27 C18        -5.8250    5.8920   -2.9530 ca        1 SK2     -0.106500
     28 C10        -6.7850    5.1240   -3.6110 ca        1 SK2     -0.130500
     29 C17        -6.9490    5.2420   -4.9910 ca        1 SK2     -0.114000
     30 HN3         1.1680    0.9460   -1.1630 hn        1 SK2      0.430800
     31 H16         2.2110    2.4570    1.8280 ha        1 SK2      0.184000
     32 H14        -0.8010    2.6530   -1.3050 ha        1 SK2      0.146000
     33 H121       -2.7410    5.1330    0.0460 h1        1 SK2      0.076200
     34 H122       -2.0770    4.6660   -1.5880 h1        1 SK2      0.076200
     35 H4         -0.6620    8.1400    0.3000 h1        1 SK2      0.132700
     36 HN1         0.8310    5.2080   -1.3590 hn        1 SK2      0.497300
     37 H61         3.0120    7.0790   -2.1690 hx        1 SK2      0.106033
     38 H62         1.5070    6.6530   -3.1310 hx        1 SK2      0.106033
     39 H63         2.7890    5.3600   -2.7890 hx        1 SK2      0.106033
     40 H31         0.3540    6.7620    2.1640 hc        1 SK2      0.081700
     41 H32        -1.4180    6.4260    1.9740 hc        1 SK2      0.081700
     42 H1          1.2900    4.5450    2.8360 ha        1 SK2      0.143000
     43 H81        -4.5160    8.3890   -2.3120 h1        1 SK2      0.067700
     44 H82        -3.3380    8.1630   -3.6970 h1        1 SK2      0.067700
     45 H19        -4.5490    7.5830   -5.6380 ha        1 SK2      0.136000
     46 H9         -6.2760    6.2190   -6.8040 ha        1 SK2      0.137500
     47 H18        -5.6890    5.8010   -1.8650 ha        1 SK2      0.136000
     48 H10        -7.4130    4.4250   -3.0390 ha        1 SK2      0.137500
     49 H17        -7.7080    4.6380   -5.5090 ha        1 SK2      0.137000
     50 H12         2.2730    5.3460   -0.5690 hn        1 SK2      0.497300
@<TRIPOS>BOND
     1    1    2 1   
     2    2    3 1   
     3    2    4 1   
     4    2    5 1   
     5    5    6 1   
     6    5   30 1   
     7    6    7 ar  
     8    6    8 ar  
     9    7   19 ar  
    10    7   31 1   
    11    8    9 ar  
    12    8   32 1   
    13    9   10 1   
    14    9   18 ar  
    15   10   11 1   
    16   10   33 1   
    17   10   34 1   
    18   11   12 1   
    19   11   20 1   
    20   12   13 1   
    21   12   17 1   
    22   12   35 1   
    23   13   14 2   
    24   13   15 1   
    25   15   16 1   
    26   15   36 1   
    27   15   50 1   
    28   16   37 1   
    29   16   38 1   
    30   16   39 1   
    31   17   18 1   
    32   17   40 1   
    33   17   41 1   
    34   18   19 ar  
    35   19   42 1   
    36   20   21 2   
    37   20   22 1   
    38   22   23 1   
    39   23   24 1   
    40   23   43 1   
    41   23   44 1   
    42   24   25 ar  
    43   24   27 ar  
    44   25   26 ar  
    45   25   45 1   
    46   26   29 ar  
    47   26   46 1   
    48   27   28 ar  
    49   27   47 1   
    50   28   29 ar  
    51   28   48 1   
    52   29   49 1   
@<TRIPOS>SUBSTRUCTURE
     1 SK2         1 TEMP              0 ****  ****    0 ROOT
