@<TRIPOS>MOLECULE
SK2
   50    52     1     0     0
SMALL
bcc


@<TRIPOS>ATOM
      1 O6          3.9830    1.9230    0.0770 o         1 SK2     -0.739200
      2 S1          3.1660    2.1330   -1.0420 s6        1 SK2      1.552700
      3 O4          2.9620    3.5510   -1.2750 o         1 SK2     -0.739200
      4 O5          3.4890    1.4370   -2.2170 o         1 SK2     -0.739200
      5 N3          1.5740    1.5930   -0.6330 nu        1 SK2     -0.752500
      6 C15         0.7890    2.4530    0.1120 ca        1 SK2      0.219600
      7 C16         1.2480    2.9020    1.3820 ca        1 SK2     -0.162000
      8 C14        -0.3650    3.0680   -0.4410 ca        1 SK2     -0.187000
      9 C13        -0.8190    4.2630    0.1010 ca        1 SK2     -0.109300
     10 C12        -1.8370    5.1040   -0.6100 c3        1 SK2      0.125300
     11 N2         -1.3370    6.4640   -0.8140 n         1 SK2     -0.455800
     12 C4         -0.4400    7.0060    0.1840 c3        1 SK2      0.043700
     13 C5          1.0360    7.0000   -0.2750 c         1 SK2      0.532100
     14 O1          1.8190    7.8990    0.0080 o         1 SK2     -0.448100
     15 N1          1.5710    5.8410   -1.0470 ny        1 SK2     -0.646800
     16 C6          2.2980    6.2450   -2.2710 c3        1 SK2      0.092100
     17 C3         -0.4910    6.2390    1.5300 c3        1 SK2     -0.038100
     18 C2         -0.2090    4.8120    1.2420 ca        1 SK2     -0.188300
     19 C1          0.7490    4.0710    1.9370 ca        1 SK2     -0.089000
     20 C7         -2.1420    7.3730   -1.5120 c         1 SK2      0.732100
     21 O3         -1.9500    8.5960   -1.6050 o         1 SK2     -0.569000
     22 O2         -3.1880    6.7930   -2.1840 os        1 SK2     -0.422900
     23 C8         -3.9420    7.7000   -3.0270 c3        1 SK2      0.196700
     24 C11        -4.9330    6.8700   -3.7690 ca        1 SK2     -0.109300
     25 C19        -5.0480    7.0060   -5.1570 ca        1 SK2     -0.106500
     26 C9         -6.0030    6.2660   -5.8520 ca        1 SK2     -0.130500
     27 C18        -5.7690    5.9810   -3.0860 ca        1 SK2     -0.106500
     28 C10        -6.7180    5.2370   -3.7860 ca        1 SK2     -0.130500
     29 C17        -6.8370    5.3810   -5.1680 ca        1 SK2     -0.114000
     30 HN3         1.0980    0.9090   -1.1660 hn        1 SK2      0.430800
     31 H16         2.0690    2.3560    1.8810 ha        1 SK2      0.184000
     32 H14        -0.8420    2.6460   -1.3390 ha        1 SK2      0.146000
     33 H121       -2.7900    5.1300   -0.0060 h1        1 SK2      0.076200
     34 H122       -2.0830    4.6810   -1.6260 h1        1 SK2      0.076200
     35 H4         -0.6790    8.1030    0.3620 h1        1 SK2      0.132700
     36 HN1         2.2430    5.2840   -0.4640 hn        1 SK2      0.497300
     37 H61         2.8270    5.3270   -2.6670 hx        1 SK2      0.106033
     38 H62         1.5740    6.6440   -3.0260 hx        1 SK2      0.106033
     39 H63         3.0540    7.0320   -2.0110 hx        1 SK2      0.106033
     40 H31         0.2610    6.6810    2.2330 hc        1 SK2      0.081700
     41 H32        -1.5090    6.3720    1.9840 hc        1 SK2      0.081700
     42 H1          1.1460    4.4400    2.8950 ha        1 SK2      0.143000
     43 H81        -3.2310    8.2300   -3.7130 h1        1 SK2      0.067700
     44 H82        -4.4490    8.4490   -2.3610 h1        1 SK2      0.067700
     45 H19        -4.3870    7.6990   -5.7000 ha        1 SK2      0.136000
     46 H9         -6.0950    6.3780   -6.9420 ha        1 SK2      0.137500
     47 H18        -5.6680    5.8690   -1.9960 ha        1 SK2      0.136000
     48 H10        -7.3730    4.5370   -3.2460 ha        1 SK2      0.137500
     49 H17        -7.5880    4.7950   -5.7200 ha        1 SK2      0.137000
     50 H12         0.8240    5.1790   -1.3000 hn        1 SK2      0.497300
@<TRIPOS>BOND
     1    1    2 1   
     2    2    3 1   
     3    2    4 1   
     4    2    5 1   
     5    5    6 1   
     6    5   30 1   
     7    6    7 ar  
     8    6    8 ar  
     9    7   19 ar  
    10    7   31 1   
    11    8    9 ar  
    12    8   32 1   
    13    9   10 1   
    14    9   18 ar  
    15   10   11 1   
    16   10   33 1   
    17   10   34 1   
    18   11   12 1   
    19   11   20 1   
    20   12   13 1   
    21   12   17 1   
    22   12   35 1   
    23   13   14 2   
    24   13   15 1   
    25   15   16 1   
    26   15   36 1   
    27   15   50 1   
    28   16   37 1   
    29   16   38 1   
    30   16   39 1   
    31   17   18 1   
    32   17   40 1   
    33   17   41 1   
    34   18   19 ar  
    35   19   42 1   
    36   20   21 2   
    37   20   22 1   
    38   22   23 1   
    39   23   24 1   
    40   23   43 1   
    41   23   44 1   
    42   24   25 ar  
    43   24   27 ar  
    44   25   26 ar  
    45   25   45 1   
    46   26   29 ar  
    47   26   46 1   
    48   27   28 ar  
    49   27   47 1   
    50   28   29 ar  
    51   28   48 1   
    52   29   49 1   
@<TRIPOS>SUBSTRUCTURE
     1 SK2         1 TEMP              0 ****  ****    0 ROOT
