@<TRIPOS>MOLECULE
SK3
   35    36     1     0     0
SMALL
bcc


@<TRIPOS>ATOM
      1 C5         -0.0760   -0.0520    0.0860 c3        1 SK3      0.065500
      2 N5         -0.6030    0.4490   -1.2150 n4        1 SK3     -0.743000
      3 C4          1.4740   -0.2140    0.1010 c3        1 SK3      0.119100
      4 O4          2.0960    0.6720   -0.7970 oh        1 SK3     -0.615300
      5 C3          1.9020    0.0190    1.5680 c3        1 SK3      0.100100
      6 O3          2.9600    0.9550    1.6090 oh        1 SK3     -0.593800
      7 C2          0.7020    0.6380    2.3200 c3        1 SK3      0.100100
      8 O2          0.9640    1.8830    2.9260 oh        1 SK3     -0.593800
      9 C1         -0.4250    0.8750    1.2860 c3        1 SK3      0.119100
     10 O1         -0.4890    2.2030    0.8120 oh        1 SK3     -0.615300
     11 C6         -0.8390   -0.6480   -2.2110 c3        1 SK3      0.179100
     12 C7         -1.2870   -0.0890   -3.5160 ca        1 SK3     -0.190300
     13 C12        -0.3400    0.4000   -4.4250 ca        1 SK3     -0.099000
     14 C11        -0.7550    0.8910   -5.6610 ca        1 SK3     -0.119500
     15 C8         -2.6470   -0.0850   -3.8490 ca        1 SK3     -0.099000
     16 C9         -3.0550    0.4050   -5.0880 ca        1 SK3     -0.119500
     17 C10        -2.1120    0.8940   -5.9930 ca        1 SK3     -0.078000
     18 H5         -0.5410   -1.0620    0.2840 hx        1 SK3      0.109700
     19 HN5         0.0850    1.1160   -1.6040 hn        1 SK3      0.466800
     20 H4          1.7560   -1.2430   -0.2590 h1        1 SK3      0.091200
     21 HO4         2.2990    1.5040   -0.3340 ho        1 SK3      0.463000
     22 H3          2.2030   -0.9530    2.0430 h1        1 SK3      0.083200
     23 HO3         3.7830    0.4780    1.4310 ho        1 SK3      0.450500
     24 H2          0.3490   -0.0770    3.1140 h1        1 SK3      0.083200
     25 HO2         1.9030    1.9330    3.1580 ho        1 SK3      0.450500
     26 H1         -1.4240    0.5970    1.7220 h1        1 SK3      0.091200
     27 HO1        -0.2930    2.8060    1.5480 ho        1 SK3      0.463000
     28 H61         0.1360   -1.2060   -2.3270 hx        1 SK3      0.102700
     29 H62        -1.6140   -1.3460   -1.7820 hx        1 SK3      0.102700
     30 H12         0.7310    0.3850   -4.1720 ha        1 SK3      0.140500
     31 H11        -0.0110    1.2720   -6.3790 ha        1 SK3      0.159000
     32 H8         -3.3940   -0.4810   -3.1440 ha        1 SK3      0.140500
     33 H9         -4.1250    0.4020   -5.3540 ha        1 SK3      0.159000
     34 H10        -2.4380    1.2800   -6.9730 ha        1 SK3      0.160000
     35 H52        -1.4740    0.9680   -1.0460 hn        1 SK3      0.466800
@<TRIPOS>BOND
     1    1    2 1   
     2    1    3 1   
     3    1    9 1   
     4    1   18 1   
     5    2   11 1   
     6    2   19 1   
     7    2   35 1   
     8    3    4 1   
     9    3    5 1   
    10    3   20 1   
    11    4   21 1   
    12    5    6 1   
    13    5    7 1   
    14    5   22 1   
    15    6   23 1   
    16    7    8 1   
    17    7    9 1   
    18    7   24 1   
    19    8   25 1   
    20    9   10 1   
    21    9   26 1   
    22   10   27 1   
    23   11   12 1   
    24   11   28 1   
    25   11   29 1   
    26   12   13 ar  
    27   12   15 ar  
    28   13   14 ar  
    29   13   30 1   
    30   14   17 ar  
    31   14   31 1   
    32   15   16 ar  
    33   15   32 1   
    34   16   17 ar  
    35   16   33 1   
    36   17   34 1   
@<TRIPOS>SUBSTRUCTURE
     1 SK3         1 TEMP              0 ****  ****    0 ROOT
