@<TRIPOS>MOLECULE
SK3
   34    33     1     0     0
SMALL
bcc


@<TRIPOS>ATOM
      1 C5          0.6780    0.9140    0.2450 c3        1 SK3     -0.088000
      2 N5          0.1120   -0.2130    0.0130 n3        1 SK3     -0.283000
      3 C4          2.2500    0.7300    0.3870 c3        1 SK3      0.000000
      4 O4          2.9230    1.3050   -0.7640 oh        1 SK3     -0.316000
      5 C3          2.5690    1.3820    1.4820 c3        1 SK3     -0.037500
      6 O3          2.9430    2.7720    1.1490 oh        1 SK3     -0.337000
      7 C2          1.2130    1.3680    2.4440 c3        1 SK3     -0.037500
      8 O2          1.2550    2.4730    3.3790 oh        1 SK3     -0.337000
      9 C1          0.1880    1.5060    1.6360 c3        1 SK3      0.000000
     10 O1         -0.1650    2.9210    1.4950 oh        1 SK3     -0.316000
     11 C6         -0.3160   -0.2530   -1.3770 c3        1 SK3     -0.046000
     12 C7         -1.4680   -1.3100   -1.5510 c2        1 SK3     -0.090000
     13 C12        -2.5040   -1.0810   -2.4950 c2        1 SK3     -0.110000
     14 C11        -3.4640   -2.0660   -2.7290 c1        1 SK3     -0.129000
     15 C8         -1.4150   -2.5010   -0.8710 c1        1 SK3     -0.130000
     16 C9         -2.3730   -3.4810   -1.1070 c1        1 SK3     -0.127000
     17 C10        -3.4050   -3.2520   -2.0470 c1        1 SK3     -0.127000
     18 H5          0.4940    1.5000   -0.4210 h1        1 SK3      0.126000
     19 HN5         0.7230   -0.8990    0.1670 hn        1 SK3      0.156000
     20 H4          2.4930   -0.2930    0.4830 h1        1 SK3      0.134000
     21 HO4         3.4860    0.7040   -1.1120 ho        1 SK3      0.215500
     22 H3          3.3090    0.9300    1.9370 h1        1 SK3      0.113500
     23 HO3         3.6570    3.0070    1.6110 ho        1 SK3      0.225500
     24 H2          1.1500    0.5290    2.9200 h1        1 SK3      0.113500
     25 HO2         1.2340    2.1840    4.1440 ho        1 SK3      0.225500
     26 H1         -0.5710    1.0030    1.9670 h1        1 SK3      0.134000
     27 HO1        -0.9640    3.0890    1.9530 ho        1 SK3      0.215500
     28 H61        -0.6480    0.6450   -1.6460 h1        1 SK3      0.094500
     29 H62         0.4220   -0.4960   -1.9270 h1        1 SK3      0.094500
     30 H12        -2.5450   -0.2380   -2.9780 ha        1 SK3      0.137000
     31 H11        -4.1800   -1.9110   -3.3810 ha        1 SK3      0.133000
     32 H8         -0.6710   -2.6700   -0.1900 ha        1 SK3      0.127000
     33 H9         -2.3330   -4.3580   -0.6060 ha        1 SK3      0.132500
     34 H10        -4.0750   -3.9390   -2.2110 ha        1 SK3      0.132500
@<TRIPOS>BOND
     1    1    2 1   
     2    1    3 1   
     3    1    9 1   
     4    1   18 1   
     5    2   11 1   
     6    2   19 1   
     7    3    4 1   
     8    3    5 1   
     9    3   20 1   
    10    4   21 1   
    11    5    6 1   
    12    5    7 1   
    13    5   22 1   
    14    6   23 1   
    15    7    8 1   
    16    7    9 1   
    17    7   24 1   
    18    8   25 1   
    19    9   10 1   
    20    9   26 1   
    21   10   27 1   
    22   11   12 1   
    23   11   28 1   
    24   11   29 1   
    25   12   13 1   
    26   12   15 1   
    27   13   14 1   
    28   13   30 1   
    29   14   31 1   
    30   15   32 1   
    31   16   17 1   
    32   16   33 1   
    33   17   34 1   
@<TRIPOS>SUBSTRUCTURE
     1 SK3         1 TEMP              0 ****  ****    0 ROOT
