@<TRIPOS>MOLECULE
SK3
   35    36     1     0     0
SMALL
bcc


@<TRIPOS>ATOM
      1 C5         -0.1170   -0.6000    0.2390 c3        1 SK3      0.096500
      2 N5         -0.5110    0.1780   -0.9740 n4        1 SK3     -0.745000
      3 C4          1.4170   -0.8080    0.3940 c3        1 SK3      0.113100
      4 O4          2.0460   -0.6730   -0.8640 oh        1 SK3     -0.608300
      5 C3          1.9290    0.2680    1.3850 c3        1 SK3      0.070600
      6 O3          2.8880    1.0970    0.7760 oh        1 SK3     -0.600300
      7 C2          0.6920    1.0560    1.8640 c3        1 SK3      0.070600
      8 O2          0.5310    2.2210    1.0680 oh        1 SK3     -0.600300
      9 C1         -0.5160    0.1550    1.5490 c3        1 SK3      0.113100
     10 O1         -1.7330    0.8400    1.3680 oh        1 SK3     -0.608300
     11 C6         -0.6280   -0.6740   -2.2040 c3        1 SK3      0.177100
     12 C7         -1.0590    0.1450   -3.3720 ca        1 SK3     -0.187300
     13 C12        -0.1060    0.6320   -4.2740 ca        1 SK3     -0.100000
     14 C11        -0.5170    1.3630   -5.3880 ca        1 SK3     -0.121000
     15 C8         -2.4200    0.3930   -3.5870 ca        1 SK3     -0.100000
     16 C9         -2.8250    1.1260   -4.7000 ca        1 SK3     -0.121000
     17 C10        -1.8740    1.6110   -5.6010 ca        1 SK3     -0.080000
     18 H5         -0.6430   -1.5950    0.1910 hx        1 SK3      0.121700
     19 HN5        -1.4170    0.6350   -0.7840 hn        1 SK3      0.461300
     20 H4          1.5950   -1.8410    0.8020 h1        1 SK3      0.101700
     21 HO4         3.0050   -0.6800   -0.7090 ho        1 SK3      0.455000
     22 H3          2.4700   -0.2060    2.2510 h1        1 SK3      0.112200
     23 HO3         2.4580    1.5690    0.0470 ho        1 SK3      0.434000
     24 H2          0.7500    1.3130    2.9530 h1        1 SK3      0.112200
     25 HO2         1.0840    2.9160    1.4520 ho        1 SK3      0.434000
     26 H1         -0.6710   -0.6060    2.3640 h1        1 SK3      0.101700
     27 HO1        -1.5950    1.7790    1.5710 ho        1 SK3      0.455000
     28 H61         0.3840   -1.1450   -2.3850 hx        1 SK3      0.111700
     29 H62        -1.3800   -1.4860   -1.9890 hx        1 SK3      0.111700
     30 H12         0.9640    0.4250   -4.1170 ha        1 SK3      0.140500
     31 H11         0.2320    1.7390   -6.1030 ha        1 SK3      0.158000
     32 H8         -3.1740   -0.0030   -2.8890 ha        1 SK3      0.140500
     33 H9         -3.8960    1.3170   -4.8730 ha        1 SK3      0.158000
     34 H10        -2.1960    2.1870   -6.4840 ha        1 SK3      0.159000
     35 H52         0.1900    0.9130   -1.1330 hn        1 SK3      0.461300
@<TRIPOS>BOND
     1    1    2 1   
     2    1    3 1   
     3    1    9 1   
     4    1   18 1   
     5    2   11 1   
     6    2   19 1   
     7    2   35 1   
     8    3    4 1   
     9    3    5 1   
    10    3   20 1   
    11    4   21 1   
    12    5    6 1   
    13    5    7 1   
    14    5   22 1   
    15    6   23 1   
    16    7    8 1   
    17    7    9 1   
    18    7   24 1   
    19    8   25 1   
    20    9   10 1   
    21    9   26 1   
    22   10   27 1   
    23   11   12 1   
    24   11   28 1   
    25   11   29 1   
    26   12   13 ar  
    27   12   15 ar  
    28   13   14 ar  
    29   13   30 1   
    30   14   17 ar  
    31   14   31 1   
    32   15   16 ar  
    33   15   32 1   
    34   16   17 ar  
    35   16   33 1   
    36   17   34 1   
@<TRIPOS>SUBSTRUCTURE
     1 SK3         1 TEMP              0 ****  ****    0 ROOT
