@<TRIPOS>MOLECULE
SK3
   34    35     1     0     0
SMALL
bcc


@<TRIPOS>ATOM
      1 C5          0.9830   -0.4220    0.8850 c3        1 SK3      0.148500
      2 N5         -0.3640   -0.5860    0.3970 n3        1 SK3     -0.804200
      3 C4          2.0220   -1.3510    0.1910 c3        1 SK3      0.107100
      4 O4          1.8320   -1.2590   -1.2100 oh        1 SK3     -0.606300
      5 C3          3.3930   -0.7650    0.6100 c3        1 SK3      0.075100
      6 O3          4.2800   -0.9330   -0.4770 oh        1 SK3     -0.603300
      7 C2          3.1510    0.7190    0.9810 c3        1 SK3      0.075100
      8 O2          3.9920    1.5650    0.2330 oh        1 SK3     -0.603300
      9 C1          1.6420    0.9840    0.7700 c3        1 SK3      0.107100
     10 O1          1.4090    1.5960   -0.4810 oh        1 SK3     -0.606300
     11 C6         -1.3130    0.3590    0.9610 c3        1 SK3      0.207100
     12 C7         -2.6840    0.2360    0.3620 ca        1 SK3     -0.094300
     13 C12        -3.3440   -0.9970    0.3490 ca        1 SK3     -0.114500
     14 C11        -4.6310   -1.0940   -0.1780 ca        1 SK3     -0.134000
     15 C8         -3.3200    1.3680   -0.1570 ca        1 SK3     -0.114500
     16 C9         -4.6090    1.2680   -0.6790 ca        1 SK3     -0.134000
     17 C10        -5.2660    0.0370   -0.6910 ca        1 SK3     -0.126000
     18 H5          0.9740   -0.6920    1.9820 h1        1 SK3      0.070700
     19 HN5        -0.3830   -0.5610   -0.6070 hn        1 SK3      0.383800
     20 H4          1.9110   -2.4150    0.5200 h1        1 SK3      0.077700
     21 HO4         2.6010   -1.6690   -1.6300 ho        1 SK3      0.429500
     22 H3          3.8000   -1.3240    1.4950 h1        1 SK3      0.069200
     23 HO3         4.9400   -0.2250   -0.4290 ho        1 SK3      0.429500
     24 H2          3.4340    0.9000    2.0540 h1        1 SK3      0.069200
     25 HO2         3.5330    1.8090   -0.5840 ho        1 SK3      0.429500
     26 H1          1.2450    1.7100    1.5260 h1        1 SK3      0.077700
     27 HO1         1.5030    0.9140   -1.1650 ho        1 SK3      0.429500
     28 H61        -1.3860    0.1430    2.0670 h1        1 SK3      0.041700
     29 H62        -0.9570    1.4270    0.8490 h1        1 SK3      0.041700
     30 H12        -2.8420   -1.8890    0.7520 ha        1 SK3      0.138500
     31 H11        -5.1460   -2.0660   -0.1880 ha        1 SK3      0.131000
     32 H8         -2.8040    2.3400   -0.1550 ha        1 SK3      0.138500
     33 H9         -5.1060    2.1610   -1.0840 ha        1 SK3      0.131000
     34 H10        -6.2820   -0.0410   -1.1040 ha        1 SK3      0.130000
@<TRIPOS>BOND
     1    1    2 1   
     2    1    3 1   
     3    1    9 1   
     4    1   18 1   
     5    2   11 1   
     6    2   19 1   
     7    3    4 1   
     8    3    5 1   
     9    3   20 1   
    10    4   21 1   
    11    5    6 1   
    12    5    7 1   
    13    5   22 1   
    14    6   23 1   
    15    7    8 1   
    16    7    9 1   
    17    7   24 1   
    18    8   25 1   
    19    9   10 1   
    20    9   26 1   
    21   10   27 1   
    22   11   12 1   
    23   11   28 1   
    24   11   29 1   
    25   12   13 ar  
    26   12   15 ar  
    27   13   14 ar  
    28   13   30 1   
    29   14   17 ar  
    30   14   31 1   
    31   15   16 ar  
    32   15   32 1   
    33   16   17 ar  
    34   16   33 1   
    35   17   34 1   
@<TRIPOS>SUBSTRUCTURE
     1 SK3         1 TEMP              0 ****  ****    0 ROOT
