@<TRIPOS>MOLECULE
SK3
   35    36     1     0     0
SMALL
bcc


@<TRIPOS>ATOM
      1 C5         -0.1220   -0.5810    0.2530 c3        1 SK3      0.096500
      2 N5         -0.5120    0.1810   -0.9720 ny        1 SK3     -0.745000
      3 C4          1.4120   -0.7890    0.4140 c3        1 SK3      0.113100
      4 O4          2.0440   -0.6710   -0.8440 oh        1 SK3     -0.608300
      5 C3          1.9230    0.3000    1.3930 c3        1 SK3      0.070600
      6 O3          2.8840    1.1190    0.7740 oh        1 SK3     -0.600300
      7 C2          0.6860    1.0960    1.8570 c3        1 SK3      0.070600
      8 O2          0.5280    2.2510    1.0450 oh        1 SK3     -0.600300
      9 C1         -0.5230    0.1930    1.5510 c3        1 SK3      0.113100
     10 O1         -1.7380    0.8770    1.3580 oh        1 SK3     -0.608300
     11 C6         -0.6270   -0.6870   -2.1910 c3        1 SK3      0.177100
     12 C7         -1.0540    0.1170   -3.3700 ca        1 SK3     -0.187300
     13 C12        -0.1000    0.5890   -4.2780 ca        1 SK3     -0.100000
     14 C11        -0.5070    1.3050   -5.4020 ca        1 SK3     -0.121000
     15 C8         -2.4150    0.3660   -3.5900 ca        1 SK3     -0.100000
     16 C9         -2.8160    1.0840   -4.7140 ca        1 SK3     -0.121000
     17 C10        -1.8630    1.5540   -5.6200 ca        1 SK3     -0.080000
     18 H5         -0.6490   -1.5760    0.2170 hx        1 SK3      0.121700
     19 HN5         0.1910    0.9130   -1.1390 hn        1 SK3      0.461300
     20 H4          1.5880   -1.8170    0.8370 h1        1 SK3      0.101700
     21 HO4         3.0020   -0.6780   -0.6870 ho        1 SK3      0.455000
     22 H3          2.4610   -0.1630    2.2660 h1        1 SK3      0.112200
     23 HO3         2.4570    1.5830    0.0380 ho        1 SK3      0.434000
     24 H2          0.7410    1.3670    2.9430 h1        1 SK3      0.112200
     25 HO2         1.0820    2.9500    1.4220 ho        1 SK3      0.434000
     26 H1         -0.6810   -0.5570    2.3760 h1        1 SK3      0.101700
     27 HO1        -1.6000    1.8180    1.5490 ho        1 SK3      0.455000
     28 H61         0.3840   -1.1620   -2.3620 hx        1 SK3      0.111700
     29 H62        -1.3810   -1.4950   -1.9660 hx        1 SK3      0.111700
     30 H12         0.9700    0.3820   -4.1170 ha        1 SK3      0.140000
     31 H11         0.2430    1.6700   -6.1220 ha        1 SK3      0.158000
     32 H8         -3.1700   -0.0180   -2.8870 ha        1 SK3      0.140000
     33 H9         -3.8860    1.2750   -4.8910 ha        1 SK3      0.158000
     34 H10        -2.1830    2.1180   -6.5120 ha        1 SK3      0.159000
     35 H52        -1.4170    0.6430   -0.7900 hn        1 SK3      0.461300
@<TRIPOS>BOND
     1    1    2 1   
     2    1    3 1   
     3    1    9 1   
     4    1   18 1   
     5    2   11 1   
     6    2   19 1   
     7    2   35 1   
     8    3    4 1   
     9    3    5 1   
    10    3   20 1   
    11    4   21 1   
    12    5    6 1   
    13    5    7 1   
    14    5   22 1   
    15    6   23 1   
    16    7    8 1   
    17    7    9 1   
    18    7   24 1   
    19    8   25 1   
    20    9   10 1   
    21    9   26 1   
    22   10   27 1   
    23   11   12 1   
    24   11   28 1   
    25   11   29 1   
    26   12   13 ar  
    27   12   15 ar  
    28   13   14 ar  
    29   13   30 1   
    30   14   17 ar  
    31   14   31 1   
    32   15   16 ar  
    33   15   32 1   
    34   16   17 ar  
    35   16   33 1   
    36   17   34 1   
@<TRIPOS>SUBSTRUCTURE
     1 SK3         1 TEMP              0 ****  ****    0 ROOT
