@<TRIPOS>MOLECULE
SK4
   44    46     1     0     0
SMALL
bcc


@<TRIPOS>ATOM
      1 O23         1.5560   -0.4130    0.5740 o         1 SK4     -0.643800
      2 S18         2.6630   -0.2680   -0.2630 sy        1 SK4      1.395300
      3 O22         3.9350   -0.5630    0.2430 o         1 SK4     -0.643800
      4 C21         2.4100   -1.1180   -1.6940 c3        1 SK4     -0.373300
      5 C12         2.6860    1.3190   -0.8760 ca        1 SK4     -0.366500
      6 C17         1.4850    1.9470   -1.2480 ca        1 SK4      0.014000
      7 C11         1.4710    3.2570   -1.6850 ca        1 SK4     -0.191300
      8 C5          2.6800    3.9930   -1.7660 ca        1 SK4      0.482600
      9 N10         2.6140    5.3360   -2.1470 nb        1 SK4     -0.656000
     10 C7          3.7010    6.0470   -2.0730 ca        1 SK4      0.475200
     11 C13         5.0050    5.5580   -1.6910 ca        1 SK4     -0.485900
     12 C8          6.0960    6.4430   -1.4740 c         1 SK4      0.586700
     13 O14         7.2980    6.2420   -1.2830 o         1 SK4     -0.517100
     14 N3          5.7740    7.9360   -1.4050 nz        1 SK4     -0.754400
     15 C2          3.9170    3.3560   -1.4360 ca        1 SK4     -0.237300
     16 C6          3.8760    2.0290   -0.9680 ca        1 SK4      0.036000
     17 C1          5.1570    4.1260   -1.5540 ca        1 SK4      0.387600
     18 N4          6.3860    3.5770   -1.5650 nu        1 SK4     -0.566000
     19 C9          6.7430    2.1970   -1.5490 ca        1 SK4      0.077600
     20 C15         7.3220    1.6570   -0.3880 ca        1 SK4     -0.154000
     21 C19         7.7550    0.3180   -0.4050 ca        1 SK4      0.163100
     22 O25         8.3220   -0.1100    0.7720 os        1 SK4     -0.314900
     23 C26         8.5960   -1.5070    0.8740 c3        1 SK4      0.107700
     24 C24         7.6170   -0.4690   -1.5580 ca        1 SK4     -0.168000
     25 C20         7.0470    0.0910   -2.6980 ca        1 SK4     -0.082000
     26 C16         6.6080    1.4130   -2.7120 ca        1 SK4     -0.160000
     27 H21         2.2310   -2.2080   -1.4910 h1        1 SK4      0.124033
     28 H21A        3.2780   -1.0780   -2.3970 h1        1 SK4      0.124033
     29 H21B        1.5180   -0.7710   -2.2720 h1        1 SK4      0.124033
     30 H17         0.5340    1.3880   -1.1610 ha        1 SK4      0.171000
     31 H11         0.5190    3.7450   -1.9550 ha        1 SK4      0.179000
     32 H7          3.5700    7.1040   -2.3780 h4        1 SK4      0.005100
     33 HN3         5.4980    8.2780   -2.3280 hn        1 SK4      0.462800
     34 HN3A        5.0120    8.1000   -0.7440 hn        1 SK4      0.462800
     35 H6          4.7980    1.5200   -0.6200 ha        1 SK4      0.184000
     36 HN4         7.1900    4.1820   -1.5840 hn        1 SK4      0.479800
     37 H15         7.4480    2.2440    0.5340 ha        1 SK4      0.167000
     38 H26         8.9540   -1.6170    1.9300 h1        1 SK4      0.058700
     39 H26A        7.6680   -2.1040    0.7050 h1        1 SK4      0.058700
     40 H26B        9.3970   -1.7980    0.1530 h1        1 SK4      0.058700
     41 H24         7.9520   -1.5160   -1.5680 ha        1 SK4      0.161000
     42 H20         6.9470   -0.5200   -3.6100 ha        1 SK4      0.154000
     43 H16         6.1690    1.8330   -3.6300 ha        1 SK4      0.149000
     44 H33         6.6130    8.4430   -1.0960 hn        1 SK4      0.462800
@<TRIPOS>BOND
     1    1    2 2   
     2    2    3 2   
     3    2    4 1   
     4    2    5 1   
     5    4   27 1   
     6    4   28 1   
     7    4   29 1   
     8    5    6 ar  
     9    5   16 ar  
    10    6    7 ar  
    11    6   30 1   
    12    7    8 ar  
    13    7   31 1   
    14    8    9 ar  
    15    8   15 ar  
    16    9   10 ar  
    17   10   11 ar  
    18   10   32 1   
    19   11   12 1   
    20   11   17 ar  
    21   12   13 2   
    22   12   14 1   
    23   14   33 1   
    24   14   34 1   
    25   14   44 1   
    26   15   16 ar  
    27   15   17 ar  
    28   16   35 1   
    29   17   18 1   
    30   18   19 1   
    31   18   36 1   
    32   19   20 ar  
    33   19   26 ar  
    34   20   21 ar  
    35   20   37 1   
    36   21   22 1   
    37   21   24 ar  
    38   22   23 1   
    39   23   38 1   
    40   23   39 1   
    41   23   40 1   
    42   24   25 ar  
    43   24   41 1   
    44   25   26 ar  
    45   25   42 1   
    46   26   43 1   
@<TRIPOS>SUBSTRUCTURE
     1 SK4         1 TEMP              0 ****  ****    0 ROOT
