@<TRIPOS>MOLECULE
SK4
   43    45     1     0     0
SMALL
bcc


@<TRIPOS>ATOM
      1 O23         4.3420    2.1460   -0.2230 o         1 SK4     -0.655300
      2 S18         2.9530    2.0330   -0.0700 sy        1 SK4      1.399300
      3 O22         2.3690    2.6660    1.0350 o         1 SK4     -0.655300
      4 C21         2.1940    2.5900   -1.4790 c3        1 SK4     -0.360300
      5 C12         2.4960    0.4210   -0.1280 ca        1 SK4     -0.399500
      6 C17         3.4400   -0.5650   -0.5120 ca        1 SK4     -0.026000
      7 C11         3.1130   -1.8950   -0.5310 ca        1 SK4     -0.199300
      8 C5          1.7930   -2.3240   -0.1800 ca        1 SK4      0.475600
      9 N10         1.5170   -3.6770   -0.1490 nb        1 SK4     -0.693000
     10 C7          0.2960   -4.0460    0.1860 ca        1 SK4      0.481200
     11 C13        -0.7800   -3.1550    0.4710 ca        1 SK4     -0.363900
     12 C8         -2.1160   -3.7180    0.7900 c         1 SK4      0.687700
     13 O14        -2.8540   -3.2440    1.6840 o         1 SK4     -0.632100
     14 N3         -2.5500   -4.8020    0.0690 n         1 SK4     -0.666000
     15 C2          0.8140   -1.3340    0.1510 ca        1 SK4     -0.217300
     16 C6          1.2190    0.0200    0.2150 ca        1 SK4      0.047000
     17 C1         -0.5380   -1.7680    0.4550 ca        1 SK4      0.298600
     18 N4         -1.5410   -0.8720    0.7840 nh        1 SK4     -0.644000
     19 C9         -1.8390    0.3070    0.0770 ca        1 SK4      0.175600
     20 C15        -2.7000    1.2460    0.6820 ca        1 SK4     -0.189000
     21 C19        -3.0230    2.4270   -0.0060 ca        1 SK4      0.158100
     22 O25        -3.8780    3.2660    0.6790 os        1 SK4     -0.321900
     23 C26        -4.1810    4.5060    0.0490 c3        1 SK4      0.112700
     24 C24        -2.5050    2.6930   -1.2790 ca        1 SK4     -0.224000
     25 C20        -1.6600    1.7540   -1.8670 ca        1 SK4     -0.074000
     26 C16        -1.3290    0.5720   -1.2150 ca        1 SK4     -0.222000
     27 H21         2.6790    2.2120   -2.4120 h1        1 SK4      0.114367
     28 H21A        1.1130    2.3060   -1.5410 h1        1 SK4      0.114367
     29 H21B        2.2270    3.7080   -1.5380 h1        1 SK4      0.114367
     30 H17         4.4630   -0.2370   -0.7780 ha        1 SK4      0.166000
     31 H11         3.8630   -2.6540   -0.8060 ha        1 SK4      0.162000
     32 H7          0.1330   -5.1410    0.2420 h4        1 SK4      0.028100
     33 HN3        -2.0190   -5.1690   -0.6780 hn        1 SK4      0.317000
     34 HN3A       -3.4380   -5.1910    0.2670 hn        1 SK4      0.317000
     35 H6          0.5040    0.7890    0.5670 ha        1 SK4      0.166000
     36 HN4        -2.2960   -1.2380    1.3400 hn        1 SK4      0.478800
     37 H15        -3.1260    1.0790    1.6830 ha        1 SK4      0.164000
     38 H26        -3.2520    5.1020   -0.1190 h1        1 SK4      0.047700
     39 H26A       -4.7200    4.3360   -0.9140 h1        1 SK4      0.047700
     40 H26B       -4.8480    5.0150    0.7910 h1        1 SK4      0.047700
     41 H24        -2.7550    3.6190   -1.8140 ha        1 SK4      0.143000
     42 H20        -1.2530    1.9480   -2.8720 ha        1 SK4      0.136000
     43 H16        -0.6720   -0.1570   -1.7110 ha        1 SK4      0.142000
@<TRIPOS>BOND
     1    1    2 2   
     2    2    3 2   
     3    2    4 1   
     4    2    5 1   
     5    4   27 1   
     6    4   28 1   
     7    4   29 1   
     8    5    6 ar  
     9    5   16 ar  
    10    6    7 ar  
    11    6   30 1   
    12    7    8 ar  
    13    7   31 1   
    14    8    9 ar  
    15    8   15 ar  
    16    9   10 ar  
    17   10   11 ar  
    18   10   32 1   
    19   11   12 1   
    20   11   17 ar  
    21   12   13 2   
    22   12   14 1   
    23   14   33 1   
    24   14   34 1   
    25   15   16 ar  
    26   15   17 ar  
    27   16   35 1   
    28   17   18 1   
    29   18   19 1   
    30   18   36 1   
    31   19   20 ar  
    32   19   26 ar  
    33   20   21 ar  
    34   20   37 1   
    35   21   22 1   
    36   21   24 ar  
    37   22   23 1   
    38   23   38 1   
    39   23   39 1   
    40   23   40 1   
    41   24   25 ar  
    42   24   41 1   
    43   25   26 ar  
    44   25   42 1   
    45   26   43 1   
@<TRIPOS>SUBSTRUCTURE
     1 SK4         1 TEMP              0 ****  ****    0 ROOT
