@<TRIPOS>MOLECULE
SK4
   45    47     1     0     0
SMALL
bcc


@<TRIPOS>ATOM
      1 O23        -0.4060    0.4990    0.2230 o         1 SK4     -0.621300
      2 S18         0.7950    0.1040   -0.3430 sy        1 SK4      1.385300
      3 O22         1.8160   -0.4190    0.4550 o         1 SK4     -0.621300
      4 C21         0.5650   -0.8160   -1.7110 c3        1 SK4     -0.404300
      5 C12         1.5100    1.5360   -1.0640 ca        1 SK4     -0.253500
      6 C17         0.7600    2.3770   -1.9210 ca        1 SK4      0.020000
      7 C11         1.3060    3.5300   -2.4370 ca        1 SK4     -0.162300
      8 C5          2.6330    3.9170   -2.0870 ca        1 SK4      0.482600
      9 N10         3.1520    5.0860   -2.6030 nb        1 SK4     -0.574000
     10 C7          4.3530    5.4680   -2.2340 ca        1 SK4      0.443200
     11 C13         5.1920    4.7520   -1.3080 ca        1 SK4     -0.318900
     12 C8          6.4670    5.3180   -0.8840 c         1 SK4      0.581700
     13 O14         7.1280    5.0330    0.1110 o         1 SK4     -0.444100
     14 N3          7.0860    6.3970   -1.7360 n4        1 SK4     -0.745400
     15 C2          3.3970    3.0860   -1.1840 ca        1 SK4     -0.178300
     16 C6          2.7950    1.8830   -0.7200 ca        1 SK4     -0.042000
     17 C1          4.6920    3.5410   -0.7940 ca        1 SK4      0.169600
     18 N4          5.4710    2.7430    0.1690 n4        1 SK4     -0.536800
     19 C9          6.4680    1.8550   -0.4640 ca        1 SK4     -0.037400
     20 C15         7.8230    2.0620   -0.1670 ca        1 SK4     -0.173000
     21 C19         8.7700    1.1690   -0.7050 ca        1 SK4      0.175100
     22 O25        10.0670    1.4620   -0.3850 os        1 SK4     -0.311900
     23 C26        11.0620    0.4990   -0.7570 c3        1 SK4      0.102700
     24 C24         8.3610    0.0920   -1.5130 ca        1 SK4     -0.142000
     25 C20         7.0100   -0.0810   -1.7910 ca        1 SK4     -0.056000
     26 C16         6.0480    0.7940   -1.2790 ca        1 SK4     -0.141000
     27 H21         1.5070   -1.2280   -2.1540 h1        1 SK4      0.144033
     28 H21A       -0.0710   -1.7220   -1.4940 h1        1 SK4      0.144033
     29 H21B        0.0300   -0.2950   -2.5460 h1        1 SK4      0.144033
     30 H17        -0.2870    2.1070   -2.1640 ha        1 SK4      0.193000
     31 H11         0.7190    4.1770   -3.1180 ha        1 SK4      0.205000
     32 H7          4.6770    6.4270   -2.6840 h4        1 SK4      0.041100
     33 HN3         6.5420    7.2670   -1.6560 hn        1 SK4      0.488467
     34 HN3A        8.0480    6.5830   -1.4080 hn        1 SK4      0.488467
     35 H6          3.3410    1.1830   -0.0550 ha        1 SK4      0.171000
     36 HN4         5.9610    3.3760    0.8270 hn        1 SK4      0.486300
     37 H15         8.1780    2.8740    0.4890 ha        1 SK4      0.177000
     38 H26        10.8320   -0.4960   -0.3070 h1        1 SK4      0.073367
     39 H26A       11.9980    0.9310   -0.3160 h1        1 SK4      0.073367
     40 H26B       11.1370    0.4350   -1.8690 h1        1 SK4      0.073367
     41 H24         9.1030   -0.6170   -1.9190 ha        1 SK4      0.186000
     42 H20         6.6840   -0.9270   -2.4220 ha        1 SK4      0.183000
     43 H16         4.9850    0.6270   -1.5130 ha        1 SK4      0.158000
     44 H33         7.1140    6.1070   -2.7200 hn        1 SK4      0.488467
     45 H42         4.8280    2.1520    0.7240 hn        1 SK4      0.486300
@<TRIPOS>BOND
     1    1    2 2   
     2    2    3 2   
     3    2    4 1   
     4    2    5 1   
     5    4   27 1   
     6    4   28 1   
     7    4   29 1   
     8    5    6 ar  
     9    5   16 ar  
    10    6    7 ar  
    11    6   30 1   
    12    7    8 ar  
    13    7   31 1   
    14    8    9 ar  
    15    8   15 ar  
    16    9   10 ar  
    17   10   11 ar  
    18   10   32 1   
    19   11   12 1   
    20   11   17 ar  
    21   12   13 2   
    22   12   14 1   
    23   14   33 1   
    24   14   34 1   
    25   14   44 1   
    26   15   16 ar  
    27   15   17 ar  
    28   16   35 1   
    29   17   18 1   
    30   18   19 1   
    31   18   36 1   
    32   18   45 1   
    33   19   20 ar  
    34   19   26 ar  
    35   20   21 ar  
    36   20   37 1   
    37   21   22 1   
    38   21   24 ar  
    39   22   23 1   
    40   23   38 1   
    41   23   39 1   
    42   23   40 1   
    43   24   25 ar  
    44   24   41 1   
    45   25   26 ar  
    46   25   42 1   
    47   26   43 1   
@<TRIPOS>SUBSTRUCTURE
     1 SK4         1 TEMP              0 ****  ****    0 ROOT
