@<TRIPOS>MOLECULE
SK4
   44    46     1     0     0
SMALL
bcc


@<TRIPOS>ATOM
      1 O23         1.5910   -0.3990    0.6560 o         1 SK4     -0.643800
      2 S18         2.6790   -0.2600   -0.2060 sy        1 SK4      1.395300
      3 O22         3.9610   -0.5560    0.2740 o         1 SK4     -0.643800
      4 C21         2.3940   -1.1160   -1.6270 c3        1 SK4     -0.373300
      5 C12         2.6940    1.3230   -0.8260 ca        1 SK4     -0.366500
      6 C17         1.4860    1.9530   -1.1750 ca        1 SK4      0.014000
      7 C11         1.4660    3.2620   -1.6170 ca        1 SK4     -0.191300
      8 C5          2.6750    3.9940   -1.7270 ca        1 SK4      0.482600
      9 N10         2.6040    5.3360   -2.1120 nb        1 SK4     -0.656000
     10 C7          3.6950    6.0440   -2.0650 ca        1 SK4      0.475200
     11 C13         5.0050    5.5530   -1.7080 ca        1 SK4     -0.485900
     12 C8          6.1020    6.4360   -1.5180 c         1 SK4      0.586700
     13 O14         7.3080    6.2330   -1.3520 o         1 SK4     -0.517100
     14 N3          5.7860    7.9310   -1.4490 n4        1 SK4     -0.754400
     15 C2          3.9170    3.3550   -1.4210 ca        1 SK4     -0.237300
     16 C6          3.8830    2.0300   -0.9460 ca        1 SK4      0.036000
     17 C1          5.1570    4.1210   -1.5680 ca        1 SK4      0.387600
     18 N4          6.3830    3.5700   -1.6030 nh        1 SK4     -0.566000
     19 C9          6.7380    2.1880   -1.5880 ca        1 SK4      0.077600
     20 C15         7.3390    1.6520   -0.4370 ca        1 SK4     -0.154000
     21 C19         7.7680    0.3120   -0.4560 ca        1 SK4      0.163100
     22 O25         8.3590   -0.1110    0.7100 os        1 SK4     -0.314900
     23 C26         8.6310   -1.5090    0.8140 c3        1 SK4      0.107700
     24 C24         7.6040   -0.4790   -1.6020 ca        1 SK4     -0.168000
     25 C20         7.0120    0.0770   -2.7330 ca        1 SK4     -0.082000
     26 C16         6.5760    1.3990   -2.7440 ca        1 SK4     -0.160000
     27 H21         3.2470   -1.0830   -2.3480 h1        1 SK4      0.124033
     28 H21A        2.2150   -2.2040   -1.4150 h1        1 SK4      0.124033
     29 H21B        1.4910   -0.7680   -2.1890 h1        1 SK4      0.124033
     30 H17         0.5350    1.3970   -1.0650 ha        1 SK4      0.171000
     31 H11         0.5090    3.7510   -1.8690 ha        1 SK4      0.179000
     32 H7          3.5600    7.1000   -2.3710 h4        1 SK4      0.005100
     33 HN3         5.4910    8.2690   -2.3670 hn        1 SK4      0.462800
     34 HN3A        6.6320    8.4360   -1.1600 hn        1 SK4      0.462800
     35 H6          4.8110    1.5210   -0.6150 ha        1 SK4      0.184000
     36 HN4         7.1890    4.1720   -1.6420 hn        1 SK4      0.479800
     37 H15         7.4860    2.2430    0.4800 ha        1 SK4      0.167000
     38 H26         7.6980   -2.1050    0.6670 h1        1 SK4      0.058700
     39 H26A        9.4160   -1.8060    0.0770 h1        1 SK4      0.058700
     40 H26B        9.0110   -1.6150    1.8630 h1        1 SK4      0.058700
     41 H24         7.9370   -1.5280   -1.6140 ha        1 SK4      0.161000
     42 H20         6.8910   -0.5380   -3.6400 ha        1 SK4      0.154000
     43 H16         6.1190    1.8160   -3.6540 ha        1 SK4      0.149000
     44 H33         5.0380    8.1000   -0.7730 hn        1 SK4      0.462800
@<TRIPOS>BOND
     1    1    2 2   
     2    2    3 2   
     3    2    4 1   
     4    2    5 1   
     5    4   27 1   
     6    4   28 1   
     7    4   29 1   
     8    5    6 ar  
     9    5   16 ar  
    10    6    7 ar  
    11    6   30 1   
    12    7    8 ar  
    13    7   31 1   
    14    8    9 ar  
    15    8   15 ar  
    16    9   10 ar  
    17   10   11 ar  
    18   10   32 1   
    19   11   12 1   
    20   11   17 ar  
    21   12   13 2   
    22   12   14 1   
    23   14   33 1   
    24   14   34 1   
    25   14   44 1   
    26   15   16 ar  
    27   15   17 ar  
    28   16   35 1   
    29   17   18 1   
    30   18   19 1   
    31   18   36 1   
    32   19   20 ar  
    33   19   26 ar  
    34   20   21 ar  
    35   20   37 1   
    36   21   22 1   
    37   21   24 ar  
    38   22   23 1   
    39   23   38 1   
    40   23   39 1   
    41   23   40 1   
    42   24   25 ar  
    43   24   41 1   
    44   25   26 ar  
    45   25   42 1   
    46   26   43 1   
@<TRIPOS>SUBSTRUCTURE
     1 SK4         1 TEMP              0 ****  ****    0 ROOT
