@<TRIPOS>MOLECULE
SK6
   50    52     1     0     0
SMALL
bcc


@<TRIPOS>ATOM
      1 N01         0.0730    0.2110   -0.2200 nb        1 SK6     -0.731000
      2 C02         1.4390    0.3030   -0.1670 ca        1 SK6      0.634200
      3 C03         2.1570    0.2090    1.0640 ca        1 SK6     -0.301300
      4 C04         1.4480   -0.0120    2.2430 ca        1 SK6     -0.005300
      5 C05         0.0540   -0.1250    2.1850 ca        1 SK6     -0.293300
      6 C06        -0.5890   -0.0080    0.9380 ca        1 SK6      0.450600
      7 N07         2.1580    0.4200   -1.3670 nv        1 SK6     -0.924500
      8 C08         2.1570   -0.1400    3.5370 c3        1 SK6     -0.060800
      9 C09        -2.0870   -0.1440    0.8900 c3        1 SK6     -0.126700
     10 C10        -2.7530    1.1150    0.3620 c3        1 SK6     -0.036100
     11 C11        -4.2380    0.9910    0.3920 ca        1 SK6     -0.049300
     12 C12        -4.9820    1.6920    1.3370 ca        1 SK6     -0.168000
     13 C13        -6.3950    1.5870    1.3760 ca        1 SK6      0.145600
     14 C14        -7.0370    0.7690    0.4220 ca        1 SK6     -0.154000
     15 C15        -6.2770    0.0720   -0.5240 ca        1 SK6      0.018000
     16 C16        -4.8830    0.1760   -0.5470 ca        1 SK6     -0.131000
     17 N17        -7.1070    2.2230    2.4060 nu        1 SK6     -0.728600
     18 C18        -8.5170    2.4830    2.2000 c3        1 SK6      0.182800
     19 C19        -9.0920    3.4510    3.2380 c3        1 SK6     -0.137700
     20 C20       -10.5730    3.6000    3.0420 ca        1 SK6      0.403600
     21 N21       -11.0270    4.2500    1.9390 nb        1 SK6     -0.666000
     22 C22       -12.3560    4.3790    1.7950 ca        1 SK6      0.399200
     23 C23       -13.2970    3.8820    2.7160 ca        1 SK6     -0.245300
     24 C24       -12.8230    3.2160    3.8450 ca        1 SK6     -0.091000
     25 C25       -11.4460    3.0690    4.0160 ca        1 SK6     -0.240300
     26 C26        -6.9380   -0.7520   -1.4780 cg        1 SK6      0.236800
     27 N27        -7.4780   -1.4260   -2.2580 n1        1 SK6     -0.368800
     28 H03         3.2510    0.2950    1.0790 ha        1 SK6      0.141000
     29 H05        -0.5290   -0.3000    3.0980 ha        1 SK6      0.142000
     30 HN07        1.6250    0.6630   -2.1730 hn        1 SK6      0.401800
     31 HN0A        3.0060    0.9330   -1.2760 hn        1 SK6      0.401800
     32 H08         1.5660    0.3330    4.3600 hc        1 SK6      0.049367
     33 H08A        2.2970   -1.2230    3.7850 hc        1 SK6      0.049367
     34 H08B        3.1630    0.3440    3.4970 hc        1 SK6      0.049367
     35 H09        -2.4670   -0.3660    1.9220 hc        1 SK6      0.060700
     36 H09A       -2.3620   -1.0150    0.2350 hc        1 SK6      0.060700
     37 H10        -2.4200    1.3030   -0.6950 hc        1 SK6      0.061200
     38 H10A       -2.4260    1.9960    0.9770 hc        1 SK6      0.061200
     39 H12        -4.4590    2.3300    2.0660 ha        1 SK6      0.136000
     40 H14        -8.1320    0.6650    0.4130 ha        1 SK6      0.148000
     41 H16        -4.2930   -0.3730   -1.2960 ha        1 SK6      0.148000
     42 HN17       -6.6140    2.9980    2.8000 hn        1 SK6      0.394800
     43 H18        -9.0570    1.4970    2.2840 h1        1 SK6      0.053700
     44 H18A       -8.7140    2.8960    1.1680 h1        1 SK6      0.053700
     45 H19        -8.8950    3.0670    4.2750 hc        1 SK6      0.061700
     46 H19A       -8.5960    4.4540    3.1460 hc        1 SK6      0.061700
     47 H22       -12.6850    4.9130    0.8850 h4        1 SK6      0.024100
     48 H23       -14.3720    4.0190    2.5430 ha        1 SK6      0.146000
     49 H24       -13.5220    2.8100    4.5920 ha        1 SK6      0.140000
     50 H25       -11.0430    2.5470    4.8950 ha        1 SK6      0.145000
@<TRIPOS>BOND
     1    1    2 ar  
     2    1    6 ar  
     3    2    3 ar  
     4    2    7 1   
     5    3    4 ar  
     6    3   28 1   
     7    4    5 ar  
     8    4    8 1   
     9    5    6 ar  
    10    5   29 1   
    11    6    9 1   
    12    7   30 1   
    13    7   31 1   
    14    8   32 1   
    15    8   33 1   
    16    8   34 1   
    17    9   10 1   
    18    9   35 1   
    19    9   36 1   
    20   10   11 1   
    21   10   37 1   
    22   10   38 1   
    23   11   12 ar  
    24   11   16 ar  
    25   12   13 ar  
    26   12   39 1   
    27   13   14 ar  
    28   13   17 1   
    29   14   15 ar  
    30   14   40 1   
    31   15   16 ar  
    32   15   26 1   
    33   16   41 1   
    34   17   18 1   
    35   17   42 1   
    36   18   19 1   
    37   18   43 1   
    38   18   44 1   
    39   19   20 1   
    40   19   45 1   
    41   19   46 1   
    42   20   21 ar  
    43   20   25 ar  
    44   21   22 ar  
    45   22   23 ar  
    46   22   47 1   
    47   23   24 ar  
    48   23   48 1   
    49   24   25 ar  
    50   24   49 1   
    51   25   50 1   
    52   26   27 3   
@<TRIPOS>SUBSTRUCTURE
     1 SK6         1 TEMP              0 ****  ****    0 ROOT
