@<TRIPOS>MOLECULE
SK6
   50    52     1     0     0
SMALL
bcc


@<TRIPOS>ATOM
      1 N01         0.0780    0.2600   -0.2210 nb        1 SK6     -0.731000
      2 C02         1.4420    0.3810   -0.1600 ca        1 SK6      0.633200
      3 C03         2.1620    0.2210    1.0620 ca        1 SK6     -0.301300
      4 C04         1.4550   -0.0370    2.2340 ca        1 SK6     -0.005300
      5 C05         0.0590   -0.1400    2.1750 ca        1 SK6     -0.292300
      6 C06        -0.5850    0.0160    0.9320 ca        1 SK6      0.449600
      7 N07         2.1430    0.7450   -1.3220 nh        1 SK6     -0.923500
      8 C08         2.1610   -0.1900    3.5260 c3        1 SK6     -0.060800
      9 C09        -2.0820   -0.1220    0.8790 c3        1 SK6     -0.125700
     10 C10        -2.7480    1.1480    0.3790 c3        1 SK6     -0.036100
     11 C11        -4.2340    1.0210    0.4010 ca        1 SK6     -0.048300
     12 C12        -4.9840    1.7150    1.3470 ca        1 SK6     -0.168000
     13 C13        -6.3960    1.6070    1.3790 ca        1 SK6      0.145600
     14 C14        -7.0320    0.7930    0.4160 ca        1 SK6     -0.155000
     15 C15        -6.2660    0.1040   -0.5300 ca        1 SK6      0.017000
     16 C16        -4.8720    0.2110   -0.5450 ca        1 SK6     -0.132000
     17 N17        -7.1150    2.2360    2.4080 nh        1 SK6     -0.728600
     18 C18        -8.5230    2.4950    2.1980 c3        1 SK6      0.182800
     19 C19        -9.1050    3.4570    3.2370 c3        1 SK6     -0.137700
     20 C20       -10.5870    3.6010    3.0380 ca        1 SK6      0.403600
     21 N21       -11.0410    4.2450    1.9320 nb        1 SK6     -0.666000
     22 C22       -12.3700    4.3700    1.7860 ca        1 SK6      0.399200
     23 C23       -13.3110    3.8740    2.7080 ca        1 SK6     -0.245300
     24 C24       -12.8370    3.2140    3.8400 ca        1 SK6     -0.091000
     25 C25       -11.4590    3.0720    4.0140 ca        1 SK6     -0.240300
     26 C26        -6.9210   -0.7160   -1.4920 cg        1 SK6      0.236800
     27 N27        -7.4550   -1.3880   -2.2780 n1        1 SK6     -0.369800
     28 H03         3.2560    0.3110    1.0810 ha        1 SK6      0.142000
     29 H05        -0.5230   -0.3420    3.0820 ha        1 SK6      0.142000
     30 HN07        3.0640    0.3700   -1.3620 hn        1 SK6      0.401300
     31 HN0A        1.6380    0.6630   -2.1770 hn        1 SK6      0.401300
     32 H08         1.6860   -0.9910    4.1440 hc        1 SK6      0.049367
     33 H08A        2.1120    0.7710    4.0990 hc        1 SK6      0.049367
     34 H08B        3.2370   -0.4510    3.3710 hc        1 SK6      0.049367
     35 H09        -2.4630   -0.3670    1.9060 hc        1 SK6      0.058700
     36 H09A       -2.3550   -0.9780    0.2050 hc        1 SK6      0.058700
     37 H10        -2.4120    1.3620   -0.6720 hc        1 SK6      0.063200
     38 H10A       -2.4250    2.0150    1.0150 hc        1 SK6      0.063200
     39 H12        -4.4650    2.3500    2.0830 ha        1 SK6      0.136000
     40 H14        -8.1270    0.6870    0.4020 ha        1 SK6      0.148000
     41 H16        -4.2790   -0.3310   -1.2960 ha        1 SK6      0.147000
     42 HN17       -6.6250    3.0100    2.8100 hn        1 SK6      0.394800
     43 H18        -8.7170    2.9110    1.1660 h1        1 SK6      0.053700
     44 H18A       -9.0630    1.5070    2.2750 h1        1 SK6      0.053700
     45 H19        -8.6130    4.4630    3.1490 hc        1 SK6      0.061200
     46 H19A       -8.9090    3.0710    4.2730 hc        1 SK6      0.061200
     47 H22       -12.6990    4.8990    0.8730 h4        1 SK6      0.024100
     48 H23       -14.3860    4.0070    2.5320 ha        1 SK6      0.145000
     49 H24       -13.5350    2.8090    4.5880 ha        1 SK6      0.140000
     50 H25       -11.0550    2.5550    4.8950 ha        1 SK6      0.145000
@<TRIPOS>BOND
     1    1    2 ar  
     2    1    6 ar  
     3    2    3 ar  
     4    2    7 1   
     5    3    4 ar  
     6    3   28 1   
     7    4    5 ar  
     8    4    8 1   
     9    5    6 ar  
    10    5   29 1   
    11    6    9 1   
    12    7   30 1   
    13    7   31 1   
    14    8   32 1   
    15    8   33 1   
    16    8   34 1   
    17    9   10 1   
    18    9   35 1   
    19    9   36 1   
    20   10   11 1   
    21   10   37 1   
    22   10   38 1   
    23   11   12 ar  
    24   11   16 ar  
    25   12   13 ar  
    26   12   39 1   
    27   13   14 ar  
    28   13   17 1   
    29   14   15 ar  
    30   14   40 1   
    31   15   16 ar  
    32   15   26 1   
    33   16   41 1   
    34   17   18 1   
    35   17   42 1   
    36   18   19 1   
    37   18   43 1   
    38   18   44 1   
    39   19   20 1   
    40   19   45 1   
    41   19   46 1   
    42   20   21 ar  
    43   20   25 ar  
    44   21   22 ar  
    45   22   23 ar  
    46   22   47 1   
    47   23   24 ar  
    48   23   48 1   
    49   24   25 ar  
    50   24   49 1   
    51   25   50 1   
    52   26   27 3   
@<TRIPOS>SUBSTRUCTURE
     1 SK6         1 TEMP              0 ****  ****    0 ROOT
