@<TRIPOS>MOLECULE
SK7
   30    30     1     0     0
SMALL
bcc


@<TRIPOS>ATOM
      1 N1          0.0830   -0.1130    0.2680 n         1 SK7     -0.369000
      2 C6         -0.6550   -0.3380   -0.9500 c3        1 SK7      0.069300
      3 O1          2.1120   -0.1350   -0.8680 o         1 SK7     -0.644500
      4 O2          2.2560    0.7410    3.6220 o         1 SK7     -0.614500
      5 N2          2.1910    0.2920    1.3920 n         1 SK7     -0.583500
      6 C1          1.4940    0.0120    0.2100 c         1 SK7      0.805500
      7 C2          1.5550    0.4800    2.6300 c         1 SK7      0.716700
      8 C3          0.0880    0.3490    2.6400 cc        1 SK7     -0.254400
      9 C4         -0.5940    0.5350    3.9370 c3        1 SK7     -0.033900
     10 C5         -0.5880    0.0620    1.4810 cd        1 SK7      0.125600
     11 C11        -2.0580   -0.0220    1.4860 cf        1 SK7     -0.127000
     12 C12        -2.7730   -1.1510    1.4150 c2        1 SK7     -0.087400
     13 C14        -2.1680   -2.5200    1.3380 c3        1 SK7      0.159600
     14 C13        -4.2690   -1.1600    1.4160 c3        1 SK7      0.159600
     15 O4         -2.5590   -3.0980    0.0980 oh        1 SK7     -0.603800
     16 O3         -4.7560    0.1730    1.4590 oh        1 SK7     -0.603800
     17 H1         -1.3450    0.5280   -1.1400 h1        1 SK7      0.067367
     18 H2          0.0560   -0.4430   -1.8130 h1        1 SK7      0.067367
     19 H3         -1.2650   -1.2780   -0.8500 h1        1 SK7      0.067367
     20 H4          3.1830    0.3770    1.3250 hn        1 SK7      0.352500
     21 H5         -1.5730    1.0590    3.8010 hc        1 SK7      0.053033
     22 H6         -0.7890   -0.4570    4.4180 hc        1 SK7      0.053033
     23 H7          0.0470    1.1380    4.6290 hc        1 SK7      0.053033
     24 H8         -2.5640    0.9590    1.5820 ha        1 SK7      0.175000
     25 H11        -2.5560   -3.1510    2.1860 h1        1 SK7      0.044450
     26 H12        -1.0480   -2.4730    1.4030 h1        1 SK7      0.044450
     27 H13        -4.6260   -1.6810    0.4840 h1        1 SK7      0.044450
     28 H14        -4.6410   -1.7230    2.3180 h1        1 SK7      0.044450
     29 H15        -2.1080   -3.9480    0.0400 ho        1 SK7      0.409500
     30 H16        -5.7080    0.1180    1.3140 ho        1 SK7      0.409500
@<TRIPOS>BOND
     1    1    2 1   
     2    1    6 1   
     3    1   10 1   
     4    2   17 1   
     5    2   18 1   
     6    2   19 1   
     7    3    6 2   
     8    4    7 2   
     9    5    6 1   
    10    5    7 1   
    11    5   20 1   
    12    7    8 1   
    13    8    9 1   
    14    8   10 2   
    15    9   21 1   
    16    9   22 1   
    17    9   23 1   
    18   10   11 1   
    19   11   12 2   
    20   11   24 1   
    21   12   13 1   
    22   12   14 1   
    23   13   15 1   
    24   13   25 1   
    25   13   26 1   
    26   14   16 1   
    27   14   27 1   
    28   14   28 1   
    29   15   29 1   
    30   16   30 1   
@<TRIPOS>SUBSTRUCTURE
     1 SK7         1 TEMP              0 ****  ****    0 ROOT
