@<TRIPOS>MOLECULE
SK7
   30    30     1     0     0
SMALL
bcc


@<TRIPOS>ATOM
      1 N1          0.1000   -0.1010    0.2960 n         1 SK7     -0.369000
      2 C6         -0.6190   -0.3170   -0.9350 c3        1 SK7      0.069300
      3 O1          2.1470   -0.1090   -0.8070 o         1 SK7     -0.644500
      4 O2          2.2180    0.7320    3.6910 o         1 SK7     -0.614500
      5 N2          2.1890    0.3000    1.4570 ns        1 SK7     -0.583500
      6 C1          1.5110    0.0280    0.2610 c         1 SK7      0.805500
      7 C2          1.5320    0.4770    2.6860 c         1 SK7      0.716700
      8 C3          0.0660    0.3420    2.6710 cc        1 SK7     -0.254400
      9 C4         -0.6370    0.5160    3.9590 c3        1 SK7     -0.033900
     10 C5         -0.5900    0.0630    1.5000 cd        1 SK7      0.125600
     11 C11        -2.0610   -0.0240    1.4810 cf        1 SK7     -0.127000
     12 C12        -2.7720   -1.1550    1.3890 c2        1 SK7     -0.087400
     13 C14        -2.1630   -2.5210    1.3110 c3        1 SK7      0.159600
     14 C13        -4.2670   -1.1670    1.3670 c3        1 SK7      0.159600
     15 O4         -2.5330   -3.0900    0.0610 oh        1 SK7     -0.603800
     16 O3         -4.7580    0.1640    1.4130 oh        1 SK7     -0.603800
     17 H1         -1.3070    0.5480   -1.1290 h1        1 SK7      0.067367
     18 H2          0.1070   -0.4140   -1.7870 h1        1 SK7      0.067367
     19 H3         -1.2280   -1.2600   -0.8520 h1        1 SK7      0.067367
     20 H4          3.1810    0.3880    1.4070 hn        1 SK7      0.352500
     21 H5         -1.6150    1.0370    3.8110 hc        1 SK7      0.053033
     22 H6         -0.8350   -0.4800    4.4300 hc        1 SK7      0.053033
     23 H7         -0.0090    1.1160    4.6650 hc        1 SK7      0.053033
     24 H8         -2.5700    0.9540    1.5770 ha        1 SK7      0.175000
     25 H11        -2.5620   -3.1600    2.1470 h1        1 SK7      0.044450
     26 H12        -1.0430   -2.4720    1.3940 h1        1 SK7      0.044450
     27 H13        -4.6080   -1.6810    0.4250 h1        1 SK7      0.044450
     28 H14        -4.6520   -1.7380    2.2580 h1        1 SK7      0.044450
     29 H15        -2.0780   -3.9380    0.0020 ho        1 SK7      0.409500
     30 H16        -5.7070    0.1090    1.2520 ho        1 SK7      0.409500
@<TRIPOS>BOND
     1    1    2 1   
     2    1    6 1   
     3    1   10 1   
     4    2   17 1   
     5    2   18 1   
     6    2   19 1   
     7    3    6 2   
     8    4    7 2   
     9    5    6 1   
    10    5    7 1   
    11    5   20 1   
    12    7    8 1   
    13    8    9 1   
    14    8   10 2   
    15    9   21 1   
    16    9   22 1   
    17    9   23 1   
    18   10   11 1   
    19   11   12 2   
    20   11   24 1   
    21   12   13 1   
    22   12   14 1   
    23   13   15 1   
    24   13   25 1   
    25   13   26 1   
    26   14   16 1   
    27   14   27 1   
    28   14   28 1   
    29   15   29 1   
    30   16   30 1   
@<TRIPOS>SUBSTRUCTURE
     1 SK7         1 TEMP              0 ****  ****    0 ROOT
