@<TRIPOS>MOLECULE
SK7
   30    30     1     0     0
SMALL
bcc


@<TRIPOS>ATOM
      1 N1         -0.9280    0.9720   -0.1140 n         1 SK7     -0.373000
      2 C6         -0.3200    2.2590    0.1030 c3        1 SK7      0.082300
      3 O1         -3.0560    1.8310    0.2530 o         1 SK7     -0.643500
      4 O2         -2.7670   -2.5880   -0.9080 o         1 SK7     -0.610500
      5 N2         -2.9170   -0.3960   -0.3150 n         1 SK7     -0.582500
      6 C1         -2.3390    0.8510   -0.0460 c         1 SK7      0.807500
      7 C2         -2.1640   -1.5280   -0.6680 c         1 SK7      0.716700
      8 C3         -0.7020   -1.3540   -0.7240 cc        1 SK7     -0.247400
      9 C4          0.0990   -2.5420   -1.0810 c3        1 SK7     -0.034900
     10 C5         -0.1420   -0.1340   -0.4470 cd        1 SK7      0.122600
     11 C11         1.3170    0.0540   -0.5460 cf        1 SK7     -0.128000
     12 C12         2.1700    0.0750    0.4850 c2        1 SK7     -0.131400
     13 C14         1.7660   -0.1110    1.9150 c3        1 SK7      0.157100
     14 C13         3.6450    0.2390    0.2900 c3        1 SK7      0.157100
     15 O4          2.3520    0.8510    2.7720 oh        1 SK7     -0.598300
     16 O3          3.9010    0.6950   -1.0300 oh        1 SK7     -0.598300
     17 H1         -1.1160    3.0410    0.2340 h1        1 SK7      0.060033
     18 H2          0.3170    2.2200    1.0290 h1        1 SK7      0.060033
     19 H3          0.3290    2.5260   -0.7740 h1        1 SK7      0.060033
     20 H4         -3.9120   -0.4570   -0.2630 hn        1 SK7      0.354500
     21 H5         -0.5160   -3.2580   -1.6830 hc        1 SK7      0.053367
     22 H6          1.0020   -2.2510   -1.6740 hc        1 SK7      0.053367
     23 H7          0.4400   -3.0720   -0.1550 hc        1 SK7      0.053367
     24 H8          1.6850    0.1600   -1.5850 ha        1 SK7      0.173000
     25 H11         0.6470   -0.0930    2.0220 h1        1 SK7      0.056450
     26 H12         2.1570   -1.0970    2.2950 h1        1 SK7      0.056450
     27 H13         4.0400    0.9820    1.0380 h1        1 SK7      0.056450
     28 H14         4.1510   -0.7520    0.4580 h1        1 SK7      0.056450
     29 H15         1.9980    1.7130    2.5230 ho        1 SK7      0.405500
     30 H16         4.8580    0.7810   -1.1070 ho        1 SK7      0.405500
@<TRIPOS>BOND
     1    1    2 1   
     2    1    6 1   
     3    1   10 1   
     4    2   17 1   
     5    2   18 1   
     6    2   19 1   
     7    3    6 2   
     8    4    7 2   
     9    5    6 1   
    10    5    7 1   
    11    5   20 1   
    12    7    8 1   
    13    8    9 1   
    14    8   10 2   
    15    9   21 1   
    16    9   22 1   
    17    9   23 1   
    18   10   11 1   
    19   11   12 2   
    20   11   24 1   
    21   12   13 1   
    22   12   14 1   
    23   13   15 1   
    24   13   25 1   
    25   13   26 1   
    26   14   16 1   
    27   14   27 1   
    28   14   28 1   
    29   15   29 1   
    30   16   30 1   
@<TRIPOS>SUBSTRUCTURE
     1 SK7         1 TEMP              0 ****  ****    0 ROOT
