@<TRIPOS>MOLECULE
SK7
   30    30     1     0     0
SMALL
bcc


@<TRIPOS>ATOM
      1 N1          0.1110   -0.0820    0.2700 n         1 SK7     -0.373000
      2 C6         -0.6120   -0.2700   -0.9600 c3        1 SK7      0.082300
      3 O1          2.1510   -0.0680   -0.8420 o         1 SK7     -0.643500
      4 O2          2.2410    0.6510    3.6780 o         1 SK7     -0.610500
      5 N2          2.2050    0.2790    1.4330 n         1 SK7     -0.582500
      6 C1          1.5230    0.0400    0.2340 c         1 SK7      0.807500
      7 C2          1.5530    0.4220    2.6690 c         1 SK7      0.716700
      8 C3          0.0860    0.2850    2.6580 cc        1 SK7     -0.247400
      9 C4         -0.6090    0.4210    3.9540 c3        1 SK7     -0.034900
     10 C5         -0.5750    0.0390    1.4820 cd        1 SK7      0.122600
     11 C11        -2.0460   -0.0530    1.4610 cf        1 SK7     -0.128000
     12 C12        -2.7540   -1.1880    1.4240 c2        1 SK7     -0.131400
     13 C14        -2.1470   -2.5580    1.4190 c3        1 SK7      0.157100
     14 C13        -4.2500   -1.1900    1.4390 c3        1 SK7      0.157100
     15 O4         -2.7260   -3.4020    0.4430 oh        1 SK7     -0.598300
     16 O3         -4.7290    0.1150    1.1500 oh        1 SK7     -0.598300
     17 H1         -1.3970    0.5270   -1.0650 h1        1 SK7      0.060033
     18 H2          0.0950   -0.2180   -1.8320 h1        1 SK7      0.060033
     19 H3         -1.1140   -1.2760   -0.9490 h1        1 SK7      0.060033
     20 H4          3.1980    0.3630    1.3830 hn        1 SK7      0.354500
     21 H5         -1.6090    0.9040    3.8230 hc        1 SK7      0.053367
     22 H6         -0.7600   -0.5860    4.4200 hc        1 SK7      0.053367
     23 H7          0.0040    1.0400    4.6590 hc        1 SK7      0.053367
     24 H8         -2.5570    0.9290    1.5010 ha        1 SK7      0.173000
     25 H11        -2.3650   -3.0730    2.3970 h1        1 SK7      0.056450
     26 H12        -1.0340   -2.5040    1.2720 h1        1 SK7      0.056450
     27 H13        -4.6300   -1.9190    0.6690 h1        1 SK7      0.056450
     28 H14        -4.6090   -1.5130    2.4560 h1        1 SK7      0.056450
     29 H15        -2.5130   -3.0310   -0.4220 ho        1 SK7      0.405500
     30 H16        -5.6910    0.0630    1.1740 ho        1 SK7      0.405500
@<TRIPOS>BOND
     1    1    2 1   
     2    1    6 1   
     3    1   10 1   
     4    2   17 1   
     5    2   18 1   
     6    2   19 1   
     7    3    6 2   
     8    4    7 2   
     9    5    6 1   
    10    5    7 1   
    11    5   20 1   
    12    7    8 1   
    13    8    9 1   
    14    8   10 2   
    15    9   21 1   
    16    9   22 1   
    17    9   23 1   
    18   10   11 1   
    19   11   12 2   
    20   11   24 1   
    21   12   13 1   
    22   12   14 1   
    23   13   15 1   
    24   13   25 1   
    25   13   26 1   
    26   14   16 1   
    27   14   27 1   
    28   14   28 1   
    29   15   29 1   
    30   16   30 1   
@<TRIPOS>SUBSTRUCTURE
     1 SK7         1 TEMP              0 ****  ****    0 ROOT
