@<TRIPOS>MOLECULE
SK8
   33    36     1     0     0
SMALL
bcc


@<TRIPOS>ATOM
      1 C1          0.0570   -0.0980    0.0420 ca        1 SK8     -0.085000
      2 C2          1.4460   -0.1510    0.0670 ca        1 SK8     -0.171000
      3 C3          2.1170   -0.1370    1.3040 ca        1 SK8      0.127900
      4 C4          1.3860   -0.0720    2.5040 ca        1 SK8     -0.171000
      5 C5         -0.0030   -0.0200    2.4620 ca        1 SK8     -0.085000
      6 C6         -0.6800   -0.0250    1.2330 ca        1 SK8     -0.128500
      7 C7         -2.1320    0.0190    1.1980 cc        1 SK8      0.382800
      8 C8         -2.9550    0.6770    0.2380 cd        1 SK8     -0.129600
      9 N9         -4.2670    0.3800    0.6150 na        1 SK8     -0.219900
     10 C10        -4.1990   -0.4090    1.7900 cd        1 SK8      0.475800
     11 N11        -2.9230   -0.6450    2.1540 nc        1 SK8     -0.620000
     12 S12        -5.7250   -0.8200    2.4140 ss        1 SK8     -0.188400
     13 C13        -6.5990    0.1060    1.1370 c3        1 SK8     -0.051300
     14 C14        -5.5850    0.7520    0.1780 c3        1 SK8      0.049300
     15 C15        -2.6060    1.5050   -0.8990 ca        1 SK8      0.021000
     16 C16        -1.6730    2.5440   -0.7630 ca        1 SK8     -0.233800
     17 C17        -1.3690    3.3250   -1.8910 ca        1 SK8      0.393200
     18 N18        -1.9250    3.1370   -3.1040 nb        1 SK8     -0.658000
     19 C19        -2.8170    2.1350   -3.2210 ca        1 SK8      0.393200
     20 C20        -3.1920    1.2960   -2.1570 ca        1 SK8     -0.233800
     21 F21         3.4700   -0.1870    1.3380 f         1 SK8     -0.141900
     22 H1         -0.4710   -0.1130   -0.9250 ha        1 SK8      0.149000
     23 H2          2.0230   -0.2090   -0.8670 ha        1 SK8      0.149500
     24 H3          1.9190   -0.0670    3.4660 ha        1 SK8      0.149500
     25 H4         -0.5730    0.0210    3.4030 ha        1 SK8      0.149000
     26 H5         -7.2250    0.8860    1.6290 h1        1 SK8      0.088200
     27 H6         -5.7510    0.3890   -0.8750 h1        1 SK8      0.072700
     28 H7         -1.1870    2.7390    0.2030 ha        1 SK8      0.151500
     29 H8         -0.6380    4.1520   -1.8210 h4        1 SK8      0.026600
     30 H9         -3.2550    1.9970   -4.2260 h4        1 SK8      0.026600
     31 H10        -3.9180    0.4890   -2.3170 ha        1 SK8      0.151500
     32 H11        -7.2680   -0.5950    0.5860 h1        1 SK8      0.088200
     33 H12        -5.6910    1.8730    0.1860 h1        1 SK8      0.072700
@<TRIPOS>BOND
     1    1    2 ar  
     2    1    6 ar  
     3    1   22 1   
     4    2    3 ar  
     5    2   23 1   
     6    3    4 ar  
     7    3   21 1   
     8    4    5 ar  
     9    4   24 1   
    10    5    6 ar  
    11    5   25 1   
    12    6    7 1   
    13    7    8 2   
    14    7   11 1   
    15    8    9 1   
    16    8   15 1   
    17    9   10 1   
    18    9   14 1   
    19   10   11 2   
    20   10   12 1   
    21   12   13 1   
    22   13   14 1   
    23   13   26 1   
    24   13   32 1   
    25   14   27 1   
    26   14   33 1   
    27   15   16 ar  
    28   15   20 ar  
    29   16   17 ar  
    30   16   28 1   
    31   17   18 ar  
    32   17   29 1   
    33   18   19 ar  
    34   19   20 ar  
    35   19   30 1   
    36   20   31 1   
@<TRIPOS>SUBSTRUCTURE
     1 SK8         1 TEMP              0 ****  ****    0 ROOT
