@<TRIPOS>MOLECULE
SK8
   33    36     1     0     0
SMALL
bcc


@<TRIPOS>ATOM
      1 C1          0.0570   -0.0990    0.0430 ca        1 SK8     -0.085000
      2 C2          1.4460   -0.1530    0.0690 ca        1 SK8     -0.171000
      3 C3          2.1160   -0.1380    1.3060 ca        1 SK8      0.127900
      4 C4          1.3850   -0.0720    2.5060 ca        1 SK8     -0.171000
      5 C5         -0.0040   -0.0190    2.4630 ca        1 SK8     -0.085000
      6 C6         -0.6800   -0.0250    1.2340 ca        1 SK8     -0.128500
      7 C7         -2.1320    0.0200    1.1990 cc        1 SK8      0.382800
      8 C8         -2.9550    0.6780    0.2380 cd        1 SK8     -0.129600
      9 N9         -4.2670    0.3810    0.6150 na        1 SK8     -0.219900
     10 C10        -4.2000   -0.4060    1.7910 cd        1 SK8      0.475800
     11 N11        -2.9240   -0.6430    2.1550 nc        1 SK8     -0.620000
     12 S12        -5.7260   -0.8160    2.4140 ss        1 SK8     -0.188400
     13 C13        -6.6000    0.1090    1.1360 c3        1 SK8     -0.051300
     14 C14        -5.5850    0.7540    0.1770 c3        1 SK8      0.049300
     15 C15        -2.6050    1.5040   -0.9000 ca        1 SK8      0.021000
     16 C16        -1.6720    2.5430   -0.7640 ca        1 SK8     -0.233800
     17 C17        -1.3670    3.3230   -1.8930 ca        1 SK8      0.393200
     18 N18        -1.9220    3.1330   -3.1060 nb        1 SK8     -0.658000
     19 C19        -2.8150    2.1320   -3.2230 ca        1 SK8      0.393200
     20 C20        -3.1910    1.2940   -2.1580 ca        1 SK8     -0.233800
     21 F21         3.4700   -0.1890    1.3410 f         1 SK8     -0.141900
     22 H1         -0.4710   -0.1150   -0.9230 ha        1 SK8      0.149000
     23 H2          2.0230   -0.2120   -0.8640 ha        1 SK8      0.149500
     24 H3          1.9180   -0.0670    3.4680 ha        1 SK8      0.149500
     25 H4         -0.5740    0.0220    3.4050 ha        1 SK8      0.149000
     26 H5         -7.2690   -0.5910    0.5860 h1        1 SK8      0.088200
     27 H6         -5.7500    0.3900   -0.8760 h1        1 SK8      0.072700
     28 H7         -1.1850    2.7390    0.2020 ha        1 SK8      0.151500
     29 H8         -0.6360    4.1490   -1.8240 h4        1 SK8      0.026600
     30 H9         -3.2520    1.9930   -4.2280 h4        1 SK8      0.026600
     31 H10        -3.9170    0.4870   -2.3170 ha        1 SK8      0.151500
     32 H11        -7.2250    0.8900    1.6270 h1        1 SK8      0.088200
     33 H12        -5.6900    1.8750    0.1840 h1        1 SK8      0.072700
@<TRIPOS>BOND
     1    1    2 ar  
     2    1    6 ar  
     3    1   22 1   
     4    2    3 ar  
     5    2   23 1   
     6    3    4 ar  
     7    3   21 1   
     8    4    5 ar  
     9    4   24 1   
    10    5    6 ar  
    11    5   25 1   
    12    6    7 1   
    13    7    8 2   
    14    7   11 1   
    15    8    9 1   
    16    8   15 1   
    17    9   10 1   
    18    9   14 1   
    19   10   11 2   
    20   10   12 1   
    21   12   13 1   
    22   13   14 1   
    23   13   26 1   
    24   13   32 1   
    25   14   27 1   
    26   14   33 1   
    27   15   16 ar  
    28   15   20 ar  
    29   16   17 ar  
    30   16   28 1   
    31   17   18 ar  
    32   17   29 1   
    33   18   19 ar  
    34   19   20 ar  
    35   19   30 1   
    36   20   31 1   
@<TRIPOS>SUBSTRUCTURE
     1 SK8         1 TEMP              0 ****  ****    0 ROOT
