@<TRIPOS>MOLECULE
SKA
   21    22     1     0     0
SMALL
bcc


@<TRIPOS>ATOM
      1 CL4         0.0010   -0.0440   -0.0320 cl        1 SKA     -0.072400
      2 C4          1.7010   -0.0180   -0.0180 ca        1 SKA      0.018400
      3 C5          2.3950   -0.0400    1.2040 ca        1 SKA     -0.061300
      4 C11         1.6220   -0.0830    2.4900 c3        1 SKA      0.203100
      5 N10         2.4150   -0.2580    3.6910 n3        1 SKA     -0.818200
      6 C9          3.7050    0.3960    3.6640 c3        1 SKA      0.163800
      7 C8          4.5580   -0.0490    2.4770 c3        1 SKA     -0.037100
      8 C6          3.7980   -0.0100    1.2000 ca        1 SKA     -0.057300
      9 C1          4.4920    0.0370   -0.0130 ca        1 SKA     -0.122000
     10 C2          3.8060    0.0550   -1.2220 ca        1 SKA     -0.117000
     11 C3          2.4080    0.0280   -1.2280 ca        1 SKA      0.016400
     12 CL3         1.5960    0.0540   -2.7190 cl        1 SKA     -0.072400
     13 H111        0.9940    0.8590    2.5310 h1        1 SKA      0.052700
     14 H112        0.9110   -0.9610    2.4530 h1        1 SKA      0.052700
     15 H10         1.8880    0.0510    4.4870 hn        1 SKA      0.368800
     16 H91         4.2410    0.1250    4.6180 h1        1 SKA      0.032700
     17 H92         3.6150    1.5220    3.6340 h1        1 SKA      0.032700
     18 H81         4.9220   -1.0990    2.6460 hc        1 SKA      0.062200
     19 H82         5.4580    0.6170    2.4140 hc        1 SKA      0.062200
     20 H1          5.5930    0.0590   -0.0100 ha        1 SKA      0.141000
     21 H2          4.3600    0.0900   -2.1730 ha        1 SKA      0.151000
@<TRIPOS>BOND
     1    1    2 1   
     2    2    3 ar  
     3    2   11 ar  
     4    3    4 1   
     5    3    8 ar  
     6    4    5 1   
     7    4   13 1   
     8    4   14 1   
     9    5    6 1   
    10    5   15 1   
    11    6    7 1   
    12    6   16 1   
    13    6   17 1   
    14    7    8 1   
    15    7   18 1   
    16    7   19 1   
    17    8    9 ar  
    18    9   10 ar  
    19    9   20 1   
    20   10   11 ar  
    21   10   21 1   
    22   11   12 1   
@<TRIPOS>SUBSTRUCTURE
     1 SKA         1 TEMP              0 ****  ****    0 ROOT
