@<TRIPOS>MOLECULE
SKA
   21    22     1     0     0
SMALL
bcc


@<TRIPOS>ATOM
      1 CL4        -1.2560   -1.9720    0.0130 cl        1 SKA     -0.072400
      2 C4         -0.6030   -0.4030    0.0010 ca        1 SKA      0.018400
      3 C5          0.7900   -0.2200   -0.0290 ca        1 SKA     -0.061300
      4 C11         1.6900   -1.4210   -0.0450 c3        1 SKA      0.203100
      5 N10         3.1010   -1.1440   -0.2300 n3        1 SKA     -0.818200
      6 C9          3.5640    0.0770    0.3950 c3        1 SKA      0.163800
      7 C8          2.7840    1.3020   -0.0770 c3        1 SKA     -0.037100
      8 C6          1.3150    1.0810   -0.0300 ca        1 SKA     -0.057300
      9 C1          0.4530    2.1820   -0.0070 ca        1 SKA     -0.122000
     10 C2         -0.9250    2.0020    0.0170 ca        1 SKA     -0.117000
     11 C3         -1.4580    0.7090    0.0220 ca        1 SKA      0.016400
     12 CL3        -3.1440    0.5190    0.0560 cl        1 SKA     -0.072400
     13 H111        1.3860   -2.0870   -0.9080 h1        1 SKA      0.052700
     14 H112        1.4940   -1.9970    0.9110 h1        1 SKA      0.052700
     15 H10         3.6410   -1.9240    0.0960 hn        1 SKA      0.368800
     16 H91         4.6480    0.2070    0.1180 h1        1 SKA      0.032700
     17 H92         3.5030    0.0310    1.5230 h1        1 SKA      0.032700
     18 H81         3.0750    1.5510   -1.1340 hc        1 SKA      0.062200
     19 H82         3.0660    2.1760    0.5680 hc        1 SKA      0.062200
     20 H1          0.8710    3.2000   -0.0100 ha        1 SKA      0.141000
     21 H2         -1.5980    2.8740    0.0340 ha        1 SKA      0.151000
@<TRIPOS>BOND
     1    1    2 1   
     2    2    3 ar  
     3    2   11 ar  
     4    3    4 1   
     5    3    8 ar  
     6    4    5 1   
     7    4   13 1   
     8    4   14 1   
     9    5    6 1   
    10    5   15 1   
    11    6    7 1   
    12    6   16 1   
    13    6   17 1   
    14    7    8 1   
    15    7   18 1   
    16    7   19 1   
    17    8    9 ar  
    18    9   10 ar  
    19    9   20 1   
    20   10   11 ar  
    21   10   21 1   
    22   11   12 1   
@<TRIPOS>SUBSTRUCTURE
     1 SKA         1 TEMP              0 ****  ****    0 ROOT
