@<TRIPOS>MOLECULE
SKA
   21    22     1     0     0
SMALL
bcc


@<TRIPOS>ATOM
      1 Cl4         0.0010   -0.0380   -0.0320 cl        1 SKA     -0.072400
      2 C4          1.7010   -0.0160   -0.0180 ca        1 SKA      0.018400
      3 C5          2.3950   -0.0390    1.2040 ca        1 SKA     -0.061300
      4 C11         1.6220   -0.0800    2.4900 c3        1 SKA      0.203100
      5 N10         2.4140   -0.2570    3.6910 n7        1 SKA     -0.818200
      6 C9          3.7060    0.3950    3.6640 c3        1 SKA      0.163800
      7 C8          4.5570   -0.0520    2.4770 c3        1 SKA     -0.037100
      8 C6          3.7970   -0.0120    1.2000 ca        1 SKA     -0.057300
      9 C1          4.4920    0.0340   -0.0140 ca        1 SKA     -0.122000
     10 C2          3.8060    0.0530   -1.2220 ca        1 SKA     -0.117000
     11 C3          2.4080    0.0290   -1.2280 ca        1 SKA      0.016400
     12 Cl3         1.5950    0.0550   -2.7190 cl        1 SKA     -0.072400
     13 H111        0.9960    0.8630    2.5310 h1        1 SKA      0.052700
     14 H112        0.9090   -0.9570    2.4530 h1        1 SKA      0.052700
     15 H10         1.8880    0.0530    4.4870 hn        1 SKA      0.368800
     16 H91         3.6180    1.5220    3.6330 h1        1 SKA      0.032700
     17 H92         4.2410    0.1230    4.6180 h1        1 SKA      0.032700
     18 H81         4.9200   -1.1030    2.6460 hc        1 SKA      0.062200
     19 H82         5.4590    0.6130    2.4140 hc        1 SKA      0.062200
     20 H1          5.5930    0.0540   -0.0100 ha        1 SKA      0.141000
     21 H2          4.3600    0.0870   -2.1730 ha        1 SKA      0.151000
@<TRIPOS>BOND
     1    1    2 1   
     2    2    3 ar  
     3    2   11 ar  
     4    3    4 1   
     5    3    8 ar  
     6    4    5 1   
     7    4   13 1   
     8    4   14 1   
     9    5    6 1   
    10    5   15 1   
    11    6    7 1   
    12    6   16 1   
    13    6   17 1   
    14    7    8 1   
    15    7   18 1   
    16    7   19 1   
    17    8    9 ar  
    18    9   10 ar  
    19    9   20 1   
    20   10   11 ar  
    21   10   21 1   
    22   11   12 1   
@<TRIPOS>SUBSTRUCTURE
     1 SKA         1 TEMP              0 ****  ****    0 ROOT
