@<TRIPOS>MOLECULE
SKD
   37    38     1     0     0
SMALL
bcc


@<TRIPOS>ATOM
      1 C1          1.3690    0.3620    0.0090 c         1 SKD      0.969600
      2 C2         -0.2090    0.1390    0.0050 c3        1 SKD      0.181600
      3 C3         -0.7920    0.2430    1.4230 c3        1 SKD     -0.181400
      4 C4         -2.3130    0.2110    1.4540 c3        1 SKD      0.144100
      5 C5         -2.9370    0.9670    0.2340 c3        1 SKD      0.069500
      6 C6         -2.1390    0.6770   -1.0670 c3        1 SKD      0.074100
      7 C7         -1.8980   -0.8290   -1.2980 c3        1 SKD      0.126100
      8 C8         -1.6730   -1.1120   -2.7870 c3        1 SKD      0.097100
      9 C9         -1.2780   -2.5770   -2.9960 c3        1 SKD      0.095400
     10 C11        -2.5790    3.3640    2.8130 c3        1 SKD     -0.192100
     11 N5         -2.8630    2.4610    0.4570 n4        1 SKD     -0.676800
     12 O1A         1.7120    1.2970    0.7710 o         1 SKD     -0.761800
     13 O1B         2.0500   -0.3830   -0.7140 o         1 SKD     -0.761800
     14 O4         -2.8550   -1.0900    1.4710 oh        1 SKD     -0.589800
     15 O6         -0.8110    1.1520   -0.8190 os        1 SKD     -0.419600
     16 O7         -0.6640   -1.0790   -0.5990 os        1 SKD     -0.410600
     17 O8         -2.8860   -0.7900   -3.4560 oh        1 SKD     -0.627800
     18 O9         -1.1100   -2.8300   -4.3770 oh        1 SKD     -0.608800
     19 O10        -4.7310    2.9110    1.7590 o         1 SKD     -0.430100
     20 H31        -0.4010    1.1940    1.8710 hc        1 SKD      0.096200
     21 H32        -0.3850   -0.6080    2.0290 hc        1 SKD      0.096200
     22 H4         -2.7010    0.6790    2.4090 h1        1 SKD      0.047700
     23 H5         -4.0180    0.6730    0.1260 hx        1 SKD      0.122700
     24 H6         -2.5450    1.1990   -1.9660 h1        1 SKD      0.115700
     25 H7         -2.6980   -1.4870   -0.8800 h1        1 SKD      0.078700
     26 H8         -0.8560   -0.4380   -3.1740 h1        1 SKD      0.074700
     27 H91        -0.3470   -2.7990   -2.4120 h1        1 SKD      0.075700
     28 H92        -2.1100   -3.2600   -2.6780 h1        1 SKD      0.075700
     29 H111       -3.1470    3.4150    3.7780 hc        1 SKD      0.112367
     30 H112       -1.7100    2.6660    2.9370 hc        1 SKD      0.112367
     31 H113       -2.1860    4.3850    2.5690 hc        1 SKD      0.112367
     32 HN5        -1.8550    2.7060    0.4530 hn        1 SKD      0.470800
     33 HO4        -2.1890   -1.7020    1.1160 ho        1 SKD      0.443000
     34 HO8        -2.8940   -1.3050   -4.2760 ho        1 SKD      0.429000
     35 HO9        -0.2580   -2.4560   -4.6350 ho        1 SKD      0.412000
     36 C10        -3.5080    2.9170    1.7350 c         1 SKD      0.556100
     37 H52        -3.3160    2.9170   -0.3420 hn        1 SKD      0.470800
@<TRIPOS>BOND
     1    1    2 1   
     2    1   12 1   
     3    1   13 1   
     4    2    3 1   
     5    2   15 1   
     6    2   16 1   
     7    3    4 1   
     8    3   20 1   
     9    3   21 1   
    10    4    5 1   
    11    4   14 1   
    12    4   22 1   
    13    5    6 1   
    14    5   11 1   
    15    5   23 1   
    16    6    7 1   
    17    6   15 1   
    18    6   24 1   
    19    7    8 1   
    20    7   16 1   
    21    7   25 1   
    22    8    9 1   
    23    8   17 1   
    24    8   26 1   
    25    9   18 1   
    26    9   27 1   
    27    9   28 1   
    28   10   29 1   
    29   10   30 1   
    30   10   31 1   
    31   10   36 1   
    32   11   32 1   
    33   11   36 1   
    34   11   37 1   
    35   14   33 1   
    36   17   34 1   
    37   18   35 1   
    38   19   36 2   
@<TRIPOS>SUBSTRUCTURE
     1 SKD         1 TEMP              0 ****  ****    0 ROOT
