@<TRIPOS>MOLECULE
SKD
   36    35     1     0     0
SMALL
bcc


@<TRIPOS>ATOM
      1 C1          3.5170   -0.4310    0.4890 c1        1 SKD      0.375000
      2 C2          2.0000   -0.4030    0.5040 c2        1 SKD      0.107000
      3 C3          1.4480   -0.3750    1.9460 c3        1 SKD     -0.220000
      4 C4          0.0110    0.1430    2.0730 c3        1 SKD      0.028000
      5 C5         -0.6340    0.5400    0.7630 c3        1 SKD     -0.028000
      6 C6          0.2600    0.3620   -0.4690 c3        1 SKD     -0.029000
      7 C7          0.1680   -1.0410   -0.8430 c3        1 SKD      0.011000
      8 C8          0.2470   -1.1990   -2.2620 c3        1 SKD     -0.009000
      9 C9          0.0950   -2.6940   -2.6220 c3        1 SKD     -0.074000
     10 C10        -2.3730    2.2690    1.1120 c1        1 SKD      0.298000
     11 C11        -2.7680    3.7200    1.2640 c2        1 SKD     -0.243000
     12 N5         -1.0210    1.9260    0.8480 n3        1 SKD     -0.361000
     13 O1A         4.1310   -1.5150    0.7030 o         1 SKD     -0.537000
     14 O1B         4.1650    0.6300    0.2800 o         1 SKD     -0.537000
     15 O4         -0.7840   -0.8790    2.6760 oh        1 SKD     -0.347000
     16 O6          1.5630    0.4490   -0.2530 os        1 SKD     -0.272000
     17 O7          1.4260   -1.6420   -0.1420 os        1 SKD     -0.300000
     18 O8         -0.8040   -0.4490   -2.8860 oh        1 SKD     -0.350000
     19 O9          0.1800   -2.8530   -4.0310 oh        1 SKD     -0.358000
     20 O10        -3.2020    1.3940    1.2650 o         1 SKD     -0.388000
     21 H31         1.4810   -1.2820    2.3060 hc        1 SKD      0.116500
     22 H32         2.0310    0.1950    2.4880 hc        1 SKD      0.116500
     23 H4          0.0150    0.9220    2.6630 h1        1 SKD      0.100000
     24 H5         -1.4400   -0.0000    0.6400 h1        1 SKD      0.139000
     25 H6         -0.0190    0.9410   -1.2020 h1        1 SKD      0.128000
     26 H7         -0.6500   -1.4410   -0.4910 h1        1 SKD      0.120000
     27 H8          1.1160   -0.8720   -2.5800 h1        1 SKD      0.082000
     28 H91        -0.7730   -3.0180   -2.3100 h1        1 SKD      0.138500
     29 H92         0.8100   -3.2080   -2.1910 h1        1 SKD      0.138500
     30 H111       -2.1340    4.1700    1.8590 ha        1 SKD      0.098000
     31 H112       -3.6700    3.7750    1.6440 ha        1 SKD      0.098000
     32 H113       -2.7560    4.1550    0.3860 ha        1 SKD      0.098000
     33 HN5        -0.3870    2.5790    0.8030 hn        1 SKD      0.233000
     34 HO4        -0.7520   -0.7960    3.5630 ho        1 SKD      0.220000
     35 HO8        -0.6260   -0.3550   -3.7550 ho        1 SKD      0.208000
     36 HO9         0.1300   -3.7150   -4.2350 ho        1 SKD      0.200000
@<TRIPOS>BOND
     1    1   13 1   
     2    1   14 1   
     3    2    3 1   
     4    2   16 1   
     5    2   17 1   
     6    3    4 1   
     7    3   21 1   
     8    3   22 1   
     9    4    5 1   
    10    4   15 1   
    11    4   23 1   
    12    5    6 1   
    13    5   12 1   
    14    5   24 1   
    15    6    7 1   
    16    6   16 1   
    17    6   25 1   
    18    7    8 1   
    19    7   17 1   
    20    7   26 1   
    21    8    9 1   
    22    8   18 1   
    23    8   27 1   
    24    9   19 1   
    25    9   28 1   
    26    9   29 1   
    27   10   12 1   
    28   10   20 1   
    29   11   30 1   
    30   11   31 1   
    31   11   32 1   
    32   12   33 1   
    33   15   34 1   
    34   18   35 1   
    35   19   36 1   
@<TRIPOS>SUBSTRUCTURE
     1 SKD         1 TEMP              0 ****  ****    0 ROOT
