@<TRIPOS>MOLECULE
SKD
   37    37     1     0     0
SMALL
bcc


@<TRIPOS>ATOM
      1 C1          1.2130   -1.8630   -0.0550 c2        1 SKD      0.332000
      2 C2         -0.0740   -1.0510   -0.0760 c3        1 SKD      0.152000
      3 C3         -0.7170   -0.7980    1.2810 c3        1 SKD     -0.179000
      4 C4         -1.8740    0.2030    1.2200 c3        1 SKD      0.004000
      5 C5         -1.8410    1.2380    0.0460 c3        1 SKD     -0.071000
      6 C6         -1.0970    0.6500   -1.1730 c3        1 SKD      0.019000
      7 C7         -1.7690   -0.6640   -1.6340 c3        1 SKD     -0.005000
      8 C8         -1.6940   -0.9060   -3.1410 c3        1 SKD     -0.102000
      9 C9         -0.3000   -1.3040   -3.5650 c1        1 SKD      0.016000
     10 C11        -4.1770    4.5800    2.3980 c3        1 SKD     -0.293000
     11 N5         -1.3060    2.5350    0.3970 n8        1 SKD     -0.337000
     12 O1A         1.7280   -2.3670    0.9390 o         1 SKD     -0.296000
     13 O1B         1.8580   -2.0530   -1.2280 oh        1 SKD     -0.273000
     14 O4         -3.0720   -0.5570    1.1170 oh        1 SKD     -0.335000
     15 O6          0.1940    0.1960   -0.7290 os        1 SKD     -0.268000
     16 O7         -0.9950   -1.6910   -0.9770 os        1 SKD     -0.294000
     17 O8         -2.6480   -1.8740   -3.5640 oh        1 SKD     -0.343000
     18 O9         -0.1570   -2.2910   -4.3750 oh        1 SKD     -0.140000
     19 O10        -3.8900    2.2230    2.0590 o         1 SKD     -0.331000
     20 H31        -0.3240    2.4730    0.5890 hn        1 SKD      0.155500
     21 H32        -1.0970   -1.7730    1.6860 hc        1 SKD      0.128000
     22 H4          0.0750   -0.4090    1.9720 hc        1 SKD      0.128000
     23 H5         -1.8930    0.7680    2.1980 h1        1 SKD      0.089000
     24 H6         -2.9180    1.4090   -0.2580 h1        1 SKD      0.114000
     25 H7         -0.9100    1.3900   -1.9870 h1        1 SKD      0.157000
     26 H8         -2.8270   -0.7620   -1.2660 h1        1 SKD      0.144000
     27 H91        -1.9760    0.0390   -3.6910 h1        1 SKD      0.151000
     28 H92         1.3790   -1.6040   -1.9540 ho        1 SKD      0.269000
     29 H111       -4.8650    5.1860    1.7580 hc        1 SKD      0.111000
     30 H112       -4.2170    4.9830    3.4410 hc        1 SKD      0.111000
     31 H113       -3.1350    4.6850    2.0080 hc        1 SKD      0.111000
     32 HN5        -5.6680    2.9790    2.7300 h4        1 SKD      0.094000
     33 HO4        -3.7910    0.0260    1.3930 ho        1 SKD      0.216000
     34 HO8        -2.7000   -2.5550   -2.8800 ho        1 SKD      0.221000
     35 HO9        -0.9860   -2.7430   -4.6650 ho        1 SKD      0.188000
     36 C10        -4.6190    3.1590    2.3990 c2        1 SKD      0.201000
     37 H52        -1.7850    2.8940    1.2020 hn        1 SKD      0.155500
@<TRIPOS>BOND
     1    1    2 1   
     2    1   12 1   
     3    1   13 1   
     4    2    3 1   
     5    2   15 1   
     6    2   16 1   
     7    3    4 1   
     8    3   21 1   
     9    3   22 1   
    10    4    5 1   
    11    4   14 1   
    12    4   23 1   
    13    5    6 1   
    14    5   11 1   
    15    5   24 1   
    16    6    7 1   
    17    6   15 1   
    18    6   25 1   
    19    7    8 1   
    20    7   16 1   
    21    7   26 1   
    22    8    9 1   
    23    8   17 1   
    24    8   27 1   
    25    9   18 1   
    26   10   29 1   
    27   10   30 1   
    28   10   31 1   
    29   10   36 1   
    30   11   20 1   
    31   11   37 1   
    32   13   28 1   
    33   14   33 1   
    34   17   34 1   
    35   18   35 1   
    36   19   36 1   
    37   32   36 1   
@<TRIPOS>SUBSTRUCTURE
     1 SKD         1 TEMP              0 ****  ****    0 ROOT
