@<TRIPOS>MOLECULE
SKD
   36    37     1     0     0
SMALL
bcc


@<TRIPOS>ATOM
      1 C1         -2.5200    0.0120   -1.3980 c         1 SKD      0.955600
      2 C2         -1.2880    0.4000   -0.5070 c3        1 SKD      0.200600
      3 C3         -1.5960    1.3300    0.6700 c3        1 SKD     -0.142400
      4 C4         -0.3460    1.6790    1.4700 c3        1 SKD      0.139100
      5 C5          0.6560    0.4830    1.6120 c3        1 SKD      0.049700
      6 C6          0.6810   -0.3770    0.3200 c3        1 SKD      0.084100
      7 C7          1.0260    0.4630   -0.9280 c3        1 SKD      0.102100
      8 C8          1.5620   -0.4130   -2.0730 c3        1 SKD      0.096100
      9 C9          0.9050   -0.0280   -3.4020 c3        1 SKD      0.081400
     10 C11         0.6960   -1.6440    4.7990 c3        1 SKD     -0.175100
     11 N5          0.3030   -0.3350    2.7510 n         1 SKD     -0.552900
     12 O1A        -2.2760   -0.4750   -2.5280 o         1 SKD     -0.801800
     13 O1B        -3.6490    0.2310   -0.8940 o         1 SKD     -0.801800
     14 O4          0.3490    2.7880    0.9220 oh        1 SKD     -0.620800
     15 O6         -0.6640   -0.7800    0.0190 os        1 SKD     -0.414600
     16 O7         -0.2480    1.0080   -1.3080 os        1 SKD     -0.444600
     17 O8          2.9780   -0.3120   -2.1180 oh        1 SKD     -0.614800
     18 O9          1.5780   -0.6570   -4.4790 oh        1 SKD     -0.620800
     19 O10         2.3250   -0.1590    3.8370 o         1 SKD     -0.627100
     20 H31        -2.3420    0.8090    1.3210 hc        1 SKD      0.077200
     21 H32        -2.0710    2.2640    0.2760 hc        1 SKD      0.077200
     22 H4         -0.6390    2.0370    2.5000 h1        1 SKD      0.060700
     23 H5          1.6860    0.9170    1.7780 h1        1 SKD      0.098700
     24 H6          1.2910   -1.3040    0.4270 h1        1 SKD      0.088700
     25 H7          1.7200    1.3150   -0.7180 h1        1 SKD      0.070700
     26 H8          1.3530   -1.4980   -1.8520 h1        1 SKD      0.068700
     27 H91        -0.1930   -0.2880   -3.3680 h1        1 SKD      0.097200
     28 H92         1.0210    1.0720   -3.5940 h1        1 SKD      0.097200
     29 H111        1.5020   -1.7920    5.5570 hc        1 SKD      0.058700
     30 H112       -0.2160   -1.2510    5.3090 hc        1 SKD      0.058700
     31 H113        0.4540   -2.6260    4.3270 hc        1 SKD      0.058700
     32 HN5        -0.5440   -0.8470    2.6590 hn        1 SKD      0.319500
     33 HO4         0.2710    2.7390   -0.0410 ho        1 SKD      0.420000
     34 HO8         3.2030    0.2630   -2.8590 ho        1 SKD      0.404000
     35 HO9         1.3550   -1.5930   -4.4370 ho        1 SKD      0.397000
     36 C10         1.1840   -0.6630    3.7550 c         1 SKD      0.654100
@<TRIPOS>BOND
     1    1    2 1   
     2    1   12 1   
     3    1   13 1   
     4    2    3 1   
     5    2   15 1   
     6    2   16 1   
     7    3    4 1   
     8    3   20 1   
     9    3   21 1   
    10    4    5 1   
    11    4   14 1   
    12    4   22 1   
    13    5    6 1   
    14    5   11 1   
    15    5   23 1   
    16    6    7 1   
    17    6   15 1   
    18    6   24 1   
    19    7    8 1   
    20    7   16 1   
    21    7   25 1   
    22    8    9 1   
    23    8   17 1   
    24    8   26 1   
    25    9   18 1   
    26    9   27 1   
    27    9   28 1   
    28   10   29 1   
    29   10   30 1   
    30   10   31 1   
    31   10   36 1   
    32   11   32 1   
    33   11   36 1   
    34   14   33 1   
    35   17   34 1   
    36   18   35 1   
    37   19   36 2   
@<TRIPOS>SUBSTRUCTURE
     1 SKD         1 TEMP              0 ****  ****    0 ROOT
