@<TRIPOS>MOLECULE
SKE
   39    41     1     0     0
SMALL
bcc


@<TRIPOS>ATOM
      1 S          -6.4390   -0.3090   -0.1420 sy        1 SKE      1.532200
      2 C1          1.2890    2.0100    0.3200 cc        1 SKE      0.729400
      3 F1          3.9030   -0.1390   -2.1840 f         1 SKE     -0.117900
      4 N1          1.5360    3.3530    0.4760 nh        1 SKE     -0.934500
      5 O1         -7.0090   -1.5980   -0.0430 o         1 SKE     -0.661800
      6 C2          0.3850    0.0420   -0.0660 cd        1 SKE      0.798900
      7 F2          5.3580    0.0730    2.3740 f         1 SKE     -0.117900
      8 N2          0.0620    1.4180    0.1700 nd        1 SKE     -0.770000
      9 O2         -6.8340    0.5000   -1.2290 o         1 SKE     -0.661800
     10 C3         -1.9460   -0.7420   -0.2450 ca        1 SKE      0.218600
     11 N3         -0.5620   -0.9560   -0.3300 nh        1 SKE     -0.706300
     12 O3          4.1490    2.2990    0.6750 o         1 SKE     -0.555100
     13 C4         -2.7600   -1.7470    0.3370 ca        1 SKE     -0.185000
     14 N4         -6.7110    0.4860    1.2240 n3        1 SKE     -1.026700
     15 C5         -4.1380   -1.6010    0.3630 ca        1 SKE      0.005000
     16 N5          1.7420   -0.2130   -0.0420 nc        1 SKE     -0.580800
     17 C6         -4.7640   -0.4690   -0.1720 ca        1 SKE     -0.418500
     18 N6          2.3230    0.9950    0.1980 n         1 SKE     -0.098500
     19 C7         -3.9560    0.5100   -0.7630 ca        1 SKE      0.005000
     20 C8         -2.5740    0.3900   -0.8110 ca        1 SKE     -0.185000
     21 C9          3.7160    1.1840    0.3470 c         1 SKE      0.628500
     22 C10         4.5950    0.0130    0.1040 ca        1 SKE     -0.207600
     23 C11         4.6540   -0.6050   -1.1630 ca        1 SKE      0.207400
     24 C12         5.5120   -1.6990   -1.3810 ca        1 SKE     -0.190500
     25 C13         6.3000   -2.1760   -0.3390 ca        1 SKE     -0.056000
     26 C14         6.2560   -1.5860    0.9200 ca        1 SKE     -0.190500
     27 C15         5.4030   -0.4900    1.1460 ca        1 SKE      0.207400
     28 HN1         2.4450    3.6350    0.7690 hn        1 SKE      0.454800
     29 HN1A        0.7630    3.9240    0.7260 hn        1 SKE      0.454800
     30 HN3        -0.2570   -1.8830   -0.1130 hn        1 SKE      0.445800
     31 H4         -2.3070   -2.6540    0.7670 ha        1 SKE      0.152500
     32 HN4        -6.8770    0.0420    2.0910 hn        1 SKE      0.445800
     33 HN4A       -6.7500    1.4710    1.2840 hn        1 SKE      0.445800
     34 H5         -4.7610   -2.4000    0.8050 ha        1 SKE      0.153500
     35 H7         -4.4350    1.3920   -1.2280 ha        1 SKE      0.153500
     36 H8         -1.9830    1.1780   -1.3030 ha        1 SKE      0.152500
     37 H12         5.5460   -2.1650   -2.3770 ha        1 SKE      0.161000
     38 H13         6.9680   -3.0350   -0.5130 ha        1 SKE      0.150000
     39 H14         6.8790   -1.9630    1.7440 ha        1 SKE      0.161000
@<TRIPOS>BOND
     1    1    5 2   
     2    1    9 2   
     3    1   14 1   
     4    1   17 1   
     5    2    4 1   
     6    2    8 2   
     7    2   18 1   
     8    3   23 1   
     9    4   28 1   
    10    4   29 1   
    11    6    8 1   
    12    6   11 1   
    13    6   16 2   
    14    7   27 1   
    15   10   11 1   
    16   10   13 ar  
    17   10   20 ar  
    18   11   30 1   
    19   12   21 2   
    20   13   15 ar  
    21   13   31 1   
    22   14   32 1   
    23   14   33 1   
    24   15   17 ar  
    25   15   34 1   
    26   16   18 1   
    27   17   19 ar  
    28   18   21 1   
    29   19   20 ar  
    30   19   35 1   
    31   20   36 1   
    32   21   22 1   
    33   22   23 ar  
    34   22   27 ar  
    35   23   24 ar  
    36   24   25 ar  
    37   24   37 1   
    38   25   26 ar  
    39   25   38 1   
    40   26   27 ar  
    41   26   39 1   
@<TRIPOS>SUBSTRUCTURE
     1 SKE         1 TEMP              0 ****  ****    0 ROOT
