@<TRIPOS>MOLECULE
SKE
   42    44     1     0     0
SMALL
bcc


@<TRIPOS>ATOM
      1 S           0.8320   -0.3960   -0.9450 sy        1 SKE      1.449200
      2 C1         -5.9750   -4.9940   -2.9020 cc        1 SKE      0.479400
      3 F1         -4.5980   -8.5740   -3.8170 f         1 SKE     -0.111900
      4 N1         -7.4020   -4.7450   -3.0760 n4        1 SKE     -0.796300
      5 O1          2.0210   -0.7450   -1.5350 o         1 SKE     -0.517300
      6 C2         -3.9600   -5.1200   -2.1260 cd        1 SKE      0.547900
      7 F2         -4.9810   -6.0650   -7.8800 f         1 SKE     -0.111900
      8 N2         -5.2380   -4.6090   -1.8130 nd        1 SKE     -0.567000
      9 O2          0.6720    0.2110    0.2760 o         1 SKE     -0.517300
     10 C3         -2.0420   -3.7890   -1.2940 ca        1 SKE      0.049600
     11 N3         -2.8210   -5.0400   -1.2090 n4        1 SKE     -0.587100
     12 O3         -6.6240   -5.6690   -5.5510 o         1 SKE     -0.473100
     13 C4         -0.9660   -3.6990   -2.1940 ca        1 SKE     -0.112000
     14 N4          0.2440    0.9580   -2.0980 n4        1 SKE     -0.807500
     15 C5         -0.1250   -2.5870   -2.1340 ca        1 SKE      0.027000
     16 N5         -3.9210   -5.7700   -3.3610 nc        1 SKE     -0.355800
     17 C6         -0.3340   -1.5570   -1.2010 ca        1 SKE     -0.431500
     18 N6         -5.1440   -5.7110   -3.8340 n         1 SKE      0.005500
     19 C7         -1.4580   -1.6410   -0.3620 ca        1 SKE      0.027000
     20 C8         -2.3170   -2.7400   -0.4000 ca        1 SKE     -0.112000
     21 C9         -5.6020   -6.2320   -5.1860 c         1 SKE      0.672500
     22 C10        -4.8180   -7.2700   -5.8190 ca        1 SKE     -0.294600
     23 C11        -4.3690   -8.4380   -5.1420 ca        1 SKE      0.227900
     24 C12        -3.7330   -9.4680   -5.8460 ca        1 SKE     -0.166000
     25 C13        -3.5240   -9.3470   -7.2230 ca        1 SKE      0.017000
     26 C14        -3.9370   -8.2100   -7.9120 ca        1 SKE     -0.166000
     27 C15        -4.5850   -7.1710   -7.2230 ca        1 SKE      0.227900
     28 HN1        -7.9270   -5.6150   -2.8800 hn        1 SKE      0.512800
     29 HN1A       -7.5900   -4.4510   -4.0580 hn        1 SKE      0.512800
     30 HN3        -2.1870   -5.8390   -1.4090 hn        1 SKE      0.506800
     31 H4         -0.7470   -4.4970   -2.9280 ha        1 SKE      0.197500
     32 HN4         0.9710    1.1820   -2.7870 hn        1 SKE      0.476800
     33 HN4A       -0.6040    0.7430   -2.6170 hn        1 SKE      0.476800
     34 H5          0.7530   -2.5530   -2.8150 ha        1 SKE      0.208000
     35 H7         -1.6540   -0.8440    0.3880 ha        1 SKE      0.208000
     36 H8         -3.1760   -2.7730    0.2980 ha        1 SKE      0.197500
     37 H12        -3.4170  -10.3800   -5.3090 ha        1 SKE      0.203500
     38 H13        -3.0290  -10.1710   -7.7730 ha        1 SKE      0.200000
     39 H14        -3.7740   -8.1160   -9.0020 ha        1 SKE      0.203500
     40 H131       -7.7140   -4.0050   -2.4250 hn        1 SKE      0.512800
     41 H32        -3.1840   -5.1420   -0.2410 hn        1 SKE      0.506800
     42 H43         0.0650    1.8220   -1.5730 hn        1 SKE      0.476800
@<TRIPOS>BOND
     1    1    5 2   
     2    1    9 2   
     3    1   14 1   
     4    1   17 1   
     5    2    4 1   
     6    2    8 2   
     7    2   18 1   
     8    3   23 1   
     9    4   28 1   
    10    4   29 1   
    11    4   40 1   
    12    6    8 1   
    13    6   11 1   
    14    6   16 2   
    15    7   27 1   
    16   10   11 1   
    17   10   13 ar  
    18   10   20 ar  
    19   11   30 1   
    20   11   41 1   
    21   12   21 2   
    22   13   15 ar  
    23   13   31 1   
    24   14   32 1   
    25   14   33 1   
    26   14   42 1   
    27   15   17 ar  
    28   15   34 1   
    29   16   18 1   
    30   17   19 ar  
    31   18   21 1   
    32   19   20 ar  
    33   19   35 1   
    34   20   36 1   
    35   21   22 1   
    36   22   23 ar  
    37   22   27 ar  
    38   23   24 ar  
    39   24   25 ar  
    40   24   37 1   
    41   25   26 ar  
    42   25   38 1   
    43   26   27 ar  
    44   26   39 1   
@<TRIPOS>SUBSTRUCTURE
     1 SKE         1 TEMP              0 ****  ****    0 ROOT
