@<TRIPOS>MOLECULE
SKE
   40    42     1     0     0
SMALL
bcc


@<TRIPOS>ATOM
      1 S           0.4440   -0.7380    0.1670 sy        1 SKE      1.522200
      2 C1         -5.6650   -4.3540   -3.7900 cc        1 SKE      0.742400
      3 F1         -6.0710   -9.2560   -3.2720 f         1 SKE     -0.118900
      4 N1         -6.9730   -4.0500   -3.5470 nh        1 SKE     -0.937500
      5 O1          1.8010   -0.5450    0.0090 o         1 SKE     -0.583800
      6 C2         -3.4770   -4.3640   -3.9300 cd        1 SKE      0.733900
      7 F2         -4.4630   -6.7800   -7.0410 f         1 SKE     -0.118900
      8 N2         -4.5790   -3.5300   -3.5810 nd        1 SKE     -0.771000
      9 O2         -0.1310   -0.7540    1.4200 o         1 SKE     -0.583800
     10 C3         -1.5690   -3.1710   -2.9370 ca        1 SKE      0.336600
     11 N3         -2.1350   -3.9180   -3.9200 nh        1 SKE     -0.665300
     12 O3         -7.2150   -6.6890   -4.4790 o         1 SKE     -0.518100
     13 C4         -0.2300   -2.6780   -3.1230 ca        1 SKE     -0.221500
     14 N4         -0.1670    1.0520   -0.4020 n4        1 SKE     -0.777500
     15 C5          0.3720   -1.9110   -2.1640 ca        1 SKE      0.053500
     16 N5         -3.8380   -5.6290   -4.3330 nc        1 SKE     -0.502800
     17 C6         -0.2750   -1.5660   -0.9440 ca        1 SKE     -0.672500
     18 N6         -5.1880   -5.6450   -4.2690 n         1 SKE     -0.098500
     19 C7         -1.5870   -2.0890   -0.7580 ca        1 SKE      0.053500
     20 C8         -2.2190   -2.8550   -1.6990 ca        1 SKE     -0.221500
     21 C9         -5.9920   -6.7740   -4.6230 c         1 SKE      0.636500
     22 C10        -5.2950   -7.9730   -5.1390 ca        1 SKE     -0.224600
     23 C11        -5.3920   -9.1960   -4.4380 ca        1 SKE      0.206400
     24 C12        -4.7770  -10.3560   -4.9450 ca        1 SKE     -0.182500
     25 C13        -4.0700  -10.2940   -6.1420 ca        1 SKE     -0.045000
     26 C14        -3.9580   -9.1000   -6.8480 ca        1 SKE     -0.182500
     27 C15        -4.5660   -7.9350   -6.3470 ca        1 SKE      0.206400
     28 HN1        -7.2070   -3.1040   -3.3580 hn        1 SKE      0.471800
     29 HN1A       -7.6880   -4.6900   -3.8130 hn        1 SKE      0.471800
     30 HN3        -1.5830   -4.1870   -4.7110 hn        1 SKE      0.481800
     31 H4          0.3200   -2.9220   -4.0480 ha        1 SKE      0.178500
     32 HN4        -0.7640    1.0030   -1.2170 hn        1 SKE      0.443800
     33 HN4A       -0.6860    1.4960    0.3490 hn        1 SKE      0.443800
     34 H5          1.4080   -1.5540   -2.3280 ha        1 SKE      0.163000
     35 H7         -2.1030   -1.8790    0.1990 ha        1 SKE      0.163000
     36 H8         -3.2310   -3.2410   -1.4900 ha        1 SKE      0.178500
     37 H12        -4.8660  -11.3000   -4.3870 ha        1 SKE      0.169000
     38 H13        -3.5940  -11.2060   -6.5390 ha        1 SKE      0.160000
     39 H14        -3.4030   -9.0530   -7.7970 ha        1 SKE      0.169000
     40 H43         0.6310    1.6380   -0.6240 hn        1 SKE      0.443800
@<TRIPOS>BOND
     1    1    5 2   
     2    1    9 2   
     3    1   14 1   
     4    1   17 1   
     5    2    4 1   
     6    2    8 2   
     7    2   18 1   
     8    3   23 1   
     9    4   28 1   
    10    4   29 1   
    11    6    8 1   
    12    6   11 1   
    13    6   16 2   
    14    7   27 1   
    15   10   11 1   
    16   10   13 ar  
    17   10   20 ar  
    18   11   30 1   
    19   12   21 2   
    20   13   15 ar  
    21   13   31 1   
    22   14   32 1   
    23   14   33 1   
    24   14   40 1   
    25   15   17 ar  
    26   15   34 1   
    27   16   18 1   
    28   17   19 ar  
    29   18   21 1   
    30   19   20 ar  
    31   19   35 1   
    32   20   36 1   
    33   21   22 1   
    34   22   23 ar  
    35   22   27 ar  
    36   23   24 ar  
    37   24   25 ar  
    38   24   37 1   
    39   25   26 ar  
    40   25   38 1   
    41   26   27 ar  
    42   26   39 1   
@<TRIPOS>SUBSTRUCTURE
     1 SKE         1 TEMP              0 ****  ****    0 ROOT
