@<TRIPOS>MOLECULE
SKE
   40    42     1     0     0
SMALL
bcc


@<TRIPOS>ATOM
      1 S           0.4520   -0.7440    0.1650 sy        1 SKE      1.522200
      2 C1         -5.6690   -4.3620   -3.7750 cc        1 SKE      0.742400
      3 F1         -6.0510   -9.2660   -3.2750 f         1 SKE     -0.118900
      4 N1         -6.9760   -4.0640   -3.5220 nv        1 SKE     -0.937500
      5 O1          1.8060   -0.5450   -0.0010 o         1 SKE     -0.583800
      6 C2         -3.4820   -4.3620   -3.9290 cd        1 SKE      0.733900
      7 F2         -4.4780   -6.7680   -7.0430 f         1 SKE     -0.118900
      8 N2         -4.5850   -3.5340   -3.5690 nd        1 SKE     -0.771000
      9 O2         -0.1160   -0.7700    1.4220 o         1 SKE     -0.583800
     10 C3         -1.5730   -3.1660   -2.9410 ca        1 SKE      0.336600
     11 N3         -2.1420   -3.9090   -3.9250 nu        1 SKE     -0.665300
     12 O3         -7.2130   -6.7000   -4.4640 o         1 SKE     -0.518100
     13 C4         -0.2360   -2.6660   -3.1330 ca        1 SKE     -0.221500
     14 N4         -0.1710    1.0470   -0.3890 nz        1 SKE     -0.777500
     15 C5          0.3690   -1.9030   -2.1730 ca        1 SKE      0.053500
     16 N5         -3.8400   -5.6260   -4.3340 nc        1 SKE     -0.502800
     17 C6         -0.2720   -1.5680   -0.9470 ca        1 SKE     -0.672500
     18 N6         -5.1900   -5.6480   -4.2630 n         1 SKE     -0.098500
     19 C7         -1.5810   -2.0970   -0.7560 ca        1 SKE      0.053500
     20 C8         -2.2150   -2.8600   -1.6970 ca        1 SKE     -0.221500
     21 C9         -5.9910   -6.7790   -4.6150 c         1 SKE      0.636500
     22 C10        -5.2930   -7.9730   -5.1410 ca        1 SKE     -0.224600
     23 C11        -5.3800   -9.1990   -4.4450 ca        1 SKE      0.206400
     24 C12        -4.7630  -10.3540   -4.9600 ca        1 SKE     -0.182500
     25 C13        -4.0640  -10.2840   -6.1610 ca        1 SKE     -0.045000
     26 C14        -3.9610   -9.0870   -6.8630 ca        1 SKE     -0.182500
     27 C15        -4.5710   -7.9260   -6.3530 ca        1 SKE      0.206400
     28 HN1        -7.6900   -4.7060   -3.7860 hn        1 SKE      0.471800
     29 HN1A       -7.2140   -3.1200   -3.3270 hn        1 SKE      0.471800
     30 HN3        -1.5940   -4.1710   -4.7210 hn        1 SKE      0.481800
     31 H4          0.3080   -2.9020   -4.0630 ha        1 SKE      0.178500
     32 HN4        -0.6860    1.4850    0.3680 hn        1 SKE      0.443800
     33 HN4A        0.6240    1.6380   -0.6120 hn        1 SKE      0.443800
     34 H5          1.4020   -1.5400   -2.3420 ha        1 SKE      0.163000
     35 H7         -2.0910   -1.8950    0.2070 ha        1 SKE      0.163000
     36 H8         -3.2250   -3.2520   -1.4840 ha        1 SKE      0.178500
     37 H12        -4.8450  -11.3010   -4.4050 ha        1 SKE      0.169000
     38 H13        -3.5860  -11.1930   -6.5640 ha        1 SKE      0.160000
     39 H14        -3.4120   -9.0340   -7.8150 ha        1 SKE      0.169000
     40 H43        -0.7730    1.0000   -1.2000 hn        1 SKE      0.443800
@<TRIPOS>BOND
     1    1    5 2   
     2    1    9 2   
     3    1   14 1   
     4    1   17 1   
     5    2    4 1   
     6    2    8 2   
     7    2   18 1   
     8    3   23 1   
     9    4   28 1   
    10    4   29 1   
    11    6    8 1   
    12    6   11 1   
    13    6   16 2   
    14    7   27 1   
    15   10   11 1   
    16   10   13 ar  
    17   10   20 ar  
    18   11   30 1   
    19   12   21 2   
    20   13   15 ar  
    21   13   31 1   
    22   14   32 1   
    23   14   33 1   
    24   14   40 1   
    25   15   17 ar  
    26   15   34 1   
    27   16   18 1   
    28   17   19 ar  
    29   18   21 1   
    30   19   20 ar  
    31   19   35 1   
    32   20   36 1   
    33   21   22 1   
    34   22   23 ar  
    35   22   27 ar  
    36   23   24 ar  
    37   24   25 ar  
    38   24   37 1   
    39   25   26 ar  
    40   25   38 1   
    41   26   27 ar  
    42   26   39 1   
@<TRIPOS>SUBSTRUCTURE
     1 SKE         1 TEMP              0 ****  ****    0 ROOT
