@<TRIPOS>MOLECULE
SKF
   26    27     1     0     0
SMALL
bcc


@<TRIPOS>ATOM
      1 C4         -1.8550    0.0040   -0.7890 ca        1 SKF     -0.158000
      2 C5         -1.4990    0.0460    0.5530 ca        1 SKF     -0.018000
      3 C6         -0.1520    0.0500    0.9400 ca        1 SKF     -0.388500
      4 C7          0.8290    0.0260   -0.0560 ca        1 SKF     -0.014000
      5 S           0.2760    0.1200    2.5710 sy        1 SKF      1.528200
      6 C8          0.4860   -0.0130   -1.4090 ca        1 SKF     -0.105300
      7 C9         -0.8670   -0.0300   -1.7820 ca        1 SKF     -0.000300
      8 O1         -0.7730    0.7400    3.2830 o         1 SKF     -0.659800
      9 O2          1.5630    0.6920    2.6700 o         1 SKF     -0.659800
     10 N           0.3560   -1.4230    2.9970 n3        1 SKF     -1.026700
     11 C1          1.5830   -0.0150   -2.4310 c3        1 SKF      0.207100
     12 C2         -0.1170    0.3320   -4.1410 c3        1 SKF      0.164800
     13 C3         -1.2520   -0.1030   -3.2150 c3        1 SKF     -0.047100
     14 N1          1.1510   -0.2740   -3.7910 n3        1 SKF     -0.820200
     15 HC4        -2.9170    0.0030   -1.0790 ha        1 SKF      0.140000
     16 HC5        -2.2830    0.0950    1.3290 ha        1 SKF      0.152000
     17 HC7         1.8940    0.0560    0.2350 ha        1 SKF      0.152000
     18 H1N        -0.4090   -1.9290    3.3670 hn        1 SKF      0.446800
     19 H2N         1.1790   -1.9660    2.9350 hn        1 SKF      0.446800
     20 HC11        2.3220   -0.8290   -2.1710 h1        1 SKF      0.044700
     21 HC12        2.1270    0.9750   -2.3390 h1        1 SKF      0.044700
     22 HC21       -0.3640    0.0130   -5.1920 h1        1 SKF      0.034200
     23 HC22       -0.0670    1.4620   -4.1310 h1        1 SKF      0.034200
     24 HC31       -1.5460   -1.1630   -3.4500 hc        1 SKF      0.065200
     25 HC32       -2.1450    0.5470   -3.4120 hc        1 SKF      0.065200
     26 HN1         1.8630    0.0210   -4.4330 hn        1 SKF      0.369800
@<TRIPOS>BOND
     1    1    2 ar  
     2    1    7 ar  
     3    1   15 1   
     4    2    3 ar  
     5    2   16 1   
     6    3    4 ar  
     7    3    5 1   
     8    4    6 ar  
     9    4   17 1   
    10    5    8 2   
    11    5    9 2   
    12    5   10 1   
    13    6    7 ar  
    14    6   11 1   
    15    7   13 1   
    16   10   18 1   
    17   10   19 1   
    18   11   14 1   
    19   11   20 1   
    20   11   21 1   
    21   12   13 1   
    22   12   14 1   
    23   12   22 1   
    24   12   23 1   
    25   13   24 1   
    26   13   25 1   
    27   14   26 1   
@<TRIPOS>SUBSTRUCTURE
     1 SKF         1 TEMP              0 ****  ****    0 ROOT
