@<TRIPOS>MOLECULE
SKF
   27    28     1     0     0
SMALL
bcc


@<TRIPOS>ATOM
      1 C4          0.0830   -0.0790   -0.0190 ca        1 SKF     -0.159000
      2 C5          1.4640   -0.1030    0.0040 ca        1 SKF      0.014000
      3 C6          2.1790   -0.0880    1.2260 ca        1 SKF     -0.575500
      4 C7          1.4240   -0.0660    2.4230 ca        1 SKF      0.010000
      5 S           3.7640   -0.1800    1.2560 sy        1 SKF      1.500200
      6 C8          0.0380   -0.0480    2.4100 ca        1 SKF     -0.094300
      7 C9         -0.6530   -0.0460    1.1790 ca        1 SKF      0.089700
      8 O1          4.3670   -0.5300    0.0670 o         1 SKF     -0.570300
      9 O2          4.3240   -0.5020    2.4740 o         1 SKF     -0.570300
     10 N           4.1320    1.7210    1.2410 nz        1 SKF     -0.784500
     11 C1         -0.7110   -0.0500    3.7140 c3        1 SKF      0.202100
     12 C2         -2.7870   -0.2790    2.4870 c3        1 SKF      0.158800
     13 C3         -2.1350    0.0130    1.1340 c3        1 SKF     -0.072100
     14 N1         -2.0910    0.3670    3.5800 n7        1 SKF     -0.824200
     15 HC4        -0.4530   -0.0930   -0.9840 ha        1 SKF      0.174000
     16 HC5         2.0270   -0.1520   -0.9470 ha        1 SKF      0.167000
     17 HC7         1.9570   -0.0830    3.3930 ha        1 SKF      0.166000
     18 H1N         4.6860    1.9660    0.4230 hn        1 SKF      0.453467
     19 H2N         3.2840    2.2770    1.2240 hn        1 SKF      0.453467
     20 HC11       -0.6080   -1.0910    4.1510 h1        1 SKF      0.058700
     21 HC12       -0.2170    0.6690    4.4290 h1        1 SKF      0.058700
     22 HC21       -3.8410    0.1180    2.4700 h1        1 SKF      0.055200
     23 HC22       -2.8450   -1.4010    2.6180 h1        1 SKF      0.055200
     24 HC31       -2.5290   -0.7170    0.3760 hc        1 SKF      0.092700
     25 HC32       -2.4290    1.0450    0.7910 hc        1 SKF      0.092700
     26 HN1        -2.5810    0.2360    4.4460 hn        1 SKF      0.395800
     27 HN3         4.6640    1.9830    2.0680 hn        1 SKF      0.453467
@<TRIPOS>BOND
     1    1    2 ar  
     2    1    7 ar  
     3    1   15 1   
     4    2    3 ar  
     5    2   16 1   
     6    3    4 ar  
     7    3    5 1   
     8    4    6 ar  
     9    4   17 1   
    10    5    8 2   
    11    5    9 2   
    12    5   10 1   
    13    6    7 ar  
    14    6   11 1   
    15    7   13 1   
    16   10   18 1   
    17   10   19 1   
    18   10   27 1   
    19   11   14 1   
    20   11   20 1   
    21   11   21 1   
    22   12   13 1   
    23   12   14 1   
    24   12   22 1   
    25   12   23 1   
    26   13   24 1   
    27   13   25 1   
    28   14   26 1   
@<TRIPOS>SUBSTRUCTURE
     1 SKF         1 TEMP              0 ****  ****    0 ROOT
