@<TRIPOS>MOLECULE
SKF
   27    28     1     0     0
SMALL
bcc


@<TRIPOS>ATOM
      1 C4          0.0910   -0.1010   -0.0180 ca        1 SKF     -0.159000
      2 C5          1.4720   -0.1330    0.0140 ca        1 SKF      0.014000
      3 C6          2.1800   -0.1060    1.2400 ca        1 SKF     -0.575500
      4 C7          1.4190   -0.0630    2.4310 ca        1 SKF      0.010000
      5 S           3.7640   -0.2090    1.2790 sy        1 SKF      1.500200
      6 C8          0.0320   -0.0350    2.4100 ca        1 SKF     -0.094300
      7 C9         -0.6510   -0.0460    1.1750 ca        1 SKF      0.089700
      8 O1          4.3720   -0.5790    0.0990 o         1 SKF     -0.570300
      9 O2          4.3150   -0.5180    2.5050 o         1 SKF     -0.570300
     10 N           4.1450    1.6900    1.2400 n4        1 SKF     -0.784500
     11 C1         -0.7240   -0.0150    3.7090 c3        1 SKF      0.202100
     12 C2         -2.7940   -0.2470    2.4750 c3        1 SKF      0.158800
     13 C3         -2.1320    0.0220    1.1210 c3        1 SKF     -0.072100
     14 N1         -2.1000    0.4100    3.5630 n3        1 SKF     -0.824200
     15 HC4        -0.4400   -0.1250   -0.9850 ha        1 SKF      0.174000
     16 HC5         2.0400   -0.1990   -0.9340 ha        1 SKF      0.167000
     17 HC7         1.9460   -0.0690    3.4050 ha        1 SKF      0.166000
     18 H1N         4.6740    1.9600    2.0670 hn        1 SKF      0.453467
     19 H2N         4.7060    1.9200    0.4230 hn        1 SKF      0.453467
     20 HC11       -0.2280    0.7110    4.4180 h1        1 SKF      0.058700
     21 HC12       -0.6300   -1.0500    4.1620 h1        1 SKF      0.058700
     22 HC21       -2.8600   -1.3660    2.6210 h1        1 SKF      0.055200
     23 HC22       -3.8460    0.1570    2.4460 h1        1 SKF      0.055200
     24 HC31       -2.4170    1.0510    0.7620 hc        1 SKF      0.092700
     25 HC32       -2.5270   -0.7160    0.3710 hc        1 SKF      0.092700
     26 HN1        -2.5960    0.2940    4.4270 hn        1 SKF      0.395800
     27 HN3         3.3000    2.2510    1.2110 hn        1 SKF      0.453467
@<TRIPOS>BOND
     1    1    2 ar  
     2    1    7 ar  
     3    1   15 1   
     4    2    3 ar  
     5    2   16 1   
     6    3    4 ar  
     7    3    5 1   
     8    4    6 ar  
     9    4   17 1   
    10    5    8 2   
    11    5    9 2   
    12    5   10 1   
    13    6    7 ar  
    14    6   11 1   
    15    7   13 1   
    16   10   18 1   
    17   10   19 1   
    18   10   27 1   
    19   11   14 1   
    20   11   20 1   
    21   11   21 1   
    22   12   13 1   
    23   12   14 1   
    24   12   22 1   
    25   12   23 1   
    26   13   24 1   
    27   13   25 1   
    28   14   26 1   
@<TRIPOS>SUBSTRUCTURE
     1 SKF         1 TEMP              0 ****  ****    0 ROOT
