@<TRIPOS>MOLECULE
SKF
   27    28     1     0     0
SMALL
bcc


@<TRIPOS>ATOM
      1 C4          0.0790   -0.0840   -0.0170 ca        1 SKF     -0.159000
      2 C5          1.4610   -0.1150    0.0040 ca        1 SKF      0.014000
      3 C6          2.1770   -0.0990    1.2260 ca        1 SKF     -0.575500
      4 C7          1.4230   -0.0690    2.4230 ca        1 SKF      0.010000
      5 S           3.7620   -0.2010    1.2530 sy        1 SKF      1.500200
      6 C8          0.0370   -0.0420    2.4110 ca        1 SKF     -0.094300
      7 C9         -0.6550   -0.0410    1.1810 ca        1 SKF      0.089700
      8 O1          4.3610   -0.5580    0.0650 o         1 SKF     -0.570300
      9 O2          4.3210   -0.5210    2.4720 o         1 SKF     -0.570300
     10 N           4.1400    1.6980    1.2310 n4        1 SKF     -0.784500
     11 C1         -0.7100   -0.0360    3.7160 c3        1 SKF      0.202100
     12 C2         -2.7880   -0.2580    2.4930 c3        1 SKF      0.158800
     13 C3         -2.1360    0.0260    1.1380 c3        1 SKF     -0.072100
     14 N1         -2.0880    0.3890    3.5830 n3        1 SKF     -0.824200
     15 HC4        -0.4580   -0.0980   -0.9810 ha        1 SKF      0.174000
     16 HC5         2.0220   -0.1700   -0.9480 ha        1 SKF      0.167000
     17 HC7         1.9570   -0.0840    3.3930 ha        1 SKF      0.166000
     18 H1N         3.2950    2.2600    1.2130 hn        1 SKF      0.453467
     19 H2N         4.6750    1.9610    2.0560 hn        1 SKF      0.453467
     20 HC11       -0.2100    0.6830    4.4280 h1        1 SKF      0.058700
     21 HC12       -0.6130   -1.0750    4.1570 h1        1 SKF      0.058700
     22 HC21       -2.8530   -1.3780    2.6280 h1        1 SKF      0.055200
     23 HC22       -3.8410    0.1450    2.4760 h1        1 SKF      0.055200
     24 HC31       -2.5360   -0.7040    0.3830 hc        1 SKF      0.092700
     25 HC32       -2.4250    1.0590    0.7910 hc        1 SKF      0.092700
     26 HN1        -2.5780    0.2640    4.4490 hn        1 SKF      0.395800
     27 HN3         4.6950    1.9370    0.4120 hn        1 SKF      0.453467
@<TRIPOS>BOND
     1    1    2 ar  
     2    1    7 ar  
     3    1   15 1   
     4    2    3 ar  
     5    2   16 1   
     6    3    4 ar  
     7    3    5 1   
     8    4    6 ar  
     9    4   17 1   
    10    5    8 2   
    11    5    9 2   
    12    5   10 1   
    13    6    7 ar  
    14    6   11 1   
    15    7   13 1   
    16   10   18 1   
    17   10   19 1   
    18   10   27 1   
    19   11   14 1   
    20   11   20 1   
    21   11   21 1   
    22   12   13 1   
    23   12   14 1   
    24   12   22 1   
    25   12   23 1   
    26   13   24 1   
    27   13   25 1   
    28   14   26 1   
@<TRIPOS>SUBSTRUCTURE
     1 SKF         1 TEMP              0 ****  ****    0 ROOT
