@<TRIPOS>MOLECULE
SKK
   55    58     1     0     0
SMALL
bcc


@<TRIPOS>ATOM
      1 N1          2.3400   -2.1380   -1.2130 n1        1 SKK      0.023000
      2 N2          0.0000    0.0000    0.0000 n3        1 SKK      0.059000
      3 N3         -3.0200    0.3690   -2.3870 ny        1 SKK     -0.239000
      4 N4         -3.0240    0.3500   -5.2790 ny        1 SKK      0.122000
      5 N5         -2.7370   -2.6570   -7.7770 n2        1 SKK      0.134000
      6 N6         -0.2400   -2.1020   -7.5510 na        1 SKK     -0.091000
      7 N7          0.9000   -2.9720   -8.0580 n2        1 SKK      0.137000
      8 O8         -1.6240   -0.3270   -0.9380 oh        1 SKK      0.742000
      9 O9         -5.3440    0.6270   -6.1070 o         1 SKK     -0.311000
     10 C10         1.9710   -1.2050   -0.6800 c1        1 SKK     -0.212000
     11 C11         1.4700    0.0000    0.0000 c3        1 SKK      0.166000
     12 C12         1.9290    0.0000    1.4740 c3        1 SKK     -0.246000
     13 C13         0.6950    0.5700    2.2210 c3        1 SKK     -0.147000
     14 C14        -0.4720   -0.0270    1.3960 c3        1 SKK     -0.133000
     15 C15        -0.7860    0.0250   -1.0940 c2        1 SKK     -0.614000
     16 C16        -2.2850    0.0270   -0.9460 c3        1 SKK      0.290000
     17 C17        -2.8990   -0.8440   -3.0370 c3        1 SKK     -0.114000
     18 C18        -1.4380   -1.3740   -3.7550 c3        1 SKK     -0.138000
     19 C19        -3.4810   -2.0100   -2.2790 c3        1 SKK     -0.138000
     20 C20        -3.8120   -0.6550   -4.4160 c3        1 SKK     -0.173000
     21 C21        -4.1260    0.9980   -6.4510 c1        1 SKK      0.095000
     22 C22        -1.8880   -1.0620   -6.1920 c1        1 SKK     -0.071000
     23 C23        -0.7670   -1.0670   -6.5640 c2        1 SKK      0.006000
     24 C24        -2.9430   -1.5330   -7.0060 c2        1 SKK     -0.192000
     25 C25        -1.6250   -3.2000   -7.7140 c2        1 SKK     -0.153000
     26 C26        -1.0310   -3.2090   -9.2360 c2        1 SKK      0.235000
     27 C27         0.4360   -3.5630   -8.9770 c2        1 SKK     -0.083000
     28 C28         1.3860   -3.9250  -10.1160 c3        1 SKK     -0.080000
     29 H1         -2.3610    0.9820   -2.8260 DU        1 SKK      0.223500
     30 H3         -2.6930    1.0690   -4.6660 hn        1 SKK      0.147000
     31 H4          1.8360    0.8900   -0.4980 h1        1 SKK      0.108000
     32 H5          2.4040   -0.8700    1.9110 hc        1 SKK      0.138500
     33 H6          2.1220    0.9360    1.9840 hc        1 SKK      0.138500
     34 H7          0.9160   -0.2010    2.9480 hc        1 SKK      0.115000
     35 H8          1.0100    1.5910    2.4030 hc        1 SKK      0.115000
     36 H9         -1.4760    0.3790    1.4210 h1        1 SKK      0.097500
     37 H10        -0.3210   -0.9530    1.9390 h1        1 SKK      0.097500
     38 H11        -2.7090    0.8180   -0.3380 hx        1 SKK      0.088000
     39 H12        -2.6400   -0.9900   -0.8290 DU        1 SKK     -0.121000
     40 H13        -1.3600   -1.8320   -4.7330 hc        1 SKK      0.080333
     41 H14        -0.8260   -0.4830   -3.8320 hc        1 SKK      0.080333
     42 H15        -0.7370   -1.7050   -2.9980 hc        1 SKK      0.080333
     43 H16        -4.4810   -1.8850   -1.8800 hc        1 SKK      0.080333
     44 H17        -3.4980   -2.8600   -2.9510 hc        1 SKK      0.080333
     45 H18        -2.7190   -2.2920   -1.5620 hc        1 SKK      0.080333
     46 H19        -4.8180   -0.3900   -4.1140 hx        1 SKK      0.132000
     47 H20        -3.8300   -1.4500   -5.1510 hx        1 SKK      0.132000
     48 H21         0.0330   -0.3360   -6.5450 h4        1 SKK      0.192000
     49 H22        -4.0160   -1.4210   -7.1040 h4        1 SKK      0.212000
     50 H23        -1.5530   -3.3760  -10.1700 ha        1 SKK      0.170000
     51 H24         2.1160   -3.1570  -10.3450 hc        1 SKK      0.093667
     52 H25         1.9150   -4.7470   -9.6500 hc        1 SKK      0.093667
     53 H26         0.9560   -4.5490  -10.8900 hc        1 SKK      0.093667
     54 H32        -2.7990    1.2510   -2.8040 DU        1 SKK      0.223500
     55 H42        -2.6280    0.0970   -6.1630 hn        1 SKK      0.147000
@<TRIPOS>BOND
     1    1   10 1   
     2    2   11 1   
     3    2   14 1   
     4    2   15 1   
     5    3   16 1   
     6    3   17 1   
     7    3   29 1   
     8    3   54 1   
     9    4   20 1   
    10    4   21 1   
    11    4   30 1   
    12    4   55 1   
    13    5   24 1   
    14    5   25 1   
    15    6    7 1   
    16    6   23 1   
    17    6   25 1   
    18    7   27 1   
    19    8   15 1   
    20    8   39 1   
    21    9   21 1   
    22   10   11 1   
    23   11   12 1   
    24   11   31 1   
    25   12   13 1   
    26   12   32 1   
    27   12   33 1   
    28   13   14 1   
    29   13   34 1   
    30   13   35 1   
    31   14   36 1   
    32   14   37 1   
    33   15   16 1   
    34   16   38 1   
    35   16   39 1   
    36   17   18 1   
    37   17   19 1   
    38   17   20 1   
    39   18   40 1   
    40   18   41 1   
    41   18   42 1   
    42   19   43 1   
    43   19   44 1   
    44   19   45 1   
    45   20   46 1   
    46   20   47 1   
    47   22   23 1   
    48   22   24 1   
    49   23   48 1   
    50   24   49 1   
    51   25   26 1   
    52   26   27 1   
    53   26   50 1   
    54   27   28 1   
    55   28   51 1   
    56   28   52 1   
    57   28   53 1   
    58   29   54 1   
@<TRIPOS>SUBSTRUCTURE
     1 SKK         1 TEMP              0 ****  ****    0 ROOT
