@<TRIPOS>MOLECULE
SKM
   21    21     1     0     0
SMALL
bcc


@<TRIPOS>ATOM
      1 O12        -0.0230   -0.0320   -0.1690 oh        1 SKM     -0.600800
      2 C8          1.3920   -0.0210   -0.0720 c3        1 SKM      0.080100
      3 C6          1.8700   -0.1190    1.3860 c3        1 SKM      0.097100
      4 O7          1.2250    0.8850    2.1610 oh        1 SKM     -0.619800
      5 C5          3.3870   -0.0210    1.4520 c3        1 SKM     -0.072200
      6 C4          4.0570   -0.8440    0.4130 ce        1 SKM     -0.137400
      7 C1          5.5520   -1.0660    0.6290 c         1 SKM      0.902800
      8 O2          6.0150   -0.8240    1.7810 o         1 SKM     -0.827800
      9 O3          6.2420   -1.4760   -0.3440 o         1 SKM     -0.827800
     10 C10         3.4140   -1.3580   -0.6420 c2        1 SKM     -0.253200
     11 C9          1.9530   -1.1890   -0.9060 c3        1 SKM      0.186300
     12 O11         1.2340   -2.3910   -0.6710 oh        1 SKM     -0.595800
     13 H12        -0.3610    0.3580    0.6480 ho        1 SKM      0.403000
     14 H8          1.7620    0.9480   -0.5140 h1        1 SKM      0.035700
     15 H6          1.5050   -1.0830    1.8380 h1        1 SKM      0.073700
     16 HO7         1.6640    1.7210    1.9680 ho        1 SKM      0.397000
     17 H51         3.7540   -0.3460    2.4640 hc        1 SKM      0.070700
     18 H52         3.7070    1.0480    1.3200 hc        1 SKM      0.070700
     19 H10         3.9660   -1.9580   -1.3840 ha        1 SKM      0.154000
     20 H9          1.7600   -0.9770   -1.9960 h1        1 SKM      0.069700
     21 H11         1.4750   -2.6950    0.2120 ho        1 SKM      0.394000
@<TRIPOS>BOND
     1    1    2 1   
     2    1   13 1   
     3    2    3 1   
     4    2   11 1   
     5    2   14 1   
     6    3    4 1   
     7    3    5 1   
     8    3   15 1   
     9    4   16 1   
    10    5    6 1   
    11    5   17 1   
    12    5   18 1   
    13    6    7 1   
    14    6   10 2   
    15    7    8 1   
    16    7    9 1   
    17   10   11 1   
    18   10   19 1   
    19   11   12 1   
    20   11   20 1   
    21   12   21 1   
@<TRIPOS>SUBSTRUCTURE
     1 SKM         1 TEMP              0 ****  ****    0 ROOT
