@<TRIPOS>MOLECULE
SKM
   21    21     1     0     0
SMALL
bcc


@<TRIPOS>ATOM
      1 O12        -0.0300    0.0040   -0.1120 oh        1 SKM     -0.600800
      2 C8          1.3880   -0.0130   -0.0600 c3        1 SKM      0.080100
      3 C6          1.9090   -0.0610    1.3860 c3        1 SKM      0.097100
      4 O7          1.3100    0.9890    2.1370 oh        1 SKM     -0.619800
      5 C5          3.4290    0.0040    1.4010 c3        1 SKM     -0.072200
      6 C4          4.0480   -0.8760    0.3770 ce        1 SKM     -0.138400
      7 C1          5.5440   -1.1230    0.5570 c         1 SKM      0.902800
      8 O2          6.0490   -0.8410    1.6820 o         1 SKM     -0.827800
      9 O3          6.1930   -1.5910   -0.4180 o         1 SKM     -0.827800
     10 C10         3.3610   -1.4190   -0.6350 c2        1 SKM     -0.253200
     11 C9          1.8970   -1.2270   -0.8600 c3        1 SKM      0.186300
     12 O11         1.1590   -2.4020   -0.5520 oh        1 SKM     -0.595800
     13 H12        -0.3340    0.4360    0.6970 ho        1 SKM      0.403000
     14 H8          1.7640    0.9280   -0.5540 h1        1 SKM      0.035700
     15 H6          1.5380   -0.9970    1.8890 h1        1 SKM      0.073700
     16 HO7         1.7620    1.8060    1.8950 ho        1 SKM      0.397000
     17 H51         3.7670    1.0600    1.2130 hc        1 SKM      0.070700
     18 H52         3.8210   -0.2850    2.4140 hc        1 SKM      0.070700
     19 H10         3.8760   -2.0620   -1.3660 ha        1 SKM      0.154000
     20 H9          1.6730   -1.0570   -1.9520 h1        1 SKM      0.069700
     21 H11         1.4220   -2.6740    0.3350 ho        1 SKM      0.394000
@<TRIPOS>BOND
     1    1    2 1   
     2    1   13 1   
     3    2    3 1   
     4    2   11 1   
     5    2   14 1   
     6    3    4 1   
     7    3    5 1   
     8    3   15 1   
     9    4   16 1   
    10    5    6 1   
    11    5   17 1   
    12    5   18 1   
    13    6    7 1   
    14    6   10 2   
    15    7    8 1   
    16    7    9 1   
    17   10   11 1   
    18   10   19 1   
    19   11   12 1   
    20   11   20 1   
    21   12   21 1   
@<TRIPOS>SUBSTRUCTURE
     1 SKM         1 TEMP              0 ****  ****    0 ROOT
