@<TRIPOS>MOLECULE
SKM
   21    21     1     0     0
SMALL
bcc


@<TRIPOS>ATOM
      1 O12         3.1260   -0.2600    0.5560 oh        1 SKM     -0.595800
      2 C8          1.7310   -0.0810    0.7070 c3        1 SKM      0.118100
      3 C6          1.1740    0.9370   -0.3010 c3        1 SKM      0.106100
      4 O7          1.9210    2.1390   -0.1540 oh        1 SKM     -0.603800
      5 C5         -0.3140    1.1660   -0.0600 c3        1 SKM     -0.085200
      6 C4         -1.0710   -0.0980    0.1080 ce        1 SKM     -0.122400
      7 C1         -2.5820    0.0090   -0.0860 c         1 SKM      0.902800
      8 O2         -3.0130    1.0030   -0.7390 o         1 SKM     -0.826300
      9 O3         -3.3120   -0.8950    0.4020 o         1 SKM     -0.826300
     10 C10        -0.4780   -1.2620    0.4000 c2        1 SKM     -0.262200
     11 C9          0.9940   -1.4290    0.5520 c3        1 SKM      0.151300
     12 O11         1.5650   -2.1360   -0.5500 oh        1 SKM     -0.624800
     13 H12         3.2600   -0.7260   -0.2800 ho        1 SKM      0.402000
     14 H8          1.6070    0.3150    1.7520 h1        1 SKM      0.082700
     15 H6          1.3450    0.5480   -1.3450 h1        1 SKM      0.024700
     16 HO7         1.3660    2.8510   -0.4950 ho        1 SKM      0.393000
     17 H51        -0.4490    1.7910    0.8650 hc        1 SKM      0.071700
     18 H52        -0.7610    1.7430   -0.9160 hc        1 SKM      0.071700
     19 H10        -1.0820   -2.1720    0.5340 ha        1 SKM      0.151000
     20 H9          1.2400   -2.0750    1.4420 h1        1 SKM      0.066700
     21 H11         1.0790   -1.8730   -1.3400 ho        1 SKM      0.404000
@<TRIPOS>BOND
     1    1    2 1   
     2    1   13 1   
     3    2    3 1   
     4    2   11 1   
     5    2   14 1   
     6    3    4 1   
     7    3    5 1   
     8    3   15 1   
     9    4   16 1   
    10    5    6 1   
    11    5   17 1   
    12    5   18 1   
    13    6    7 1   
    14    6   10 2   
    15    7    8 1   
    16    7    9 1   
    17   10   11 1   
    18   10   19 1   
    19   11   12 1   
    20   11   20 1   
    21   12   21 1   
@<TRIPOS>SUBSTRUCTURE
     1 SKM         1 TEMP              0 ****  ****    0 ROOT
