@<TRIPOS>MOLECULE
SKO
   48    49     1     0     0
SMALL
bcc


@<TRIPOS>ATOM
      1 N02         1.2480    2.3000   -1.5690 nv        1 SKO     -0.926500
      2 C02         2.2370    1.4190   -1.0820 ca        1 SKO      0.619200
      3 C03         2.3250    1.1590    0.3180 ca        1 SKO     -0.285300
      4 C04         3.3550    0.3530    0.7950 ca        1 SKO      0.014700
      5 C07         3.4740    0.0450    2.2380 c3        1 SKO     -0.073800
      6 C05         4.2750   -0.1810   -0.1210 ca        1 SKO     -0.269300
      7 N01         3.1400    0.9050   -1.9720 nb        1 SKO     -0.800000
      8 C06         4.1320    0.1200   -1.4850 ca        1 SKO      0.429600
      9 C08         5.1340   -0.4450   -2.4590 c3        1 SKO     -0.123700
     10 C09         4.5070   -1.4590   -3.4010 c3        1 SKO     -0.136700
     11 C12         4.8270   -1.2410   -4.8540 ca        1 SKO      0.451600
     12 C13         5.3450   -2.3230   -5.5960 ca        1 SKO     -0.247300
     13 C14         5.5610   -2.1600   -6.9640 ca        1 SKO     -0.055000
     14 C15         5.2550   -0.9460   -7.5720 ca        1 SKO     -0.236300
     15 N11         4.5600   -0.0410   -5.4200 nb        1 SKO     -0.804000
     16 C16         4.7440    0.1110   -6.7650 ca        1 SKO      0.626200
     17 N17         4.3640    1.3290   -7.4040 nh        1 SKO     -0.769300
     18 C17         5.4070    2.0230   -8.1190 c3        1 SKO      0.176100
     19 C18         3.3450    2.1460   -6.8070 c3        1 SKO      0.191800
     20 C19         3.7650    3.1420   -5.7020 c3        1 SKO      0.059800
     21 N20         3.9450    2.5210   -4.3630 ny        1 SKO     -0.774000
     22 C21         4.9260    3.2570   -3.5420 c3        1 SKO      0.089100
     23 H021        0.5310    2.4800   -0.8970 hn        1 SKO      0.399300
     24 H022        0.8760    2.0580   -2.4630 hn        1 SKO      0.399300
     25 H03         1.5910    1.5920    1.0140 ha        1 SKO      0.157000
     26 H071        3.0550   -0.9730    2.4420 hc        1 SKO      0.063700
     27 H072        2.9140    0.7870    2.8590 hc        1 SKO      0.063700
     28 H073        4.5460    0.0520    2.5560 hc        1 SKO      0.063700
     29 H05         5.0920   -0.8280    0.2280 ha        1 SKO      0.157000
     30 H081        5.9570   -0.9430   -1.8770 hc        1 SKO      0.056700
     31 H082        5.6120    0.3990   -3.0240 hc        1 SKO      0.056700
     32 H091        3.3870   -1.4630   -3.2960 hc        1 SKO      0.076700
     33 H092        4.8590   -2.4870   -3.1120 hc        1 SKO      0.076700
     34 H13         5.5660   -3.2800   -5.1030 ha        1 SKO      0.163000
     35 H14         5.9610   -2.9920   -7.5670 ha        1 SKO      0.162000
     36 H15         5.3870   -0.8140   -8.6560 ha        1 SKO      0.166000
     37 H171        4.9310    2.7400   -8.8390 h1        1 SKO      0.050700
     38 H172        6.0910    2.5960   -7.4350 h1        1 SKO      0.050700
     39 H173        6.0220    1.2860   -8.6990 h1        1 SKO      0.050700
     40 H181        2.9170    2.7860   -7.6360 h1        1 SKO      0.089200
     41 H182        2.5190    1.4800   -6.4250 h1        1 SKO      0.089200
     42 H191        2.9670    3.9330   -5.6160 hx        1 SKO      0.095700
     43 H192        4.7280    3.6480   -5.9970 hx        1 SKO      0.095700
     44 H20         4.2520    1.5150   -4.4800 hn        1 SKO      0.484800
     45 H211        4.5980    4.3230   -3.4210 hx        1 SKO      0.096367
     46 H212        5.0000    2.7720   -2.5310 hx        1 SKO      0.096367
     47 H213        5.9310    3.2270   -4.0410 hx        1 SKO      0.096367
     48 H202        3.0420    2.5000   -3.8740 hn        1 SKO      0.484800
@<TRIPOS>BOND
     1    1    2 1   
     2    1   23 1   
     3    1   24 1   
     4    2    3 ar  
     5    2    7 ar  
     6    3    4 ar  
     7    3   25 1   
     8    4    5 1   
     9    4    6 ar  
    10    5   26 1   
    11    5   27 1   
    12    5   28 1   
    13    6    8 ar  
    14    6   29 1   
    15    7    8 ar  
    16    8    9 1   
    17    9   10 1   
    18    9   30 1   
    19    9   31 1   
    20   10   11 1   
    21   10   32 1   
    22   10   33 1   
    23   11   12 ar  
    24   11   15 ar  
    25   12   13 ar  
    26   12   34 1   
    27   13   14 ar  
    28   13   35 1   
    29   14   16 ar  
    30   14   36 1   
    31   15   16 ar  
    32   16   17 1   
    33   17   18 1   
    34   17   19 1   
    35   18   37 1   
    36   18   38 1   
    37   18   39 1   
    38   19   20 1   
    39   19   40 1   
    40   19   41 1   
    41   20   21 1   
    42   20   42 1   
    43   20   43 1   
    44   21   22 1   
    45   21   44 1   
    46   21   48 1   
    47   22   45 1   
    48   22   46 1   
    49   22   47 1   
@<TRIPOS>SUBSTRUCTURE
     1 SKO         1 TEMP              0 ****  ****    0 ROOT
