@<TRIPOS>MOLECULE
SKO
   48    49     1     0     0
SMALL
bcc


@<TRIPOS>ATOM
      1 N02         1.2910    2.4510   -1.6340 nh        1 SKO     -0.926500
      2 C02         2.2130    1.5220   -1.1000 ca        1 SKO      0.614200
      3 C03         2.2270    1.2670    0.3030 ca        1 SKO     -0.284300
      4 C04         3.1900    0.4050    0.8260 ca        1 SKO      0.013700
      5 C07         3.2300    0.1000    2.2740 c3        1 SKO     -0.072800
      6 C05         4.1130   -0.1860   -0.0490 ca        1 SKO     -0.268300
      7 N01         3.1230    0.9550   -1.9500 nb        1 SKO     -0.795000
      8 C06         4.0470    0.1170   -1.4190 ca        1 SKO      0.433600
      9 C08         5.0620   -0.5020   -2.3450 c3        1 SKO     -0.125700
     10 C09         4.4330   -1.4610   -3.3420 c3        1 SKO     -0.135700
     11 C12         4.8790   -1.2250   -4.7600 ca        1 SKO      0.459600
     12 C13         5.4990   -2.2780   -5.4630 ca        1 SKO     -0.259300
     13 C14         5.8640   -2.0720   -6.7930 ca        1 SKO     -0.044000
     14 C15         5.6100   -0.8460   -7.4000 ca        1 SKO     -0.272300
     15 N11         4.6360   -0.0220   -5.3260 nb        1 SKO     -0.799000
     16 C16         4.9920    0.1820   -6.6320 ca        1 SKO      0.641200
     17 N17         4.7780    1.4800   -7.1670 nh        1 SKO     -0.790300
     18 C17         5.2950    1.7500   -8.4850 c3        1 SKO      0.183100
     19 C18         3.5580    2.1660   -6.8080 c3        1 SKO      0.194800
     20 C19         3.7490    3.1910   -5.6670 c3        1 SKO      0.091800
     21 N20         3.9860    2.5700   -4.3350 n4        1 SKO     -0.774000
     22 C21         5.0470    3.2580   -3.5750 c3        1 SKO      0.091100
     23 H021        0.5740    2.6910   -0.9820 hn        1 SKO      0.396800
     24 H022        0.9170    2.1950   -2.5230 hn        1 SKO      0.396800
     25 H03         1.4920    1.7440    0.9660 ha        1 SKO      0.157000
     26 H071        2.7410   -0.8890    2.4650 hc        1 SKO      0.063700
     27 H072        2.6920    0.8790    2.8680 hc        1 SKO      0.063700
     28 H073        4.2870    0.0430    2.6360 hc        1 SKO      0.063700
     29 H05         4.8760   -0.8770    0.3350 ha        1 SKO      0.157000
     30 H081        5.6220    0.3200   -2.8680 hc        1 SKO      0.059200
     31 H082        5.8180   -1.0580   -1.7260 hc        1 SKO      0.059200
     32 H091        3.3110   -1.3930   -3.3110 hc        1 SKO      0.076200
     33 H092        4.7000   -2.5140   -3.0560 hc        1 SKO      0.076200
     34 H13         5.6850   -3.2430   -4.9700 ha        1 SKO      0.163000
     35 H14         6.3460   -2.8800   -7.3680 ha        1 SKO      0.160000
     36 H15         5.8810   -0.6900   -8.4540 ha        1 SKO      0.161000
     37 H171        5.2190    2.8520   -8.6830 h1        1 SKO      0.055367
     38 H172        4.7360    1.1970   -9.2880 h1        1 SKO      0.055367
     39 H173        6.3790    1.4570   -8.5230 h1        1 SKO      0.055367
     40 H181        2.7420    1.4420   -6.5210 h1        1 SKO      0.078700
     41 H182        3.1830    2.7630   -7.6910 h1        1 SKO      0.078700
     42 H191        4.6150    3.8690   -5.9140 hx        1 SKO      0.096200
     43 H192        2.8150    3.8190   -5.6040 hx        1 SKO      0.096200
     44 H20         4.2460    1.5510   -4.4560 hn        1 SKO      0.485300
     45 H211        5.1610    2.7570   -2.5750 hx        1 SKO      0.095700
     46 H212        4.7740    4.3360   -3.4240 hx        1 SKO      0.095700
     47 H213        6.0160    3.1910   -4.1370 hx        1 SKO      0.095700
     48 H202        3.1160    2.5940   -3.7910 hn        1 SKO      0.485300
@<TRIPOS>BOND
     1    1    2 1   
     2    1   23 1   
     3    1   24 1   
     4    2    3 ar  
     5    2    7 ar  
     6    3    4 ar  
     7    3   25 1   
     8    4    5 1   
     9    4    6 ar  
    10    5   26 1   
    11    5   27 1   
    12    5   28 1   
    13    6    8 ar  
    14    6   29 1   
    15    7    8 ar  
    16    8    9 1   
    17    9   10 1   
    18    9   30 1   
    19    9   31 1   
    20   10   11 1   
    21   10   32 1   
    22   10   33 1   
    23   11   12 ar  
    24   11   15 ar  
    25   12   13 ar  
    26   12   34 1   
    27   13   14 ar  
    28   13   35 1   
    29   14   16 ar  
    30   14   36 1   
    31   15   16 ar  
    32   16   17 1   
    33   17   18 1   
    34   17   19 1   
    35   18   37 1   
    36   18   38 1   
    37   18   39 1   
    38   19   20 1   
    39   19   40 1   
    40   19   41 1   
    41   20   21 1   
    42   20   42 1   
    43   20   43 1   
    44   21   22 1   
    45   21   44 1   
    46   21   48 1   
    47   22   45 1   
    48   22   46 1   
    49   22   47 1   
@<TRIPOS>SUBSTRUCTURE
     1 SKO         1 TEMP              0 ****  ****    0 ROOT
