@<TRIPOS>MOLECULE
SKP
   36    36     1     0     0
SMALL
bcc


@<TRIPOS>ATOM
      1 C1          0.1930   -0.9840    0.9770 ce        1 SKP     -0.177400
      2 C2          1.2820   -0.3180    0.2070 c3        1 SKP     -0.052200
      3 C3          2.2810    0.4470    1.1080 c3        1 SKP      0.241100
      4 C4          1.5150    1.3790    2.1100 c3        1 SKP      0.137100
      5 C5         -0.0090    1.0900    2.3210 c3        1 SKP      0.148300
      6 C6         -0.3540   -0.3370    2.0210 c2        1 SKP     -0.178200
      7 C7         -0.2970   -2.3280    0.5010 c         1 SKP      0.916800
      8 O1          3.1970    1.1340    0.3280 os        1 SKP     -0.578200
      9 O2          1.6530    2.7330    1.7060 oh        1 SKP     -0.622800
     10 O3         -0.3450    1.4730    3.6560 os        1 SKP     -0.458600
     11 O4         -0.2710   -3.3560    1.2550 o         1 SKP     -0.915300
     12 O5         -0.7730   -2.4520   -0.6800 o         1 SKP     -0.915300
     13 P1          4.8160    0.6050    0.1460 p5        1 SKP      1.340900
     14 O6          4.8330   -0.1630   -1.1610 o         1 SKP     -0.962500
     15 O7          5.6350    1.8780    0.0450 o         1 SKP     -0.962500
     16 O8          5.1610   -0.2390    1.3520 o         1 SKP     -0.962500
     17 C8         -1.6470    2.1320    3.8720 c3        1 SKP      0.402600
     18 C9         -2.7540    1.1630    3.4180 c3        1 SKP     -0.126100
     19 C10        -1.7550    3.4400    3.0150 c         1 SKP      0.887600
     20 O9         -0.7710    4.2300    2.8720 o         1 SKP     -0.904300
     21 O10        -2.8550    3.7000    2.4170 o         1 SKP     -0.904300
     22 O11        -3.9430    1.8140    6.2770 o         1 SKP     -0.960167
     23 O12        -1.8740    1.7100    7.7050 o         1 SKP     -0.960167
     24 O13        -2.7670    3.9310    6.9790 o         1 SKP     -0.960167
     25 O14        -1.5880    2.3620    5.2180 os        1 SKP     -0.613200
     26 H2          0.8290    0.4150   -0.5120 hc        1 SKP      0.030200
     27 H3          1.8430   -1.0740   -0.3990 hc        1 SKP      0.030200
     28 H4          2.8370   -0.3110    1.7400 h1        1 SKP      0.028700
     29 H5          2.0140    1.2630    3.1160 h1        1 SKP      0.012700
     30 H61        -0.5800    1.7360    1.5880 h1        1 SKP      0.045700
     31 H62        -1.1160   -0.7970    2.6640 ha        1 SKP      0.112000
     32 HO2         1.0170    3.2370    2.2450 ho        1 SKP      0.424000
     33 H91        -2.6740    0.1990    3.9700 hc        1 SKP      0.018033
     34 H92        -3.7480    1.6250    3.6180 hc        1 SKP      0.018033
     35 H93        -2.6560    0.9740    2.3230 hc        1 SKP      0.018033
     36 P2         -2.6290    2.4660    6.6360 p5        1 SKP      1.401900
@<TRIPOS>BOND
     1    1    2 1   
     2    1    6 2   
     3    1    7 1   
     4    2    3 1   
     5    2   26 1   
     6    2   27 1   
     7    3    4 1   
     8    3    8 1   
     9    3   28 1   
    10    4    5 1   
    11    4    9 1   
    12    4   29 1   
    13    5    6 1   
    14    5   10 1   
    15    5   30 1   
    16    6   31 1   
    17    7   11 1   
    18    7   12 1   
    19    8   13 1   
    20    9   32 1   
    21   10   17 1   
    22   13   14 1   
    23   13   15 1   
    24   13   16 1   
    25   17   18 1   
    26   17   19 1   
    27   17   25 1   
    28   18   33 1   
    29   18   34 1   
    30   18   35 1   
    31   19   20 1   
    32   19   21 1   
    33   22   36 1   
    34   23   36 1   
    35   24   36 1   
    36   25   36 1   
@<TRIPOS>SUBSTRUCTURE
     1 SKP         1 TEMP              0 ****  ****    0 ROOT
