@<TRIPOS>MOLECULE
SKP
   36    36     1     0     0
SMALL
bcc


@<TRIPOS>ATOM
      1 C1         -2.0030   -1.2900   -1.4560 ce        1 SKP     -0.188400
      2 C2         -1.3630   -0.8140   -2.5350 c2        1 SKP     -0.168200
      3 C3          0.0860   -0.4120   -2.4940 c3        1 SKP      0.215300
      4 C4          0.4270    0.2830   -1.1250 c3        1 SKP      0.134100
      5 C5         -0.3980   -0.1280    0.1380 c3        1 SKP      0.165100
      6 C6         -1.2880   -1.3510   -0.1490 c3        1 SKP     -0.044200
      7 C7         -3.4080   -1.8330   -1.5370 c         1 SKP      0.916800
      8 O1          0.4180    0.4400   -3.5440 os        1 SKP     -0.606200
      9 O2          0.2610    1.6950   -1.2430 oh        1 SKP     -0.635800
     10 O3          0.5230   -0.4280    1.1890 os        1 SKP     -0.461600
     11 O4         -3.6410   -3.0640   -1.2880 o         1 SKP     -0.915800
     12 O5         -4.3870   -1.0890   -1.8830 o         1 SKP     -0.915800
     13 P1          1.2430   -0.0890   -4.9530 p5        1 SKP      1.342900
     14 O6          0.1820   -0.1800   -6.0300 o         1 SKP     -0.958167
     15 O7          2.2150    1.0430   -5.2170 o         1 SKP     -0.958167
     16 O8          1.9000   -1.4080   -4.6280 o         1 SKP     -0.958167
     17 C8          0.1820   -0.0360    2.5740 c3        1 SKP      0.408600
     18 C9         -1.2360   -0.5380    2.9030 c3        1 SKP     -0.136100
     19 C10         0.1960    1.5260    2.7340 c         1 SKP      0.893600
     20 O9          1.2500    2.2190    2.6310 o         1 SKP     -0.905300
     21 O10        -0.9100    2.1180    3.0010 o         1 SKP     -0.905300
     22 O11         0.2640   -1.2060    5.6770 o         1 SKP     -0.961833
     23 O12         1.8350   -2.8190    4.5610 o         1 SKP     -0.961833
     24 O13         2.7030   -0.6340    5.4090 o         1 SKP     -0.961833
     25 O14         1.1790   -0.6810    3.2550 os        1 SKP     -0.615200
     26 H2         -1.8600   -0.7230   -3.5100 ha        1 SKP      0.111000
     27 H3          0.7150   -1.3490   -2.5790 h1        1 SKP      0.045700
     28 H4          1.5140    0.0840   -0.9100 h1        1 SKP      0.032700
     29 H5         -1.0420    0.7480    0.4290 h1        1 SKP      0.054700
     30 H61        -0.6390   -2.2680   -0.1310 hc        1 SKP      0.034200
     31 H62        -2.0340   -1.4620    0.6800 hc        1 SKP      0.034200
     32 HO2         0.4730    1.9260   -2.1570 ho        1 SKP      0.404000
     33 H91        -1.3080   -1.6350    2.7210 hc        1 SKP      0.020033
     34 H92        -1.4560   -0.3220    3.9750 hc        1 SKP      0.020033
     35 H93        -1.9820    0.0000    2.2730 hc        1 SKP      0.020033
     36 P2          1.5110   -1.3690    4.8400 p5        1 SKP      1.403900
@<TRIPOS>BOND
     1    1    2 2   
     2    1    6 1   
     3    1    7 1   
     4    2    3 1   
     5    2   26 1   
     6    3    4 1   
     7    3    8 1   
     8    3   27 1   
     9    4    5 1   
    10    4    9 1   
    11    4   28 1   
    12    5    6 1   
    13    5   10 1   
    14    5   29 1   
    15    6   30 1   
    16    6   31 1   
    17    7   11 1   
    18    7   12 1   
    19    8   13 1   
    20    9   32 1   
    21   10   17 1   
    22   13   14 1   
    23   13   15 1   
    24   13   16 1   
    25   17   18 1   
    26   17   19 1   
    27   17   25 1   
    28   18   33 1   
    29   18   34 1   
    30   18   35 1   
    31   19   20 1   
    32   19   21 1   
    33   22   36 1   
    34   23   36 1   
    35   24   36 1   
    36   25   36 1   
@<TRIPOS>SUBSTRUCTURE
     1 SKP         1 TEMP              0 ****  ****    0 ROOT
