@<TRIPOS>MOLECULE
SKP
   36    36     1     0     0
SMALL
bcc


@<TRIPOS>ATOM
      1 C1          0.3970    1.0850   -0.2650 ce        1 SKP     -0.198400
      2 C2          1.8120    0.8040    0.1060 c3        1 SKP     -0.036200
      3 C3          1.9460   -0.1130    1.3350 c3        1 SKP      0.196100
      4 C4          1.0380    0.3930    2.5080 c3        1 SKP      0.111100
      5 C5         -0.2670    1.1850    2.1600 c3        1 SKP      0.193300
      6 C6         -0.5460    1.1990    0.6840 c2        1 SKP     -0.134200
      7 C7          0.1180    1.2870   -1.7340 c         1 SKP      0.918800
      8 O1          3.2720   -0.1470    1.7620 os        1 SKP     -0.613200
      9 O2          1.7770    1.2580    3.3730 oh        1 SKP     -0.650800
     10 O3         -1.3990    0.6260    2.8240 os        1 SKP     -0.460600
     11 O4         -0.7140    0.5550   -2.3650 o         1 SKP     -0.916300
     12 O5          0.7280    2.2080   -2.3800 o         1 SKP     -0.916300
     13 P1          4.3300   -1.4680    1.4900 p5        1 SKP      1.345900
     14 O6          5.2510   -1.0240    0.3730 o         1 SKP     -0.959167
     15 O7          5.0660   -1.5770    2.8110 o         1 SKP     -0.959167
     16 O8          3.4920   -2.6750    1.1500 o         1 SKP     -0.959167
     17 C8         -1.9300    1.2390    4.0440 c3        1 SKP      0.392600
     18 C9         -0.7670    1.5000    5.0150 c3        1 SKP     -0.123100
     19 C10        -2.8240    0.0750    4.6300 c         1 SKP      0.917600
     20 O9         -3.7470   -0.4820    3.9640 o         1 SKP     -0.908300
     21 O10        -2.5720   -0.3500    5.8110 o         1 SKP     -0.908300
     22 O11        -2.8480    3.8490    5.8130 o         1 SKP     -0.961500
     23 O12        -3.0780    4.8780    3.5330 o         1 SKP     -0.961500
     24 O13        -4.9040    3.4190    4.4190 o         1 SKP     -0.961500
     25 O14        -2.5880    2.3680    3.6480 os        1 SKP     -0.620200
     26 H2          2.3330    1.7730    0.3290 hc        1 SKP      0.025200
     27 H3          2.3470    0.3360   -0.7600 hc        1 SKP      0.025200
     28 H4          1.6230   -1.1570    1.0600 h1        1 SKP      0.040700
     29 H5          0.7390   -0.5100    3.1120 h1        1 SKP      0.027700
     30 H61        -0.1240    2.2550    2.4900 h1        1 SKP      0.062700
     31 H62        -1.6040    1.3650    0.4320 ha        1 SKP      0.124000
     32 HO2         2.7000    0.9770    3.3350 ho        1 SKP      0.409000
     33 H91        -0.1400    2.3490    4.6570 hc        1 SKP      0.022033
     34 H92        -1.1780    1.7370    6.0240 hc        1 SKP      0.022033
     35 H93        -0.1320    0.5860    5.0750 hc        1 SKP      0.022033
     36 P2         -3.4190    3.7020    4.4210 p5        1 SKP      1.390900
@<TRIPOS>BOND
     1    1    2 1   
     2    1    6 2   
     3    1    7 1   
     4    2    3 1   
     5    2   26 1   
     6    2   27 1   
     7    3    4 1   
     8    3    8 1   
     9    3   28 1   
    10    4    5 1   
    11    4    9 1   
    12    4   29 1   
    13    5    6 1   
    14    5   10 1   
    15    5   30 1   
    16    6   31 1   
    17    7   11 1   
    18    7   12 1   
    19    8   13 1   
    20    9   32 1   
    21   10   17 1   
    22   13   14 1   
    23   13   15 1   
    24   13   16 1   
    25   17   18 1   
    26   17   19 1   
    27   17   25 1   
    28   18   33 1   
    29   18   34 1   
    30   18   35 1   
    31   19   20 1   
    32   19   21 1   
    33   22   36 1   
    34   23   36 1   
    35   24   36 1   
    36   25   36 1   
@<TRIPOS>SUBSTRUCTURE
     1 SKP         1 TEMP              0 ****  ****    0 ROOT
