@<TRIPOS>MOLECULE
SKY
   45    48     1     0     0
SMALL
bcc


@<TRIPOS>ATOM
      1 C10        -3.6110    0.4890    0.6800 ca        1 SKY     -0.083000
      2 C11        -4.9600    0.1110    0.4460 ca        1 SKY     -0.041000
      3 C12        -6.0150    0.5760    1.2800 ca        1 SKY     -0.112000
      4 C13        -7.3120    0.1990    1.0370 ca        1 SKY     -0.129000
      5 C14        -7.6170   -0.6580   -0.0480 ca        1 SKY     -0.123000
      6 C15        -6.6190   -1.1210   -0.8690 ca        1 SKY     -0.120000
      7 C16        -5.2670   -0.7470   -0.6400 ca        1 SKY     -0.033000
      8 C17        -4.2090   -1.2100   -1.4700 ca        1 SKY     -0.117000
      9 C18        -2.9130   -0.8350   -1.2280 ca        1 SKY     -0.120000
     10 C9         -2.5980    0.0290   -0.1390 ca        1 SKY     -0.111500
     11 C8         -1.2190    0.4020    0.0790 cc        1 SKY      0.323800
     12 C7         -0.0890    0.1250   -0.7170 cd        1 SKY     -0.191600
     13 N3         -0.7440    1.1660    1.1870 nc        1 SKY     -0.337000
     14 N2          0.5060    1.3290    1.0980 nd        1 SKY     -0.170800
     15 N1          0.9710    0.7580   -0.0450 na        1 SKY      0.034400
     16 C1          2.3720    0.6040   -0.4000 c3        1 SKY      0.240800
     17 O5          2.7760   -0.7070    0.0370 os        1 SKY     -0.435600
     18 C5          4.0880   -1.0520   -0.4150 c3        1 SKY      0.105100
     19 C6          4.3340   -2.4770    0.0920 c3        1 SKY      0.141400
     20 O6          3.4560   -3.3920   -0.5220 oh        1 SKY     -0.592800
     21 C4          5.1260   -0.0780    0.1620 c3        1 SKY      0.121100
     22 O4          6.3770   -0.4220   -0.4070 oh        1 SKY     -0.592800
     23 C3          4.7470    1.3650   -0.2130 c3        1 SKY      0.105100
     24 O3          5.6670    2.2090    0.4540 oh        1 SKY     -0.601800
     25 C2          3.3080    1.6600    0.2470 c3        1 SKY      0.091100
     26 O2          3.0060    2.9570   -0.2250 oh        1 SKY     -0.600800
     27 H10        -3.3950    1.1560    1.5310 ha        1 SKY      0.154000
     28 H12        -5.7670    1.2410    2.1220 ha        1 SKY      0.136000
     29 H13        -8.1300    0.5560    1.6810 ha        1 SKY      0.134000
     30 H14        -8.6650   -0.9460   -0.2220 ha        1 SKY      0.133000
     31 H15        -6.8460   -1.7880   -1.7140 ha        1 SKY      0.133000
     32 H17        -4.4520   -1.8780   -2.3100 ha        1 SKY      0.134000
     33 H18        -2.1000   -1.2000   -1.8720 ha        1 SKY      0.127000
     34 H7          0.0430   -0.4210   -1.6480 h4        1 SKY      0.196000
     35 H1          2.4410    0.6640   -1.5280 h2        1 SKY      0.076700
     36 H5          4.1190   -1.0300   -1.5400 h1        1 SKY      0.070700
     37 H6          5.3670   -2.7950   -0.2140 h1        1 SKY      0.068200
     38 H6A         4.2260   -2.5100    1.2080 h1        1 SKY      0.068200
     39 HO6         2.5610   -3.1550   -0.2460 ho        1 SKY      0.410000
     40 H4          5.1740   -0.1740    1.2820 h1        1 SKY      0.067700
     41 HO4         7.0080    0.2430   -0.0990 ho        1 SKY      0.428000
     42 H3          4.8320    1.5170   -1.3250 h1        1 SKY      0.064700
     43 HO3         5.3940    3.1180    0.2680 ho        1 SKY      0.429000
     44 H2          3.2480    1.6080    1.3690 h1        1 SKY      0.088700
     45 HO2         2.2420    3.2780    0.2710 ho        1 SKY      0.431000
@<TRIPOS>BOND
     1    1    2 ar  
     2    1   10 ar  
     3    1   27 1   
     4    2    3 ar  
     5    2    7 ar  
     6    3    4 ar  
     7    3   28 1   
     8    4    5 ar  
     9    4   29 1   
    10    5    6 ar  
    11    5   30 1   
    12    6    7 ar  
    13    6   31 1   
    14    7    8 ar  
    15    8    9 ar  
    16    8   32 1   
    17    9   10 ar  
    18    9   33 1   
    19   10   11 1   
    20   11   12 2   
    21   11   13 1   
    22   12   15 1   
    23   12   34 1   
    24   13   14 2   
    25   14   15 1   
    26   15   16 1   
    27   16   17 1   
    28   16   25 1   
    29   16   35 1   
    30   17   18 1   
    31   18   19 1   
    32   18   21 1   
    33   18   36 1   
    34   19   20 1   
    35   19   37 1   
    36   19   38 1   
    37   20   39 1   
    38   21   22 1   
    39   21   23 1   
    40   21   40 1   
    41   22   41 1   
    42   23   24 1   
    43   23   25 1   
    44   23   42 1   
    45   24   43 1   
    46   25   26 1   
    47   25   44 1   
    48   26   45 1   
@<TRIPOS>SUBSTRUCTURE
     1 SKY         1 TEMP              0 ****  ****    0 ROOT
