@<TRIPOS>MOLECULE
SKY
   45    48     1     0     0
SMALL
bcc


@<TRIPOS>ATOM
      1 C10        -0.0630   -0.3030   -0.0860 ca        1 SKY     -0.083000
      2 C11         1.3340   -0.0440   -0.0710 ca        1 SKY     -0.041000
      3 C12         2.1150   -0.2610    1.0980 ca        1 SKY     -0.112000
      4 C13         3.4640   -0.0040    1.0920 ca        1 SKY     -0.129000
      5 C14         4.0950    0.4800   -0.0790 ca        1 SKY     -0.123000
      6 C15         3.3650    0.6990   -1.2220 ca        1 SKY     -0.120000
      7 C16         1.9670    0.4420   -1.2430 ca        1 SKY     -0.033000
      8 C17         1.1820    0.6580   -2.4090 ca        1 SKY     -0.117000
      9 C18        -0.1640    0.4020   -2.4040 ca        1 SKY     -0.120000
     10 C9         -0.8070   -0.0870   -1.2300 ca        1 SKY     -0.111500
     11 C8         -2.2290   -0.3450   -1.2690 cc        1 SKY      0.323800
     12 C7         -3.1120   -0.2790   -2.3650 cd        1 SKY     -0.191600
     13 N3         -3.0180   -0.7450   -0.1480 nc        1 SKY     -0.337000
     14 N2         -4.2230   -0.8940   -0.4980 nd        1 SKY     -0.170800
     15 N1         -4.3540   -0.6650   -1.8320 na        1 SKY      0.034400
     16 C1         -5.6140   -0.5830   -2.5520 c3        1 SKY      0.240800
     17 O5         -5.9810    0.8080   -2.6030 os        1 SKY     -0.435600
     18 C5         -7.1140    1.0420   -3.4430 c3        1 SKY      0.105100
     19 C6         -7.3330    2.5590   -3.4210 c3        1 SKY      0.141400
     20 O6         -6.2540    3.2360   -4.0220 oh        1 SKY     -0.592800
     21 C4         -8.3450    0.3030   -2.9000 c3        1 SKY      0.121100
     22 O4         -9.3920    0.5010   -3.8330 oh        1 SKY     -0.592800
     23 C3         -8.0290   -1.1960   -2.7610 c3        1 SKY      0.105100
     24 O3         -9.1550   -1.7890   -2.1410 oh        1 SKY     -0.601800
     25 C2         -6.7710   -1.3840   -1.8950 c3        1 SKY      0.091100
     26 O2         -6.4930   -2.7690   -1.9070 oh        1 SKY     -0.600800
     27 H10        -0.5340   -0.6790    0.8360 ha        1 SKY      0.154000
     28 H12         1.6150   -0.6360    2.0040 ha        1 SKY      0.136000
     29 H13         4.0700   -0.1700    1.9950 ha        1 SKY      0.134000
     30 H14         5.1770    0.6780   -0.0590 ha        1 SKY      0.133000
     31 H15         3.8460    1.0750   -2.1370 ha        1 SKY      0.133000
     32 H17         1.6780    1.0370   -3.3150 ha        1 SKY      0.134000
     33 H18        -0.7650    0.5760   -3.3080 ha        1 SKY      0.127000
     34 H7         -2.9730   -0.0220   -3.4120 h4        1 SKY      0.196000
     35 H1         -5.4260   -0.9630   -3.6010 h2        1 SKY      0.076700
     36 H5         -6.8860    0.6990   -4.4900 h1        1 SKY      0.070700
     37 H6         -7.4840    2.9090   -2.3650 h1        1 SKY      0.068200
     38 H6A        -8.2330    2.8020   -4.0480 h1        1 SKY      0.068200
     39 HO6        -5.4740    3.0650   -3.4790 ho        1 SKY      0.410000
     40 H4         -8.6420    0.7170   -1.8970 h1        1 SKY      0.067700
     41 HO4       -10.1370   -0.0310   -3.5230 ho        1 SKY      0.428000
     42 H3         -7.8700   -1.6590   -3.7750 h1        1 SKY      0.064700
     43 HO3        -8.9340   -2.7200   -1.9980 ho        1 SKY      0.429000
     44 H2         -6.9670   -1.0140   -0.8520 h1        1 SKY      0.088700
     45 HO2        -5.8980   -2.9530   -1.1680 ho        1 SKY      0.431000
@<TRIPOS>BOND
     1    1    2 ar  
     2    1   10 ar  
     3    1   27 1   
     4    2    3 ar  
     5    2    7 ar  
     6    3    4 ar  
     7    3   28 1   
     8    4    5 ar  
     9    4   29 1   
    10    5    6 ar  
    11    5   30 1   
    12    6    7 ar  
    13    6   31 1   
    14    7    8 ar  
    15    8    9 ar  
    16    8   32 1   
    17    9   10 ar  
    18    9   33 1   
    19   10   11 1   
    20   11   12 2   
    21   11   13 1   
    22   12   15 1   
    23   12   34 1   
    24   13   14 2   
    25   14   15 1   
    26   15   16 1   
    27   16   17 1   
    28   16   25 1   
    29   16   35 1   
    30   17   18 1   
    31   18   19 1   
    32   18   21 1   
    33   18   36 1   
    34   19   20 1   
    35   19   37 1   
    36   19   38 1   
    37   20   39 1   
    38   21   22 1   
    39   21   23 1   
    40   21   40 1   
    41   22   41 1   
    42   23   24 1   
    43   23   25 1   
    44   23   42 1   
    45   24   43 1   
    46   25   26 1   
    47   25   44 1   
    48   26   45 1   
@<TRIPOS>SUBSTRUCTURE
     1 SKY         1 TEMP              0 ****  ****    0 ROOT
