@<TRIPOS>MOLECULE
SKY
   45    40     1     0     0
SMALL
bcc


@<TRIPOS>ATOM
      1 C10         3.2700   -1.1400    1.2540 c1        1 SKY     -0.084000
      2 C11         4.6740   -1.0620    1.3720 c1        1 SKY     -0.040000
      3 C12         5.4310   -2.2340    1.5530 c2        1 SKY     -0.112000
      4 C13         6.8200   -2.1620    1.6220 c1        1 SKY     -0.130000
      5 C14         7.4600   -0.9300    1.5120 c1        1 SKY     -0.122000
      6 C15         6.7140    0.2260    1.3330 c1        1 SKY     -0.122000
      7 C16         5.3060    0.1550    1.2630 c1        1 SKY     -0.017000
      8 C17         4.5520    1.3220    1.0330 c1        1 SKY     -0.119000
      9 C18         3.1680    1.2440    0.9170 c1        1 SKY     -0.119000
     10 C9          2.5270    0.0120    1.0270 c1        1 SKY     -0.017000
     11 C8          1.1080    0.0460    0.9330 c1        1 SKY     -0.110500
     12 C7          0.3730   -0.0390   -0.2240 c1        1 SKY     -0.110500
     13 N3          0.2540    0.1340    1.9590 n2        1 SKY     -0.125500
     14 N2         -1.0130    0.1060    1.4580 n2        1 SKY      0.026000
     15 N1         -0.9290   -0.0010    0.1080 n2        1 SKY     -0.125500
     16 C1         -2.0090    0.0140   -0.7900 c2        1 SKY      0.187000
     17 O5         -2.6180    1.3450   -0.7770 os        1 SKY     -0.286000
     18 C5         -3.8590    1.4130   -1.5590 c3        1 SKY     -0.004000
     19 C6         -4.4920    2.7420   -1.3420 c3        1 SKY     -0.009000
     20 O6         -3.6240    3.7580   -1.8010 oh        1 SKY     -0.319000
     21 C4         -4.8530    0.3250   -1.1730 c3        1 SKY     -0.029000
     22 O4         -5.9530    0.3520   -2.0990 oh        1 SKY     -0.319000
     23 C3         -4.2450   -1.0220   -1.1910 c3        1 SKY     -0.043000
     24 O3         -5.2000   -1.9780   -0.6390 oh        1 SKY     -0.326000
     25 C2         -2.9930   -1.0820   -0.3990 c3        1 SKY      0.013000
     26 O2         -2.3730   -2.3590   -0.6070 oh        1 SKY     -0.317000
     27 H10         2.8240   -1.9990    1.3310 ha        1 SKY      0.154000
     28 H12         4.9790   -3.1020    1.6310 ha        1 SKY      0.136000
     29 H13         7.3460   -2.9780    1.7480 ha        1 SKY      0.133000
     30 H14         8.4330   -0.8800    1.5600 ha        1 SKY      0.132000
     31 H15         7.1660    1.0970    1.2560 ha        1 SKY      0.132000
     32 H17         5.0010    2.1850    0.9560 ha        1 SKY      0.129500
     33 H18         2.6520    2.0440    0.7590 ha        1 SKY      0.129500
     34 H7          0.7320   -0.1130   -1.1280 DU        1 SKY      0.193000
     35 H1         -1.6760   -0.1690   -1.6840 h4        1 SKY      0.116000
     36 H5         -3.6420    1.3190   -2.5020 h1        1 SKY      0.110000
     37 H6         -4.6660    2.8680   -0.3880 h1        1 SKY      0.105500
     38 H6A        -5.3380    2.7860   -1.8370 h1        1 SKY      0.105500
     39 HO6        -4.0070    4.5500   -1.6860 ho        1 SKY      0.213000
     40 H4         -5.1920    0.5100   -0.2700 h1        1 SKY      0.110000
     41 HO4        -6.7110    0.4350   -1.6530 ho        1 SKY      0.209000
     42 H3         -4.0480   -1.2680   -2.1150 h1        1 SKY      0.105000
     43 HO3        -5.4620   -2.5470   -1.2830 ho        1 SKY      0.211000
     44 H2         -3.2130   -0.9860    0.5540 h1        1 SKY      0.130000
     45 HO2        -2.6730   -2.9400    0.0060 ho        1 SKY      0.227000
@<TRIPOS>BOND
     1    1    2 1   
     2    1   27 1   
     3    2    3 1   
     4    3    4 1   
     5    3   28 1   
     6    4   29 1   
     7    5    6 1   
     8    5   30 1   
     9    6   31 1   
    10    7    8 1   
    11    8   32 1   
    12    9   10 1   
    13    9   33 1   
    14   11   12 1   
    15   11   13 1   
    16   12   15 1   
    17   13   14 1   
    18   14   15 1   
    19   16   17 1   
    20   16   25 1   
    21   16   35 1   
    22   17   18 1   
    23   18   19 1   
    24   18   21 1   
    25   18   36 1   
    26   19   20 1   
    27   19   37 1   
    28   19   38 1   
    29   20   39 1   
    30   21   22 1   
    31   21   23 1   
    32   21   40 1   
    33   22   41 1   
    34   23   24 1   
    35   23   25 1   
    36   23   42 1   
    37   24   43 1   
    38   25   26 1   
    39   25   44 1   
    40   26   45 1   
@<TRIPOS>SUBSTRUCTURE
     1 SKY         1 TEMP              0 ****  ****    0 ROOT
