@<TRIPOS>MOLECULE
SKY
   45    48     1     0     0
SMALL
bcc


@<TRIPOS>ATOM
      1 C10        -0.0590   -0.3210   -0.0940 ca        1 SKY     -0.083000
      2 C11         1.3370   -0.0560   -0.0770 ca        1 SKY     -0.041000
      3 C12         2.1220   -0.2970    1.0840 ca        1 SKY     -0.112000
      4 C13         3.4700   -0.0350    1.0800 ca        1 SKY     -0.129000
      5 C14         4.0960    0.4790   -0.0810 ca        1 SKY     -0.123000
      6 C15         3.3610    0.7220   -1.2160 ca        1 SKY     -0.120000
      7 C16         1.9650    0.4600   -1.2390 ca        1 SKY     -0.033000
      8 C17         1.1750    0.7010   -2.3970 ca        1 SKY     -0.117000
      9 C18        -0.1700    0.4390   -2.3940 ca        1 SKY     -0.120000
     10 C9         -0.8070   -0.0810   -1.2300 ca        1 SKY     -0.111500
     11 C8         -2.2280   -0.3440   -1.2720 cc        1 SKY      0.323800
     12 C7         -3.1120   -0.2710   -2.3660 cd        1 SKY     -0.191600
     13 N3         -3.0150   -0.7580   -0.1550 nc        1 SKY     -0.337000
     14 N2         -4.2200   -0.9080   -0.5050 nd        1 SKY     -0.170800
     15 N1         -4.3530   -0.6660   -1.8370 na        1 SKY      0.034400
     16 C1         -5.6120   -0.5820   -2.5560 c3        1 SKY      0.240800
     17 O5         -5.9840    0.8080   -2.5940 os        1 SKY     -0.435600
     18 C5         -7.1180    1.0460   -3.4330 c3        1 SKY      0.105100
     19 C6         -7.3420    2.5620   -3.3970 c3        1 SKY      0.141400
     20 O6         -6.2650    3.2480   -3.9930 oh        1 SKY     -0.592800
     21 C4         -8.3470    0.2980   -2.8960 c3        1 SKY      0.121100
     22 O4         -9.3940    0.5010   -3.8270 oh        1 SKY     -0.592800
     23 C3         -8.0260   -1.2010   -2.7700 c3        1 SKY      0.105100
     24 O3         -9.1500   -1.8030   -2.1550 oh        1 SKY     -0.601800
     25 C2         -6.7670   -1.3920   -1.9070 c3        1 SKY      0.091100
     26 O2         -6.4850   -2.7770   -1.9300 oh        1 SKY     -0.600800
     27 H10        -0.5260   -0.7200    0.8200 ha        1 SKY      0.154000
     28 H12         1.6270   -0.6970    1.9820 ha        1 SKY      0.136000
     29 H13         4.0800   -0.2210    1.9770 ha        1 SKY      0.134000
     30 H14         5.1770    0.6810   -0.0600 ha        1 SKY      0.133000
     31 H15         3.8380    1.1220   -2.1230 ha        1 SKY      0.133000
     32 H17         1.6670    1.1030   -3.2960 ha        1 SKY      0.134000
     33 H18        -0.7750    0.6320   -3.2930 ha        1 SKY      0.127000
     34 H7         -2.9740   -0.0030   -3.4110 h4        1 SKY      0.196000
     35 H1         -5.4230   -0.9520   -3.6090 h2        1 SKY      0.076700
     36 H5         -6.8890    0.7130   -4.4830 h1        1 SKY      0.070700
     37 H6         -7.4940    2.9010   -2.3390 h1        1 SKY      0.068200
     38 H6A        -8.2430    2.8080   -4.0220 h1        1 SKY      0.068200
     39 HO6        -5.4840    3.0750   -3.4510 ho        1 SKY      0.410000
     40 H4         -8.6440    0.7020   -1.8890 h1        1 SKY      0.067700
     41 HO4       -10.1380   -0.0370   -3.5220 ho        1 SKY      0.428000
     42 H3         -7.8650   -1.6550   -3.7880 h1        1 SKY      0.064700
     43 HO3        -8.9260   -2.7350   -2.0200 ho        1 SKY      0.429000
     44 H2         -6.9630   -1.0320   -0.8600 h1        1 SKY      0.088700
     45 HO2        -5.8890   -2.9660   -1.1930 ho        1 SKY      0.431000
@<TRIPOS>BOND
     1    1    2 ar  
     2    1   10 ar  
     3    1   27 1   
     4    2    3 ar  
     5    2    7 ar  
     6    3    4 ar  
     7    3   28 1   
     8    4    5 ar  
     9    4   29 1   
    10    5    6 ar  
    11    5   30 1   
    12    6    7 ar  
    13    6   31 1   
    14    7    8 ar  
    15    8    9 ar  
    16    8   32 1   
    17    9   10 ar  
    18    9   33 1   
    19   10   11 1   
    20   11   12 2   
    21   11   13 1   
    22   12   15 1   
    23   12   34 1   
    24   13   14 2   
    25   14   15 1   
    26   15   16 1   
    27   16   17 1   
    28   16   25 1   
    29   16   35 1   
    30   17   18 1   
    31   18   19 1   
    32   18   21 1   
    33   18   36 1   
    34   19   20 1   
    35   19   37 1   
    36   19   38 1   
    37   20   39 1   
    38   21   22 1   
    39   21   23 1   
    40   21   40 1   
    41   22   41 1   
    42   23   24 1   
    43   23   25 1   
    44   23   42 1   
    45   24   43 1   
    46   25   26 1   
    47   25   44 1   
    48   26   45 1   
@<TRIPOS>SUBSTRUCTURE
     1 SKY         1 TEMP              0 ****  ****    0 ROOT
