@<TRIPOS>MOLECULE
SL0
   61    64     1     0     0
SMALL
bcc


@<TRIPOS>ATOM
      1 C1         -0.0560   -0.5470   -0.3950 c3        1 SL0     -0.149100
      2 C2          1.3940   -0.3350   -0.1300 c         1 SL0      0.637100
      3 O1          1.9830   -0.3030    0.9530 o         1 SL0     -0.549000
      4 O2          2.1170   -0.1560   -1.2790 os        1 SL0     -0.416900
      5 C3          3.5300    0.0440   -1.1570 c3        1 SL0      0.152100
      6 C4          4.2480   -1.2970   -0.9630 c3        1 SL0      0.103100
      7 O3          3.7210   -2.2190   -1.8990 oh        1 SL0     -0.577800
      8 C5          3.9760    0.7200   -2.4620 c3        1 SL0      0.117100
      9 O4          3.4030    2.0370   -2.4440 os        1 SL0     -0.440900
     10 C6          2.7480    2.4850   -3.5600 c         1 SL0      0.639100
     11 O5          2.7410    1.7920   -4.5770 o         1 SL0     -0.532000
     12 C7          2.1240    3.8220   -3.3490 c3        1 SL0     -0.150100
     13 C8          5.5080    0.8750   -2.4590 c3        1 SL0      0.132100
     14 C9          6.0090    1.4280   -3.7790 c3        1 SL0     -0.089100
     15 O6          6.1430   -0.3990   -2.3090 os        1 SL0     -0.413600
     16 C10         5.7690   -1.1500   -1.1850 c3        1 SL0      0.297900
     17 O7          6.2780   -0.4490   -0.0450 os        1 SL0     -0.347900
     18 C11         7.5810   -0.7510    0.3170 cc        1 SL0     -0.072100
     19 C12         7.9120   -2.1540    0.6360 c         1 SL0      0.596900
     20 O8          7.0900   -3.0720    0.5150 o         1 SL0     -0.539100
     21 C13         8.4700    0.2690    0.4770 cd        1 SL0      0.177900
     22 C14         8.2450    1.6950    0.2540 ca        1 SL0     -0.104800
     23 C15         6.9890    2.2620    0.5140 ca        1 SL0     -0.051000
     24 C16         6.7770    3.6220    0.3060 ca        1 SL0     -0.197000
     25 C17         7.8300    4.4210   -0.1620 ca        1 SL0      0.145100
     26 O9          7.6940    5.7690   -0.3900 oh        1 SL0     -0.493100
     27 C18         9.0960    3.8650   -0.4220 ca        1 SL0     -0.197000
     28 C19         9.2930    2.5080   -0.2090 ca        1 SL0     -0.051000
     29 O10         9.7650    0.0530    0.9380 os        1 SL0     -0.214200
     30 C20        10.1510   -1.2400    1.2250 ca        1 SL0      0.214100
     31 C21        11.4770   -1.3620    1.6630 ca        1 SL0     -0.232000
     32 C22        11.9460   -2.6420    1.9830 ca        1 SL0      0.221100
     33 O11        13.2460   -2.7220    2.4080 oh        1 SL0     -0.483100
     34 C23        11.1240   -3.7750    1.8730 ca        1 SL0     -0.350000
     35 C24         9.8050   -3.6180    1.4330 ca        1 SL0      0.251100
     36 C25         9.2870   -2.3430    1.0970 ca        1 SL0     -0.280600
     37 O12         8.9600   -4.6830    1.3020 oh        1 SL0     -0.449100
     38 H733       -0.6450    0.1930    0.1990 hc        1 SL0      0.077367
     39 H731       -0.2860   -0.4280   -1.4810 hc        1 SL0      0.077367
     40 H732       -0.3300   -1.5810   -0.0700 hc        1 SL0      0.077367
     41 H23         3.7530    0.7020   -0.2710 h1        1 SL0      0.091700
     42 H22         4.0660   -1.6580    0.0900 h1        1 SL0      0.086700
     43 H1          4.1090   -3.0790   -1.6880 ho        1 SL0      0.411000
     44 H24         3.6260    0.1280   -3.3500 h1        1 SL0      0.120700
     45 H643        1.0150    3.7160   -3.4320 hc        1 SL0      0.075367
     46 H642        2.4860    4.5200   -4.1440 hc        1 SL0      0.075367
     47 H641        2.3830    4.2330   -2.3440 hc        1 SL0      0.075367
     48 H25         5.8130    1.5370   -1.5990 h1        1 SL0      0.061700
     49 H512        5.4370    2.3550   -4.0240 hc        1 SL0      0.051367
     50 H513        7.0960    1.6660   -3.7060 hc        1 SL0      0.051367
     51 H511        5.8590    0.6820   -4.5950 hc        1 SL0      0.051367
     52 H21         6.2560   -2.1550   -1.3390 h2        1 SL0      0.113700
     53 H12         6.1650    1.6280    0.8830 ha        1 SL0      0.156000
     54 H13         5.7910    4.0640    0.5090 ha        1 SL0      0.148500
     55 H15         9.9070    4.5100   -0.7870 ha        1 SL0      0.148500
     56 H16        10.2810    2.0600   -0.4020 ha        1 SL0      0.156000
     57 H8         12.1270   -0.4810    1.7540 ha        1 SL0      0.176000
     58 H6         11.5110   -4.7700    2.1300 ha        1 SL0      0.144000
     59 H221        6.7870    6.0220   -0.1630 ho        1 SL0      0.422000
     60 H231       13.4480   -3.6510    2.5990 ho        1 SL0      0.428000
     61 H241        9.4350   -5.4850    1.5700 ho        1 SL0      0.423000
@<TRIPOS>BOND
     1    1    2 1   
     2    1   38 1   
     3    1   39 1   
     4    1   40 1   
     5    2    3 2   
     6    2    4 1   
     7    4    5 1   
     8    5    6 1   
     9    5    8 1   
    10    5   41 1   
    11    6    7 1   
    12    6   16 1   
    13    6   42 1   
    14    7   43 1   
    15    8    9 1   
    16    8   13 1   
    17    8   44 1   
    18    9   10 1   
    19   10   11 2   
    20   10   12 1   
    21   12   45 1   
    22   12   46 1   
    23   12   47 1   
    24   13   14 1   
    25   13   15 1   
    26   13   48 1   
    27   14   49 1   
    28   14   50 1   
    29   14   51 1   
    30   15   16 1   
    31   16   17 1   
    32   16   52 1   
    33   17   18 1   
    34   18   19 1   
    35   18   21 2   
    36   19   20 2   
    37   19   36 1   
    38   21   22 1   
    39   21   29 1   
    40   22   23 ar  
    41   22   28 ar  
    42   23   24 ar  
    43   23   53 1   
    44   24   25 ar  
    45   24   54 1   
    46   25   26 1   
    47   25   27 ar  
    48   26   59 1   
    49   27   28 ar  
    50   27   55 1   
    51   28   56 1   
    52   29   30 1   
    53   30   31 ar  
    54   30   36 ar  
    55   31   32 ar  
    56   31   57 1   
    57   32   33 1   
    58   32   34 ar  
    59   33   60 1   
    60   34   35 ar  
    61   34   58 1   
    62   35   36 ar  
    63   35   37 1   
    64   37   61 1   
@<TRIPOS>SUBSTRUCTURE
     1 SL0         1 TEMP              0 ****  ****    0 ROOT
