@<TRIPOS>MOLECULE
SL0
   61    64     1     0     0
SMALL
bcc


@<TRIPOS>ATOM
      1 C1         -0.0590   -0.6700   -0.4120 c3        1 SL0     -0.149100
      2 C2          1.3900   -0.4500   -0.1460 c         1 SL0      0.637100
      3 O1          1.9830   -0.4530    0.9340 o         1 SL0     -0.548000
      4 O2          2.1040   -0.2190   -1.2910 os        1 SL0     -0.416900
      5 C3          3.5140    0.0030   -1.1670 c3        1 SL0      0.153100
      6 C4          4.2580   -1.3270   -1.0000 c3        1 SL0      0.102100
      7 O3          3.7500   -2.2400   -1.9550 oh        1 SL0     -0.577800
      8 C5          3.9430    0.7170   -2.4580 c3        1 SL0      0.118100
      9 O4          3.3540    2.0250   -2.3990 os        1 SL0     -0.439900
     10 C6          2.7000    2.5040   -3.5030 c         1 SL0      0.639100
     11 O5          2.7040    1.8440   -4.5420 o         1 SL0     -0.535000
     12 C7          2.0640    3.8280   -3.2500 c3        1 SL0     -0.150100
     13 C8          5.4730    0.8930   -2.4650 c3        1 SL0      0.132100
     14 C9          5.9540    1.4700   -3.7820 c3        1 SL0     -0.089100
     15 O6          6.1310   -0.3710   -2.3340 os        1 SL0     -0.414600
     16 C10         5.7750   -1.1450   -1.2200 c3        1 SL0      0.298900
     17 O7          6.2700   -0.4440   -0.0730 os        1 SL0     -0.347900
     18 C11         7.5700   -0.7430    0.3020 cc        1 SL0     -0.071100
     19 C12         7.9030   -2.1450    0.6210 c         1 SL0      0.596900
     20 O8          7.0870   -3.0670    0.4810 o         1 SL0     -0.538100
     21 C13         8.4540    0.2800    0.4740 cd        1 SL0      0.176900
     22 C14         8.2290    1.7060    0.2460 ca        1 SL0     -0.103800
     23 C15         6.9680    2.2720    0.4930 ca        1 SL0     -0.051500
     24 C16         6.7500    3.6280    0.2790 ca        1 SL0     -0.197000
     25 C17         7.8090    4.4280   -0.1840 ca        1 SL0      0.145100
     26 O9          7.5310    5.7590   -0.3790 oh        1 SL0     -0.493100
     27 C18         9.0750    3.8750   -0.4290 ca        1 SL0     -0.197000
     28 C19         9.2780    2.5170   -0.2090 ca        1 SL0     -0.051500
     29 O10         9.7440    0.0680    0.9510 os        1 SL0     -0.215200
     30 C20        10.1280   -1.2240    1.2470 ca        1 SL0      0.214100
     31 C21        11.4480   -1.3410    1.7070 ca        1 SL0     -0.233000
     32 C22        11.9140   -2.6190    2.0360 ca        1 SL0      0.221100
     33 O11        13.2080   -2.6960    2.4820 oh        1 SL0     -0.484100
     34 C23        11.0980   -3.7550    1.9140 ca        1 SL0     -0.350000
     35 C24         9.7860   -3.6030    1.4510 ca        1 SL0      0.251100
     36 C25         9.2700   -2.3300    1.1050 ca        1 SL0     -0.280600
     37 O12         8.9460   -4.6700    1.3080 oh        1 SL0     -0.449100
     38 H733       -0.3290   -1.7050   -0.0890 hc        1 SL0      0.077033
     39 H731       -0.6520    0.0670    0.1820 hc        1 SL0      0.077033
     40 H732       -0.2900   -0.5490   -1.4980 hc        1 SL0      0.077033
     41 H23         3.7260    0.6470   -0.2670 h1        1 SL0      0.092700
     42 H22         4.0840   -1.7130    0.0450 h1        1 SL0      0.087700
     43 H1          4.1490   -3.0980   -1.7570 ho        1 SL0      0.411000
     44 H24         3.5920    0.1440   -3.3580 h1        1 SL0      0.119700
     45 H643        2.3960    4.2530   -2.2720 hc        1 SL0      0.076033
     46 H642        2.3380    4.5270   -4.0770 hc        1 SL0      0.076033
     47 H641        0.9540    3.6930   -3.2360 hc        1 SL0      0.076033
     48 H25         5.7740    1.5500   -1.5990 h1        1 SL0      0.062700
     49 H512        5.3660    2.3910   -4.0110 hc        1 SL0      0.050700
     50 H513        5.8080    0.7310   -4.6060 hc        1 SL0      0.050700
     51 H511        7.0380    1.7230   -3.7150 hc        1 SL0      0.050700
     52 H21         6.2840   -2.1360   -1.3860 h2        1 SL0      0.112700
     53 H12         6.1440    1.6350    0.8580 ha        1 SL0      0.156000
     54 H13         5.7670    4.0820    0.4670 ha        1 SL0      0.148000
     55 H15         9.8970    4.5090   -0.7890 ha        1 SL0      0.148000
     56 H16        10.2700    2.0730   -0.3920 ha        1 SL0      0.156000
     57 H8         12.0930   -0.4590    1.8080 ha        1 SL0      0.175000
     58 H6         11.4840   -4.7490    2.1780 ha        1 SL0      0.144000
     59 H221        8.3410    6.1940   -0.6850 ho        1 SL0      0.422000
     60 H231       13.4080   -3.6230    2.6800 ho        1 SL0      0.428000
     61 H241        9.4190   -5.4700    1.5860 ho        1 SL0      0.423000
@<TRIPOS>BOND
     1    1    2 1   
     2    1   38 1   
     3    1   39 1   
     4    1   40 1   
     5    2    3 2   
     6    2    4 1   
     7    4    5 1   
     8    5    6 1   
     9    5    8 1   
    10    5   41 1   
    11    6    7 1   
    12    6   16 1   
    13    6   42 1   
    14    7   43 1   
    15    8    9 1   
    16    8   13 1   
    17    8   44 1   
    18    9   10 1   
    19   10   11 2   
    20   10   12 1   
    21   12   45 1   
    22   12   46 1   
    23   12   47 1   
    24   13   14 1   
    25   13   15 1   
    26   13   48 1   
    27   14   49 1   
    28   14   50 1   
    29   14   51 1   
    30   15   16 1   
    31   16   17 1   
    32   16   52 1   
    33   17   18 1   
    34   18   19 1   
    35   18   21 2   
    36   19   20 2   
    37   19   36 1   
    38   21   22 1   
    39   21   29 1   
    40   22   23 ar  
    41   22   28 ar  
    42   23   24 ar  
    43   23   53 1   
    44   24   25 ar  
    45   24   54 1   
    46   25   26 1   
    47   25   27 ar  
    48   26   59 1   
    49   27   28 ar  
    50   27   55 1   
    51   28   56 1   
    52   29   30 1   
    53   30   31 ar  
    54   30   36 ar  
    55   31   32 ar  
    56   31   57 1   
    57   32   33 1   
    58   32   34 ar  
    59   33   60 1   
    60   34   35 ar  
    61   34   58 1   
    62   35   36 ar  
    63   35   37 1   
    64   37   61 1   
@<TRIPOS>SUBSTRUCTURE
     1 SL0         1 TEMP              0 ****  ****    0 ROOT
