@<TRIPOS>MOLECULE
SL0
   61    64     1     0     0
SMALL
bcc


@<TRIPOS>ATOM
      1 C1          5.0880    3.8490    1.5480 c3        1 SL0     -0.149100
      2 C2          3.8890    2.9680    1.4900 c         1 SL0      0.637100
      3 O1          3.0300    2.7770    2.3540 o         1 SL0     -0.549000
      4 O2          3.7790    2.3090    0.2950 os        1 SL0     -0.416900
      5 C3          2.6580    1.4360    0.1140 c3        1 SL0      0.152100
      6 C4          1.4010    2.2380   -0.2450 c3        1 SL0      0.103100
      7 O3          1.7520    3.1820   -1.2410 oh        1 SL0     -0.575800
      8 C5          3.0420    0.4840   -1.0290 c3        1 SL0      0.118100
      9 O4          4.0980   -0.3450   -0.5200 os        1 SL0     -0.440900
     10 C6          5.2240   -0.5180   -1.2800 c         1 SL0      0.639100
     11 O5          5.2690   -0.0380   -2.4130 o         1 SL0     -0.531000
     12 C7          6.2650   -1.3170   -0.5730 c3        1 SL0     -0.150100
     13 C8          1.8460   -0.4280   -1.3570 c3        1 SL0      0.132100
     14 C9          2.1340   -1.3040   -2.5610 c3        1 SL0     -0.089100
     15 O6          0.6990    0.3500   -1.7130 os        1 SL0     -0.413600
     16 C10         0.2870    1.3150   -0.7810 c3        1 SL0      0.297900
     17 O7         -0.2190    0.5970    0.3500 os        1 SL0     -0.345900
     18 C11        -1.5420    0.1930    0.2660 cc        1 SL0     -0.078100
     19 C12        -2.5790    1.2170    0.0840 c         1 SL0      0.604900
     20 O8         -2.2980    2.4190   -0.0950 o         1 SL0     -0.604100
     21 C13        -1.8440   -1.1220    0.4730 cd        1 SL0      0.196900
     22 C14        -0.9180   -2.2220    0.7290 ca        1 SL0     -0.111800
     23 C15         0.2640   -2.0000    1.4500 ca        1 SL0     -0.048500
     24 C16         1.1400   -3.0510    1.7020 ca        1 SL0     -0.198000
     25 C17         0.8310   -4.3350    1.2310 ca        1 SL0      0.148100
     26 O9          1.6480   -5.4190    1.4410 oh        1 SL0     -0.492100
     27 C18        -0.3530   -4.5730    0.5090 ca        1 SL0     -0.198000
     28 C19        -1.2190   -3.5160    0.2680 ca        1 SL0     -0.048500
     29 O10        -3.1540   -1.5770    0.5010 os        1 SL0     -0.213200
     30 C20        -4.1750   -0.6640    0.3180 ca        1 SL0      0.215100
     31 C21        -5.4550   -1.2270    0.3530 ca        1 SL0     -0.234000
     32 C22        -6.5510   -0.3670    0.1880 ca        1 SL0      0.220100
     33 O11        -7.7890   -0.9530    0.2260 oh        1 SL0     -0.484100
     34 C23        -6.3830    1.0090   -0.0040 ca        1 SL0     -0.299000
     35 C24        -5.0860    1.5450   -0.0350 ca        1 SL0      0.270100
     36 C25        -3.9470    0.7140    0.1210 ca        1 SL0     -0.334600
     37 O12        -5.0350    2.8930   -0.2260 oh        1 SL0     -0.495100
     38 H733        4.7490    4.9090    1.6490 hc        1 SL0      0.077367
     39 H731        5.6980    3.5720    2.4430 hc        1 SL0      0.077367
     40 H732        5.7060    3.7450    0.6240 hc        1 SL0      0.077367
     41 H23         2.4580    0.8610    1.0610 h1        1 SL0      0.090700
     42 H22         1.0280    2.7630    0.6800 h1        1 SL0      0.085700
     43 H1          0.9780    3.7450   -1.3750 ho        1 SL0      0.410000
     44 H24         3.3730    1.0680   -1.9310 h1        1 SL0      0.120700
     45 H643        6.5510   -2.1880   -1.2130 hc        1 SL0      0.075700
     46 H642        7.1620   -0.6720   -0.4120 hc        1 SL0      0.075700
     47 H641        5.8900   -1.6840    0.4120 hc        1 SL0      0.075700
     48 H25         1.5950   -1.0510   -0.4520 h1        1 SL0      0.061700
     49 H512        3.1050   -1.8310   -2.4020 hc        1 SL0      0.051367
     50 H513        1.3180   -2.0520   -2.6950 hc        1 SL0      0.051367
     51 H511        2.2060   -0.6820   -3.4860 hc        1 SL0      0.051367
     52 H21        -0.5090    1.9060   -1.3170 h2        1 SL0      0.111700
     53 H12         0.5000   -0.9870    1.8200 ha        1 SL0      0.156500
     54 H13         2.0660   -2.8740    2.2680 ha        1 SL0      0.149500
     55 H15        -0.5750   -5.5870    0.1500 ha        1 SL0      0.149500
     56 H16        -2.1540   -3.6880   -0.2900 ha        1 SL0      0.156500
     57 H8         -5.5980   -2.3040    0.5090 ha        1 SL0      0.176000
     58 H6         -7.2450    1.6790   -0.1310 ha        1 SL0      0.162000
     59 H221        2.4130   -5.1240    1.9560 ho        1 SL0      0.423000
     60 H231       -8.4570   -0.2610    0.1030 ho        1 SL0      0.431000
     61 H241       -4.1130    3.2050   -0.2170 ho        1 SL0      0.468000
@<TRIPOS>BOND
     1    1    2 1   
     2    1   38 1   
     3    1   39 1   
     4    1   40 1   
     5    2    3 2   
     6    2    4 1   
     7    4    5 1   
     8    5    6 1   
     9    5    8 1   
    10    5   41 1   
    11    6    7 1   
    12    6   16 1   
    13    6   42 1   
    14    7   43 1   
    15    8    9 1   
    16    8   13 1   
    17    8   44 1   
    18    9   10 1   
    19   10   11 2   
    20   10   12 1   
    21   12   45 1   
    22   12   46 1   
    23   12   47 1   
    24   13   14 1   
    25   13   15 1   
    26   13   48 1   
    27   14   49 1   
    28   14   50 1   
    29   14   51 1   
    30   15   16 1   
    31   16   17 1   
    32   16   52 1   
    33   17   18 1   
    34   18   19 1   
    35   18   21 2   
    36   19   20 2   
    37   19   36 1   
    38   21   22 1   
    39   21   29 1   
    40   22   23 ar  
    41   22   28 ar  
    42   23   24 ar  
    43   23   53 1   
    44   24   25 ar  
    45   24   54 1   
    46   25   26 1   
    47   25   27 ar  
    48   26   59 1   
    49   27   28 ar  
    50   27   55 1   
    51   28   56 1   
    52   29   30 1   
    53   30   31 ar  
    54   30   36 ar  
    55   31   32 ar  
    56   31   57 1   
    57   32   33 1   
    58   32   34 ar  
    59   33   60 1   
    60   34   35 ar  
    61   34   58 1   
    62   35   36 ar  
    63   35   37 1   
    64   37   61 1   
@<TRIPOS>SUBSTRUCTURE
     1 SL0         1 TEMP              0 ****  ****    0 ROOT
