@<TRIPOS>MOLECULE
SL1
   80    82     1     0     0
SMALL
bcc


@<TRIPOS>ATOM
      1 N1          1.1250   -1.5920   -0.8390 n3        1 SL1     -0.980800
      2 C1          2.4200   -0.9770   -1.1870 c3        1 SL1      0.305700
      3 C2          3.5310   -1.3500   -0.1560 c         1 SL1      0.695500
      4 O1          3.3080   -2.0360    0.8680 o         1 SL1     -0.718500
      5 N2          4.8170   -0.8670   -0.3760 n         1 SL1     -0.365000
      6 C3          5.7600   -0.8520    0.6980 c3        1 SL1      0.060000
      7 C4          6.3280   -2.2460    1.0400 c         1 SL1      0.518100
      8 O3          7.2140   -2.8530    0.4720 o         1 SL1     -0.388100
      9 N3          5.6900   -2.9290    2.2530 n4        1 SL1     -0.693800
     10 C5          6.1380   -4.3380    2.4870 c3        1 SL1     -0.018500
     11 C6          5.0770   -5.1580    3.2340 c         1 SL1      0.587900
     12 O2          5.4140   -5.9790    4.0820 o         1 SL1     -0.521100
     13 C7          5.2350   -0.3700   -1.6520 ca        1 SL1     -0.006400
     14 C9          4.5050    0.6390   -2.3210 ca        1 SL1     -0.205900
     15 C8          3.2360    1.1910   -1.7860 ce        1 SL1      0.636500
     16 N4          2.2770    0.4670   -1.2800 n2        1 SL1     -0.682900
     17 C10         3.0840    2.6550   -1.8750 ca        1 SL1     -0.204900
     18 C11         4.2190    3.4740   -1.7540 ca        1 SL1     -0.086000
     19 C12         4.0940    4.8590   -1.8180 ca        1 SL1     -0.124500
     20 C13         2.8390    5.4430   -2.0100 ca        1 SL1     -0.061000
     21 C14         1.7080    4.6340   -2.1330 ca        1 SL1     -0.124500
     22 C15         1.8260    3.2470   -2.0620 ca        1 SL1     -0.086000
     23 C16         4.9660    1.1060   -3.5600 ca        1 SL1     -0.059000
     24 C17         6.1230    0.5870   -4.1360 ca        1 SL1     -0.089000
     25 C18         6.8430   -0.4060   -3.4720 ca        1 SL1     -0.071000
     26 C19         6.4100   -0.8830   -2.2370 ca        1 SL1     -0.150000
     27 C20         7.5520   -4.4650    3.0780 c3        1 SL1     -0.092400
     28 C21         7.6820   -4.5060    4.5960 c3        1 SL1     -0.101400
     29 C22         8.1730   -5.8960    5.0280 c3        1 SL1      0.104800
     30 N5          8.2210   -6.0560    6.5290 n4        1 SL1     -0.786000
     31 C23         8.5270   -7.4850    6.9360 c2        1 SL1      0.613100
     32 N6          9.7680   -7.6590    7.7670 n4        1 SL1     -0.818600
     33 N7          7.8530   -8.5300    6.6750 n2        1 SL1     -0.578100
     34 S          -0.4680   -1.1860   -2.6180 s4        1 SL1      1.587500
     35 O4         -1.0080   -2.4070   -2.3970 o         1 SL1     -0.411900
     36 O5          0.5300   -0.9830   -3.5120 o         1 SL1     -0.411900
     37 C24        -1.1960    0.1070   -1.9420 c3        1 SL1     -0.362800
     38 C25        -2.2360    0.5720   -2.9080 ca        1 SL1     -0.214300
     39 C26        -3.5560    0.1100   -2.7950 ca        1 SL1     -0.095500
     40 C27        -4.5320    0.5790   -3.6720 ca        1 SL1     -0.110500
     41 C28        -4.2030    1.5210   -4.6490 ca        1 SL1     -0.050000
     42 C29        -2.8930    1.9990   -4.7480 ca        1 SL1     -0.110500
     43 C30        -1.9130    1.5370   -3.8750 ca        1 SL1     -0.095500
     44 H1          1.2470   -2.5860   -0.7340 hn        1 SL1      0.411800
     45 HA          2.7360   -1.4360   -2.1850 h2        1 SL1      0.123700
     46 H3C1        6.6630   -0.2270    0.4070 h1        1 SL1      0.129200
     47 H3C2        5.2800   -0.4120    1.6210 h1        1 SL1      0.129200
     48 H3          5.8860   -2.3580    3.0800 hn        1 SL1      0.479300
     49 H5          6.1940   -4.8170    1.4480 hx        1 SL1      0.159700
     50 H6          4.0190   -5.0070    2.9220 h4        1 SL1      0.082200
     51 H11         5.2130    3.0240   -1.6080 ha        1 SL1      0.128000
     52 H12         4.9870    5.4970   -1.7220 ha        1 SL1      0.164000
     53 H13         2.7430    6.5400   -2.0650 ha        1 SL1      0.173000
     54 H14         0.7190    5.0950   -2.2880 ha        1 SL1      0.164000
     55 H15         0.9250    2.6250   -2.1670 ha        1 SL1      0.128000
     56 H16         4.3980    1.8990   -4.0800 ha        1 SL1      0.184000
     57 H17         6.4690    0.9640   -5.1150 ha        1 SL1      0.188000
     58 H18         7.7610   -0.8200   -3.9260 ha        1 SL1      0.177000
     59 H19         6.9980   -1.6640   -1.7290 ha        1 SL1      0.139000
     60 H201        8.1980   -3.6300    2.6830 hc        1 SL1      0.107700
     61 H202        7.9800   -5.4090    2.6330 hc        1 SL1      0.107700
     62 H211        8.4230   -3.7270    4.9230 hc        1 SL1      0.084700
     63 H212        6.7000   -4.2710    5.0850 hc        1 SL1      0.084700
     64 H221        7.4660   -6.6770    4.6150 hx        1 SL1      0.132200
     65 H222        9.2130   -6.0780    4.6300 hx        1 SL1      0.132200
     66 HB          8.9000   -5.3840    6.9120 hn        1 SL1      0.485300
     67 H6N1        9.9000   -8.6770    7.9810 hn        1 SL1      0.519467
     68 H6N2       10.6050   -7.3340    7.2580 hn        1 SL1      0.519467
     69 H7          6.9990   -8.5780    6.1470 hn        1 SL1      0.550400
     70 H241       -0.5060    0.9790   -1.7130 h1        1 SL1      0.187700
     71 H242       -1.7050   -0.0910   -0.9500 h1        1 SL1      0.187700
     72 H26        -3.8310   -0.6150   -2.0120 ha        1 SL1      0.143000
     73 H27        -5.5690    0.2110   -3.5850 ha        1 SL1      0.174500
     74 H28        -4.9810    1.8950   -5.3390 ha        1 SL1      0.179000
     75 H29        -2.6380    2.7520   -5.5120 ha        1 SL1      0.174500
     76 H30        -0.8880    1.9370   -3.9420 ha        1 SL1      0.143000
     77 H121        0.7680   -1.2210    0.0280 hn        1 SL1      0.411800
     78 H32         4.6620   -2.9120    2.0820 hn        1 SL1      0.479300
     79 H52         7.2920   -5.8130    6.9210 hn        1 SL1      0.485300
     80 H63         9.6790   -7.1600    8.6680 hn        1 SL1      0.519467
@<TRIPOS>BOND
     1    1    2 1   
     2    1   44 1   
     3    1   77 1   
     4    2    3 1   
     5    2   16 1   
     6    2   45 1   
     7    3    4 2   
     8    3    5 1   
     9    5    6 1   
    10    5   13 1   
    11    6    7 1   
    12    6   46 1   
    13    6   47 1   
    14    7    8 2   
    15    7    9 1   
    16    9   10 1   
    17    9   48 1   
    18    9   78 1   
    19   10   11 1   
    20   10   27 1   
    21   10   49 1   
    22   11   12 2   
    23   11   50 1   
    24   13   14 ar  
    25   13   26 ar  
    26   14   15 1   
    27   14   23 ar  
    28   15   16 2   
    29   15   17 1   
    30   17   18 ar  
    31   17   22 ar  
    32   18   19 ar  
    33   18   51 1   
    34   19   20 ar  
    35   19   52 1   
    36   20   21 ar  
    37   20   53 1   
    38   21   22 ar  
    39   21   54 1   
    40   22   55 1   
    41   23   24 ar  
    42   23   56 1   
    43   24   25 ar  
    44   24   57 1   
    45   25   26 ar  
    46   25   58 1   
    47   26   59 1   
    48   27   28 1   
    49   27   60 1   
    50   27   61 1   
    51   28   29 1   
    52   28   62 1   
    53   28   63 1   
    54   29   30 1   
    55   29   64 1   
    56   29   65 1   
    57   30   31 1   
    58   30   66 1   
    59   30   79 1   
    60   31   32 1   
    61   31   33 2   
    62   32   67 1   
    63   32   68 1   
    64   32   80 1   
    65   33   69 1   
    66   34   35 1   
    67   34   36 1   
    68   34   37 1   
    69   37   38 1   
    70   37   70 1   
    71   37   71 1   
    72   38   39 ar  
    73   38   43 ar  
    74   39   40 ar  
    75   39   72 1   
    76   40   41 ar  
    77   40   73 1   
    78   41   42 ar  
    79   41   74 1   
    80   42   43 ar  
    81   42   75 1   
    82   43   76 1   
@<TRIPOS>SUBSTRUCTURE
     1 SL1         1 TEMP              0 ****  ****    0 ROOT
