@<TRIPOS>MOLECULE
SL1
   76    79     1     0     0
SMALL
bcc


@<TRIPOS>ATOM
      1 N1          3.9000   -2.8500   -5.8610 n3        1 SL1     -0.899100
      2 C1          3.7570   -1.5650   -6.5040 c3        1 SL1      0.369700
      3 C2          2.3620   -1.4380   -7.1920 c         1 SL1      0.697500
      4 O1          1.6140   -2.4210   -7.3550 o         1 SL1     -0.638500
      5 N2          1.9960   -0.1860   -7.6770 n         1 SL1     -0.374000
      6 C3          0.7330   -0.0440   -8.3650 c3        1 SL1      0.018000
      7 C4         -0.4980    0.1230   -7.4520 c         1 SL1      0.636100
      8 O3         -1.1380    1.1940   -7.4710 o         1 SL1     -0.608100
      9 N3         -0.8450   -0.9360   -6.6480 n         1 SL1     -0.558900
     10 C5         -2.0470   -0.9380   -5.8510 c3        1 SL1     -0.022300
     11 C6         -1.7520   -0.9540   -4.3500 c         1 SL1      0.557900
     12 O2         -2.6510   -0.7840   -3.5280 o         1 SL1     -0.517100
     13 C7          2.7390    0.9940   -7.4130 ca        1 SL1      0.058600
     14 C9          4.1410    1.0550   -7.5930 ca        1 SL1     -0.211900
     15 C8          4.9420   -0.1280   -7.9880 ce        1 SL1      0.565500
     16 N4          4.8010   -1.3190   -7.5010 n2        1 SL1     -0.627900
     17 C10         5.9950    0.1250   -9.0010 ca        1 SL1     -0.152900
     18 C11         5.7040    0.9240  -10.1140 ca        1 SL1     -0.094000
     19 C12         6.6810    1.1540  -11.0800 ca        1 SL1     -0.136500
     20 C13         7.9510    0.5920  -10.9400 ca        1 SL1     -0.110000
     21 C14         8.2420   -0.2050   -9.8330 ca        1 SL1     -0.136500
     22 C15         7.2660   -0.4450   -8.8660 ca        1 SL1     -0.094000
     23 C16         4.8180    2.2590   -7.3510 ca        1 SL1     -0.079000
     24 C17         4.1340    3.3960   -6.9410 ca        1 SL1     -0.137000
     25 C18         2.7500    3.3450   -6.7750 ca        1 SL1     -0.091000
     26 C19         2.0550    2.1660   -7.0080 ca        1 SL1     -0.153000
     27 C20        -3.0010   -2.0990   -6.1720 c3        1 SL1     -0.090400
     28 C21        -2.3730   -3.4610   -5.9680 c3        1 SL1     -0.097400
     29 C22        -3.4530   -4.5420   -6.0680 c3        1 SL1      0.188800
     30 N5         -2.9320   -5.8750   -5.8710 nh        1 SL1     -0.848200
     31 C23        -3.7440   -7.0060   -6.2360 c2        1 SL1      0.751100
     32 N6         -5.1570   -6.7800   -6.3180 nh        1 SL1     -0.879800
     33 N7         -3.2800   -8.2100   -6.4710 n2        1 SL1     -0.882100
     34 S           5.0340   -3.1750   -4.7450 s6        1 SL1      1.453900
     35 O4          4.5470   -4.2010   -3.9140 o         1 SL1     -0.644300
     36 O5          5.4440   -1.9700   -4.1360 o         1 SL1     -0.644300
     37 C24         6.3400   -3.7950   -5.6960 c3        1 SL1     -0.258300
     38 C25         7.5170   -4.1870   -4.8840 ca        1 SL1     -0.072300
     39 C26         7.9110   -5.5280   -4.8090 ca        1 SL1     -0.116000
     40 C27         9.0370   -5.8870   -4.0690 ca        1 SL1     -0.127000
     41 C28         9.7780   -4.9120   -3.4020 ca        1 SL1     -0.122000
     42 C29         9.3890   -3.5750   -3.4740 ca        1 SL1     -0.127000
     43 C30         8.2650   -3.2100   -4.2130 ca        1 SL1     -0.116000
     44 H1          3.3020   -3.5530   -6.2340 hn        1 SL1      0.468800
     45 HA          3.8020   -0.7740   -5.6780 h2        1 SL1      0.100700
     46 H3C1        0.5740   -0.9560   -9.0130 h1        1 SL1      0.096700
     47 H3C2        0.7740    0.8710   -9.0220 h1        1 SL1      0.096700
     48 H3         -0.3520   -1.7970   -6.7360 hn        1 SL1      0.337500
     49 H5         -2.6070    0.0290   -6.0620 h1        1 SL1      0.115700
     50 H6         -0.6970   -1.1200   -4.0420 h4        1 SL1      0.009200
     51 H11         4.7030    1.3690  -10.2240 ha        1 SL1      0.143500
     52 H12         6.4490    1.7780  -11.9560 ha        1 SL1      0.139000
     53 H13         8.7210    0.7760  -11.7040 ha        1 SL1      0.137000
     54 H14         9.2410   -0.6510   -9.7220 ha        1 SL1      0.139000
     55 H15         7.4980   -1.0840   -7.9990 ha        1 SL1      0.143500
     56 H16         5.9110    2.2910   -7.4910 ha        1 SL1      0.152000
     57 H17         4.6820    4.3310   -6.7490 ha        1 SL1      0.146000
     58 H18         2.1990    4.2430   -6.4530 ha        1 SL1      0.148000
     59 H19         0.9580    2.1530   -6.8810 ha        1 SL1      0.169000
     60 H201       -3.8920   -1.9860   -5.4960 hc        1 SL1      0.066700
     61 H202       -3.3620   -2.0020   -7.2290 hc        1 SL1      0.066700
     62 H211       -1.8790   -3.5030   -4.9620 hc        1 SL1      0.050200
     63 H212       -1.5820   -3.6440   -6.7420 hc        1 SL1      0.050200
     64 H221       -4.2230   -4.3520   -5.2660 h1        1 SL1      0.045200
     65 H222       -3.9680   -4.4340   -7.0670 h1        1 SL1      0.045200
     66 HB         -1.9850   -5.9690   -6.1780 hn        1 SL1      0.395800
     67 H6N1       -5.5040   -6.2350   -5.5560 hn        1 SL1      0.394300
     68 H6N2       -5.6730   -7.6310   -6.4250 hn        1 SL1      0.394300
     69 H7         -2.2880   -8.2970   -6.5060 hn        1 SL1      0.391400
     70 H241        6.0050   -4.6790   -6.3040 h1        1 SL1      0.120200
     71 H242        6.6820   -3.0330   -6.4510 h1        1 SL1      0.120200
     72 H26         7.3300   -6.3030   -5.3310 ha        1 SL1      0.142500
     73 H27         9.3380   -6.9440   -4.0110 ha        1 SL1      0.134500
     74 H28        10.6650   -5.1980   -2.8190 ha        1 SL1      0.133000
     75 H29         9.9670   -2.8030   -2.9440 ha        1 SL1      0.134500
     76 H30         7.9480   -2.1550   -4.2540 ha        1 SL1      0.142500
@<TRIPOS>BOND
     1    1    2 1   
     2    1   34 1   
     3    1   44 1   
     4    2    3 1   
     5    2   16 1   
     6    2   45 1   
     7    3    4 2   
     8    3    5 1   
     9    5    6 1   
    10    5   13 1   
    11    6    7 1   
    12    6   46 1   
    13    6   47 1   
    14    7    8 2   
    15    7    9 1   
    16    9   10 1   
    17    9   48 1   
    18   10   11 1   
    19   10   27 1   
    20   10   49 1   
    21   11   12 2   
    22   11   50 1   
    23   13   14 ar  
    24   13   26 ar  
    25   14   15 1   
    26   14   23 ar  
    27   15   16 2   
    28   15   17 1   
    29   17   18 ar  
    30   17   22 ar  
    31   18   19 ar  
    32   18   51 1   
    33   19   20 ar  
    34   19   52 1   
    35   20   21 ar  
    36   20   53 1   
    37   21   22 ar  
    38   21   54 1   
    39   22   55 1   
    40   23   24 ar  
    41   23   56 1   
    42   24   25 ar  
    43   24   57 1   
    44   25   26 ar  
    45   25   58 1   
    46   26   59 1   
    47   27   28 1   
    48   27   60 1   
    49   27   61 1   
    50   28   29 1   
    51   28   62 1   
    52   28   63 1   
    53   29   30 1   
    54   29   64 1   
    55   29   65 1   
    56   30   31 1   
    57   30   66 1   
    58   31   32 1   
    59   31   33 2   
    60   32   67 1   
    61   32   68 1   
    62   33   69 1   
    63   34   35 2   
    64   34   36 2   
    65   34   37 1   
    66   37   38 1   
    67   37   70 1   
    68   37   71 1   
    69   38   39 ar  
    70   38   43 ar  
    71   39   40 ar  
    72   39   72 1   
    73   40   41 ar  
    74   40   73 1   
    75   41   42 ar  
    76   41   74 1   
    77   42   43 ar  
    78   42   75 1   
    79   43   76 1   
@<TRIPOS>SUBSTRUCTURE
     1 SL1         1 TEMP              0 ****  ****    0 ROOT
