@<TRIPOS>MOLECULE
SL1
   76    71     1     0     0
SMALL
bcc


@<TRIPOS>ATOM
      1 N1         -1.5210    1.8640   -1.6060 n3        1 SL1     -0.897000
      2 C1         -0.0970    1.8900   -1.5960 c3        1 SL1      0.090000
      3 C2          0.3960    1.8830   -0.1800 c2        1 SL1      0.293000
      4 O1         -0.3230    1.9130    0.7990 o         1 SL1     -0.338000
      5 N2          1.8180    1.8140   -0.1350 n         1 SL1     -0.278000
      6 C3          2.5650    0.6340    0.2460 c3        1 SL1     -0.048000
      7 C4          2.1550    0.2030    1.6700 c2        1 SL1      0.282000
      8 O3          2.3390    0.9520    2.6070 o         1 SL1     -0.382000
      9 N3          1.5710   -1.0970    1.8900 n         1 SL1     -0.356000
     10 C5          1.0050   -1.4190    3.1590 c3        1 SL1     -0.043000
     11 C6          1.9610   -2.2860    3.9270 c2        1 SL1      0.182000
     12 O2          2.5940   -3.1490    3.3520 o         1 SL1     -0.294000
     13 C7          2.4080    3.1390   -0.3070 c2        1 SL1      0.071000
     14 C9          2.8610    3.3190   -1.6100 c2        1 SL1     -0.139000
     15 C8          1.6980    3.1970   -2.6250 c2        1 SL1      0.111000
     16 N4          0.3550    3.0900   -2.1590 n2        1 SL1     -0.197000
     17 C10         1.9860    3.2640   -4.1430 c2        1 SL1     -0.072000
     18 C11         2.3750    2.1200   -4.8250 c2        1 SL1     -0.100000
     19 C12         2.6800    2.1870   -6.1810 c1        1 SL1     -0.137000
     20 C13         2.5940    3.4010   -6.8530 c1        1 SL1     -0.120833
     21 C14         2.2050    4.5450   -6.1710 c1        1 SL1     -0.120833
     22 C15         1.9010    4.4770   -4.8130 c1        1 SL1     -0.086000
     23 C16         3.9380    4.1820   -1.8650 c1        1 SL1     -0.088000
     24 C17         4.5530    4.8590   -0.8110 c1        1 SL1     -0.120833
     25 C18         4.0980    4.6790    0.4960 c1        1 SL1     -0.120833
     26 C19         3.0280    3.8210    0.7510 c1        1 SL1     -0.160000
     27 C20        -0.3090   -2.1650    2.9550 c3        1 SL1     -0.160000
     28 C21        -0.4430   -3.2660    4.0140 c3        1 SL1     -0.209000
     29 C22        -0.8940   -4.5710    3.3420 c3        1 SL1     -0.057000
     30 N5         -0.1820   -5.6760    3.9170 n3        1 SL1     -0.323000
     31 C23         0.1970   -6.7860    3.0990 c2        1 SL1      0.158000
     32 N6          1.4860   -6.8220    2.5040 n3        1 SL1     -0.330000
     33 N7         -0.6430   -7.7700    2.8990 n1        1 SL1     -0.354000
     34 S          -2.3360    0.5880   -0.9060 s4        1 SL1      2.019800
     35 O4         -2.4630    0.7660    0.5130 o         1 SL1     -0.527400
     36 O5         -1.5620   -0.6220   -0.9680 o         1 SL1     -0.527400
     37 C24        -3.9390    0.3740   -1.6810 c2        1 SL1     -0.802000
     38 C25        -4.9610   -0.0730   -0.6300 c2        1 SL1     -0.071000
     39 C26        -6.2250    0.5010   -0.6060 c2        1 SL1     -0.108000
     40 C27        -7.1920    0.0140    0.2600 c1        1 SL1     -0.130000
     41 C28        -6.8980   -1.0470    1.1030 c1        1 SL1     -0.120833
     42 C29        -5.6360   -1.6220    1.0810 c1        1 SL1     -0.120833
     43 C30        -4.6660   -1.1340    0.2130 c1        1 SL1     -0.118000
     44 H1         -1.9880    2.5800   -1.9320 hn        1 SL1      0.250000
     45 HA          0.1050    1.0860   -2.1110 h2        1 SL1      0.176000
     46 H3C1        2.3710   -0.0920   -0.3830 h1        1 SL1      0.135000
     47 H3C2        3.5250    0.8340    0.2290 h1        1 SL1      0.135000
     48 H3          1.5320   -1.7010    1.2070 hn        1 SL1      0.258000
     49 H5          0.8380   -0.5950    3.6590 h1        1 SL1      0.141000
     50 H6          2.1190   -2.1160    4.8800 h4        1 SL1      0.102000
     51 H11         2.4350    1.2680   -4.3540 ha        1 SL1      0.142000
     52 H12         2.9540    1.3810   -6.6610 ha        1 SL1      0.138000
     53 H13         2.8080    3.4480   -7.8070 ha        1 SL1      0.140000
     54 H14         2.1450    5.4000   -6.6450 ha        1 SL1      0.140000
     55 H15         1.6270    5.2810   -4.3340 ha        1 SL1      0.147000
     56 H16         4.2570    4.3090   -2.7800 ha        1 SL1      0.150000
     57 H17         5.3060    5.4630   -0.9900 ha        1 SL1      0.140000
     58 H18         4.5320    5.1560    1.2360 ha        1 SL1      0.140000
     59 H19         2.7100    3.6950    1.6680 ha        1 SL1      0.177000
     60 H201       -1.0570   -1.5370    3.0390 hc        1 SL1      0.099500
     61 H202       -0.3200   -2.5660    2.0660 hc        1 SL1      0.099500
     62 H211        0.4180   -3.4050    4.4500 hc        1 SL1      0.096000
     63 H212       -1.1100   -2.9950    4.6840 hc        1 SL1      0.096000
     64 H221       -1.8580   -4.6950    3.4810 h1        1 SL1      0.103000
     65 H222       -0.7070   -4.5260    2.3830 h1        1 SL1      0.103000
     66 HB         -0.0310   -5.7010    4.8180 hn        1 SL1      0.191000
     67 H6N1        1.8630   -6.0550    2.1910 hn        1 SL1      0.197500
     68 H6N2        1.9170   -7.6230    2.3940 hn        1 SL1      0.197500
     69 H7         -1.4690   -7.7480    3.2810 DU        1 SL1      0.144000
     70 H241       -4.2250    1.2210   -2.0730 ha        1 SL1      0.155000
     71 H242       -3.8740   -0.3070   -2.3840 ha        1 SL1      0.155000
     72 H26        -6.4330    1.2470   -1.1990 ha        1 SL1      0.132000
     73 H27        -8.0820    0.4180    0.2750 ha        1 SL1      0.134000
     74 H28        -7.5800   -1.3910    1.7140 ha        1 SL1      0.140000
     75 H29        -5.4290   -2.3690    1.6740 ha        1 SL1      0.140000
     76 H30        -3.7790   -1.5380    0.1970 ha        1 SL1      0.153000
@<TRIPOS>BOND
     1    1    2 1   
     2    1   34 1   
     3    1   44 1   
     4    2    3 1   
     5    2   16 1   
     6    2   45 1   
     7    3    4 1   
     8    3    5 1   
     9    5    6 1   
    10    5   13 1   
    11    6    7 1   
    12    6   46 1   
    13    6   47 1   
    14    7    8 1   
    15    7    9 1   
    16    9   10 1   
    17    9   48 1   
    18   10   11 1   
    19   10   27 1   
    20   10   49 1   
    21   11   12 1   
    22   11   50 1   
    23   13   14 1   
    24   13   26 1   
    25   14   15 1   
    26   14   23 1   
    27   15   16 1   
    28   15   17 1   
    29   17   18 1   
    30   17   22 1   
    31   18   19 1   
    32   18   51 1   
    33   19   52 1   
    34   20   21 1   
    35   20   53 1   
    36   21   54 1   
    37   22   55 1   
    38   23   56 1   
    39   24   25 1   
    40   24   57 1   
    41   25   58 1   
    42   26   59 1   
    43   27   28 1   
    44   27   60 1   
    45   27   61 1   
    46   28   29 1   
    47   28   62 1   
    48   28   63 1   
    49   29   30 1   
    50   29   64 1   
    51   29   65 1   
    52   30   31 1   
    53   30   66 1   
    54   31   32 1   
    55   31   33 1   
    56   32   67 1   
    57   32   68 1   
    58   34   35 1   
    59   34   36 1   
    60   37   38 1   
    61   37   70 1   
    62   37   71 1   
    63   38   39 1   
    64   38   43 1   
    65   39   40 1   
    66   39   72 1   
    67   40   73 1   
    68   41   42 1   
    69   41   74 1   
    70   42   75 1   
    71   43   76 1   
@<TRIPOS>SUBSTRUCTURE
     1 SL1         1 TEMP              0 ****  ****    0 ROOT
