@<TRIPOS>MOLECULE
SL1
   80    82     1     0     0
SMALL
bcc


@<TRIPOS>ATOM
      1 N1          1.1290   -1.5980   -0.7310 n3        1 SL1     -0.980800
      2 C1          2.4270   -1.0260   -1.1310 c3        1 SL1      0.306700
      3 C2          3.5600   -1.4010   -0.1250 c         1 SL1      0.696500
      4 O1          3.3540   -2.0590    0.9210 o         1 SL1     -0.721500
      5 N2          4.8490   -0.9540   -0.3950 n         1 SL1     -0.365000
      6 C3          5.8220   -0.9250    0.6520 c3        1 SL1      0.062000
      7 C4          6.3700   -2.3210    1.0210 c         1 SL1      0.521100
      8 O3          7.2260   -2.9680    0.4540 o         1 SL1     -0.386100
      9 N3          5.7470   -2.9530    2.2750 n4        1 SL1     -0.692800
     10 C5          6.2300   -4.3310    2.5840 c3        1 SL1     -0.020500
     11 C6          5.2330   -5.1420    3.4230 c         1 SL1      0.611900
     12 O2          5.6580   -5.8970    4.2990 o         1 SL1     -0.575100
     13 C7          5.2410   -0.5020   -1.6960 ca        1 SL1     -0.008400
     14 C9          4.5150    0.5080   -2.3700 ca        1 SL1     -0.204900
     15 C8          3.2780    1.1060   -1.8110 ce        1 SL1      0.636500
     16 N4          2.3180    0.4200   -1.2560 n2        1 SL1     -0.682900
     17 C10         3.1600    2.5710   -1.9320 ca        1 SL1     -0.205900
     18 C11         4.3210    3.3620   -1.8790 ca        1 SL1     -0.085500
     19 C12         4.2280    4.7470   -1.9740 ca        1 SL1     -0.124500
     20 C13         2.9820    5.3600   -2.1300 ca        1 SL1     -0.060000
     21 C14         1.8260    4.5790   -2.1860 ca        1 SL1     -0.124500
     22 C15         1.9110    3.1910   -2.0830 ca        1 SL1     -0.085500
     23 C16         4.9480    0.9290   -3.6350 ca        1 SL1     -0.059000
     24 C17         6.0740    0.3640   -4.2310 ca        1 SL1     -0.088000
     25 C18         6.7900   -0.6290   -3.5630 ca        1 SL1     -0.071000
     26 C19         6.3840   -1.0600   -2.3020 ca        1 SL1     -0.150000
     27 C20         7.6430   -4.3990    3.1830 c3        1 SL1     -0.108400
     28 C21         7.7660   -4.0150    4.6460 c3        1 SL1     -0.114400
     29 C22         8.6620   -4.9590    5.4510 c3        1 SL1      0.112800
     30 N5          7.9470   -6.2090    5.9070 n4        1 SL1     -0.786000
     31 C23         8.8170   -7.1040    6.7620 c2        1 SL1      0.612100
     32 N6          8.0800   -8.2590    7.3910 n4        1 SL1     -0.820600
     33 N7         10.0580   -7.0170    7.0140 n2        1 SL1     -0.578100
     34 S          -0.5050   -1.2070   -2.4890 s4        1 SL1      1.587500
     35 O4         -1.0660   -2.4080   -2.2120 o         1 SL1     -0.411900
     36 O5          0.4780   -1.0590   -3.4080 o         1 SL1     -0.411900
     37 C24        -1.1870    0.1250   -1.8410 c3        1 SL1     -0.362800
     38 C25        -2.2380    0.5820   -2.8000 ca        1 SL1     -0.216300
     39 C26        -3.5650    0.1550   -2.6420 ca        1 SL1     -0.095500
     40 C27        -4.5490    0.6170   -3.5130 ca        1 SL1     -0.110500
     41 C28        -4.2210    1.5180   -4.5290 ca        1 SL1     -0.050000
     42 C29        -2.9030    1.9610   -4.6730 ca        1 SL1     -0.110500
     43 C30        -1.9140    1.5050   -3.8060 ca        1 SL1     -0.095500
     44 H1          0.8020   -1.1930    0.1320 hn        1 SL1      0.411300
     45 HA          2.7030   -1.5170   -2.1270 h2        1 SL1      0.123700
     46 H3C1        5.3770   -0.4480    1.5740 h1        1 SL1      0.130200
     47 H3C2        6.7290   -0.3310    0.3170 h1        1 SL1      0.130200
     48 H3          5.9290   -2.3330    3.0690 hn        1 SL1      0.480300
     49 H5          6.2870   -4.8770    1.5780 hx        1 SL1      0.165700
     50 H6          4.1530   -5.0560    3.1690 h4        1 SL1      0.091200
     51 H11         5.3080    2.8900   -1.7610 ha        1 SL1      0.128000
     52 H12         5.1410    5.3640   -1.9310 ha        1 SL1      0.164000
     53 H13         2.9120    6.4580   -2.2110 ha        1 SL1      0.173000
     54 H14         0.8440    5.0610   -2.3120 ha        1 SL1      0.164000
     55 H15         0.9910    2.5910   -2.1340 ha        1 SL1      0.128000
     56 H16         4.3840    1.7220   -4.1600 ha        1 SL1      0.184000
     57 H17         6.3980    0.7060   -5.2310 ha        1 SL1      0.188000
     58 H18         7.6830   -1.0770   -4.0320 ha        1 SL1      0.178000
     59 H19         6.9670   -1.8430   -1.7900 ha        1 SL1      0.138000
     60 H201        8.3400   -3.7650    2.5640 hc        1 SL1      0.101700
     61 H202        7.9780   -5.4630    3.0300 hc        1 SL1      0.101700
     62 H211        6.7580   -3.9180    5.1310 hc        1 SL1      0.103700
     63 H212        8.2610   -3.0020    4.7280 hc        1 SL1      0.103700
     64 H221        9.5480   -5.2690    4.8210 hx        1 SL1      0.132200
     65 H222        9.0220   -4.4150    6.3750 hx        1 SL1      0.132200
     66 HB          7.6210   -6.7230    5.0680 hn        1 SL1      0.488300
     67 H6N1        7.3700   -7.9200    8.0590 hn        1 SL1      0.517800
     68 H6N2        8.7610   -8.8510    7.9250 hn        1 SL1      0.517800
     69 H7         10.6930   -6.3130    6.6820 hn        1 SL1      0.547400
     70 H241       -1.6780   -0.0270   -0.8310 h1        1 SL1      0.187700
     71 H242       -0.4730    0.9870   -1.6570 h1        1 SL1      0.187700
     72 H26        -3.8390   -0.5350   -1.8290 ha        1 SL1      0.143500
     73 H27        -5.5920    0.2780   -3.3910 ha        1 SL1      0.175000
     74 H28        -5.0050    1.8880   -5.2130 ha        1 SL1      0.180000
     75 H29        -2.6480    2.6820   -5.4680 ha        1 SL1      0.175000
     76 H30        -0.8830    1.8780   -3.9090 ha        1 SL1      0.143500
     77 H121        1.2290   -2.5920   -0.6000 hn        1 SL1      0.411300
     78 H32         4.7190   -2.9670    2.1030 hn        1 SL1      0.480300
     79 H52         7.1030   -5.9190    6.4290 hn        1 SL1      0.488300
     80 H63         7.6400   -8.8550    6.6730 hn        1 SL1      0.517800
@<TRIPOS>BOND
     1    1    2 1   
     2    1   44 1   
     3    1   77 1   
     4    2    3 1   
     5    2   16 1   
     6    2   45 1   
     7    3    4 2   
     8    3    5 1   
     9    5    6 1   
    10    5   13 1   
    11    6    7 1   
    12    6   46 1   
    13    6   47 1   
    14    7    8 2   
    15    7    9 1   
    16    9   10 1   
    17    9   48 1   
    18    9   78 1   
    19   10   11 1   
    20   10   27 1   
    21   10   49 1   
    22   11   12 2   
    23   11   50 1   
    24   13   14 ar  
    25   13   26 ar  
    26   14   15 1   
    27   14   23 ar  
    28   15   16 2   
    29   15   17 1   
    30   17   18 ar  
    31   17   22 ar  
    32   18   19 ar  
    33   18   51 1   
    34   19   20 ar  
    35   19   52 1   
    36   20   21 ar  
    37   20   53 1   
    38   21   22 ar  
    39   21   54 1   
    40   22   55 1   
    41   23   24 ar  
    42   23   56 1   
    43   24   25 ar  
    44   24   57 1   
    45   25   26 ar  
    46   25   58 1   
    47   26   59 1   
    48   27   28 1   
    49   27   60 1   
    50   27   61 1   
    51   28   29 1   
    52   28   62 1   
    53   28   63 1   
    54   29   30 1   
    55   29   64 1   
    56   29   65 1   
    57   30   31 1   
    58   30   66 1   
    59   30   79 1   
    60   31   32 1   
    61   31   33 2   
    62   32   67 1   
    63   32   68 1   
    64   32   80 1   
    65   33   69 1   
    66   34   35 1   
    67   34   36 1   
    68   34   37 1   
    69   37   38 1   
    70   37   70 1   
    71   37   71 1   
    72   38   39 ar  
    73   38   43 ar  
    74   39   40 ar  
    75   39   72 1   
    76   40   41 ar  
    77   40   73 1   
    78   41   42 ar  
    79   41   74 1   
    80   42   43 ar  
    81   42   75 1   
    82   43   76 1   
@<TRIPOS>SUBSTRUCTURE
     1 SL1         1 TEMP              0 ****  ****    0 ROOT
