@<TRIPOS>MOLECULE
SL1
   80    82     1     0     0
SMALL
bcc


@<TRIPOS>ATOM
      1 N1          1.1460   -1.6510   -0.7610 n8        1 SL1     -0.980800
      2 C1          2.4350   -1.0410   -1.1380 c3        1 SL1      0.306700
      3 C2          3.5640   -1.4030   -0.1230 c         1 SL1      0.696500
      4 O1          3.3630   -2.0810    0.9110 o         1 SL1     -0.721500
      5 N2          4.8450   -0.9200   -0.3700 n         1 SL1     -0.365000
      6 C3          5.8040   -0.8830    0.6890 c3        1 SL1      0.062000
      7 C4          6.3830   -2.2700    1.0450 c         1 SL1      0.521100
      8 O3          7.2610   -2.8880    0.4790 o         1 SL1     -0.386100
      9 N3          5.7600   -2.9360    2.2810 ny        1 SL1     -0.692800
     10 C5          6.2730   -4.3060    2.5770 c3        1 SL1     -0.020500
     11 C6          5.2860   -5.1530    3.3920 c         1 SL1      0.611900
     12 O2          5.7190   -5.9100    4.2620 o         1 SL1     -0.575100
     13 C7          5.2420   -0.4400   -1.6590 ca        1 SL1     -0.008400
     14 C9          4.4990    0.5610   -2.3280 ca        1 SL1     -0.204900
     15 C8          3.2410    1.1210   -1.7760 ce        1 SL1      0.636500
     16 N4          2.2920    0.4030   -1.2430 n2        1 SL1     -0.682900
     17 C10         3.0890    2.5840   -1.8770 ca        1 SL1     -0.205900
     18 C11         4.2290    3.4020   -1.7990 ca        1 SL1     -0.085500
     19 C12         4.1030    4.7860   -1.8760 ca        1 SL1     -0.124500
     20 C13         2.8440    5.3700   -2.0370 ca        1 SL1     -0.060000
     21 C14         1.7090    4.5620   -2.1180 ca        1 SL1     -0.124500
     22 C15         1.8270    3.1760   -2.0340 ca        1 SL1     -0.085500
     23 C16         4.9370    1.0110   -3.5810 ca        1 SL1     -0.059000
     24 C17         6.0840    0.4830   -4.1720 ca        1 SL1     -0.088000
     25 C18         6.8160   -0.5020   -3.5090 ca        1 SL1     -0.071000
     26 C19         6.4050   -0.9620   -2.2590 ca        1 SL1     -0.150000
     27 C20         7.6800   -4.3480    3.1920 c3        1 SL1     -0.108400
     28 C21         7.7760   -3.9830    4.6620 c3        1 SL1     -0.114400
     29 C22         8.6850   -4.9170    5.4640 c3        1 SL1      0.112800
     30 N5          7.9950   -6.1900    5.8940 ny        1 SL1     -0.786000
     31 C23         8.8770   -7.0770    6.7460 c2        1 SL1      0.612100
     32 N6          8.1610   -8.2590    7.3490 nz        1 SL1     -0.820600
     33 N7         10.1130   -6.9630    7.0140 n2        1 SL1     -0.578100
     34 S          -0.4750   -1.2760   -2.5340 s4        1 SL1      1.587500
     35 O4         -1.0080   -2.4940   -2.2810 o         1 SL1     -0.411900
     36 O5          0.5160   -1.0910   -3.4390 o         1 SL1     -0.411900
     37 C24        -1.1980    0.0290   -1.8770 c3        1 SL1     -0.362800
     38 C25        -2.2480    0.4720   -2.8440 ca        1 SL1     -0.216300
     39 C26        -3.5660    0.0100   -2.7080 ca        1 SL1     -0.095500
     40 C27        -4.5510    0.4590   -3.5850 ca        1 SL1     -0.110500
     41 C28        -4.2340    1.3810   -4.5850 ca        1 SL1     -0.050000
     42 C29        -2.9260    1.8590   -4.7070 ca        1 SL1     -0.110500
     43 C30        -1.9360    1.4160   -3.8340 ca        1 SL1     -0.095500
     44 H1          0.7990   -1.2660    0.1030 hn        1 SL1      0.411300
     45 HA          2.7350   -1.5110   -2.1360 h2        1 SL1      0.123700
     46 H3C1        5.3370   -0.4310    1.6120 h1        1 SL1      0.130200
     47 H3C2        6.7010   -0.2620    0.3730 h1        1 SL1      0.130200
     48 H3          4.7340   -2.9720    2.0970 hn        1 SL1      0.480300
     49 H5          6.3550   -4.8350    1.5640 hx        1 SL1      0.165700
     50 H6          4.2070   -5.0900    3.1260 h4        1 SL1      0.091200
     51 H11         5.2260    2.9530   -1.6770 ha        1 SL1      0.128000
     52 H12         5.0000    5.4240   -1.8140 ha        1 SL1      0.164000
     53 H13         2.7480    6.4670   -2.1030 ha        1 SL1      0.173000
     54 H14         0.7160    5.0220   -2.2480 ha        1 SL1      0.164000
     55 H15         0.9220    2.5540   -2.1030 ha        1 SL1      0.128000
     56 H16         4.3600    1.7980   -4.1020 ha        1 SL1      0.184000
     57 H17         6.4110    0.8470   -5.1630 ha        1 SL1      0.188000
     58 H18         7.7250   -0.9210   -3.9740 ha        1 SL1      0.178000
     59 H19         7.0020   -1.7360   -1.7520 ha        1 SL1      0.138000
     60 H201        8.0420   -5.4020    3.0280 hc        1 SL1      0.101700
     61 H202        8.3690   -3.6890    2.5910 hc        1 SL1      0.101700
     62 H211        8.2450   -2.9600    4.7640 hc        1 SL1      0.103700
     63 H212        6.7600   -3.9180    5.1360 hc        1 SL1      0.103700
     64 H221        9.0210   -4.3780    6.4010 hx        1 SL1      0.132200
     65 H222        9.5850   -5.1960    4.8410 hx        1 SL1      0.132200
     66 HB          7.1390   -5.9290    6.4100 hn        1 SL1      0.488300
     67 H6N1        7.4340   -7.9470    8.0130 hn        1 SL1      0.517800
     68 H6N2        8.8500   -8.8420    7.8830 hn        1 SL1      0.517800
     69 H7         10.7330   -6.2390    6.7010 hn        1 SL1      0.547400
     70 H241       -0.5080    0.9070   -1.6740 h1        1 SL1      0.187700
     71 H242       -1.6970   -0.1490   -0.8770 h1        1 SL1      0.187700
     72 H26        -3.8320   -0.6980   -1.9070 ha        1 SL1      0.143500
     73 H27        -5.5870    0.0920   -3.4800 ha        1 SL1      0.175000
     74 H28        -5.0190    1.7400   -5.2740 ha        1 SL1      0.180000
     75 H29        -2.6800    2.5960   -5.4890 ha        1 SL1      0.175000
     76 H30        -0.9130    1.8160   -3.9190 ha        1 SL1      0.143500
     77 H121        1.2700   -2.6430   -0.6430 hn        1 SL1      0.411300
     78 H32         5.9180   -2.3230    3.0870 hn        1 SL1      0.480300
     79 H52         7.6920   -6.7000    5.0430 hn        1 SL1      0.488300
     80 H63         7.7450   -8.8540    6.6170 hn        1 SL1      0.517800
@<TRIPOS>BOND
     1    1    2 1   
     2    1   44 1   
     3    1   77 1   
     4    2    3 1   
     5    2   16 1   
     6    2   45 1   
     7    3    4 2   
     8    3    5 1   
     9    5    6 1   
    10    5   13 1   
    11    6    7 1   
    12    6   46 1   
    13    6   47 1   
    14    7    8 2   
    15    7    9 1   
    16    9   10 1   
    17    9   48 1   
    18    9   78 1   
    19   10   11 1   
    20   10   27 1   
    21   10   49 1   
    22   11   12 2   
    23   11   50 1   
    24   13   14 ar  
    25   13   26 ar  
    26   14   15 1   
    27   14   23 ar  
    28   15   16 2   
    29   15   17 1   
    30   17   18 ar  
    31   17   22 ar  
    32   18   19 ar  
    33   18   51 1   
    34   19   20 ar  
    35   19   52 1   
    36   20   21 ar  
    37   20   53 1   
    38   21   22 ar  
    39   21   54 1   
    40   22   55 1   
    41   23   24 ar  
    42   23   56 1   
    43   24   25 ar  
    44   24   57 1   
    45   25   26 ar  
    46   25   58 1   
    47   26   59 1   
    48   27   28 1   
    49   27   60 1   
    50   27   61 1   
    51   28   29 1   
    52   28   62 1   
    53   28   63 1   
    54   29   30 1   
    55   29   64 1   
    56   29   65 1   
    57   30   31 1   
    58   30   66 1   
    59   30   79 1   
    60   31   32 1   
    61   31   33 2   
    62   32   67 1   
    63   32   68 1   
    64   32   80 1   
    65   33   69 1   
    66   34   35 1   
    67   34   36 1   
    68   34   37 1   
    69   37   38 1   
    70   37   70 1   
    71   37   71 1   
    72   38   39 ar  
    73   38   43 ar  
    74   39   40 ar  
    75   39   72 1   
    76   40   41 ar  
    77   40   73 1   
    78   41   42 ar  
    79   41   74 1   
    80   42   43 ar  
    81   42   75 1   
    82   43   76 1   
@<TRIPOS>SUBSTRUCTURE
     1 SL1         1 TEMP              0 ****  ****    0 ROOT
