@<TRIPOS>MOLECULE
SL3
   63    67     1     0     0
SMALL
bcc


@<TRIPOS>ATOM
      1 N6         -2.9540    5.9630    2.7000 nh        1 SL3     -0.920500
      2 C6         -2.3340    4.7310    2.9670 ca        1 SL3      0.669200
      3 N1         -2.3970    4.1730    4.2160 nb        1 SL3     -0.807000
      4 C2         -1.6850    3.0270    4.4180 ca        1 SL3      0.622900
      5 N3         -0.9210    2.3110    3.5680 nb        1 SL3     -0.709000
      6 C4         -0.8740    2.8450    2.3080 ca        1 SL3      0.421800
      7 C5         -1.5760    4.0850    1.9470 ca        1 SL3     -0.190200
      8 N7         -1.3560    4.3760    0.5960 nc        1 SL3     -0.605100
      9 C8         -0.5730    3.3760    0.1420 cd        1 SL3      0.485700
     10 N9         -0.2560    2.4170    1.1310 na        1 SL3     -0.253000
     11 C1'         0.6060    1.2410    0.9800 c3        1 SL3      0.250800
     12 C2'        -0.0020    0.1200    0.1190 c3        1 SL3     -0.141400
     13 O4'         1.8310    1.6330    0.3730 os        1 SL3     -0.449600
     14 C4'         1.9210    1.1320   -0.9860 c3        1 SL3      0.080100
     15 C5'         2.2010    2.3000   -1.9360 c3        1 SL3      0.189400
     16 O5'         1.0670    2.8270   -2.5350 os        1 SL3     -0.595200
     17 PA          1.1550    3.0460   -4.2050 p5        1 SL3      1.597800
     18 O2A         0.1540    4.0930   -4.4840 o         1 SL3     -0.887000
     19 O1A         2.5930    3.2730   -4.4800 o         1 SL3     -0.887000
     20 O3A         0.7030    1.5850   -4.7090 os        1 SL3     -0.819800
     21 PB          0.1040    0.1170   -5.1590 p5        1 SL3      1.662800
     22 O2B        -0.1190   -0.5040   -3.6690 os        1 SL3     -0.708200
     23 O1B         1.1410   -0.6690   -5.8820 o         1 SL3     -0.906500
     24 O3B        -1.2040    0.3130   -5.8120 o         1 SL3     -0.906500
     25 C3'         0.6590    0.2780   -1.2690 c3        1 SL3      0.199100
     26 O3'         1.0770   -0.9430   -1.7780 os        1 SL3     -0.553600
     27 C1          0.2620   -1.5800   -2.8680 c3        1 SL3      0.850300
     28 OC         -0.7580   -2.1510   -2.3220 o         1 SL3     -0.845500
     29 CA          1.3050   -2.4940   -3.5240 c2        1 SL3     -0.095400
     30 CB          2.6390   -2.3400   -3.5690 c2        1 SL3     -0.219200
     31 CC          3.2620   -3.2590   -4.6070 c3        1 SL3      0.154400
     32 CC1         4.2110   -4.2620   -3.9550 c3        1 SL3     -0.077100
     33 CC2         4.0530   -2.3830   -5.5800 c3        1 SL3     -0.077100
     34 ND          2.0980   -4.0030   -5.2690 n3        1 SL3     -0.436100
     35 OR          1.9090   -3.5950   -6.5150 oh        1 SL3     -0.462300
     36 CE          0.8910   -3.6910   -4.3800 c3        1 SL3      0.171400
     37 CE2         0.6100   -4.8710   -3.4430 c3        1 SL3     -0.085600
     38 CE1        -0.3870   -3.3960   -5.1560 c3        1 SL3     -0.085600
     39 H61        -3.7680    6.1480    3.2420 hn        1 SL3      0.395300
     40 H62        -3.0760    6.1300    1.7240 hn        1 SL3      0.395300
     41 H2         -1.7540    2.6210    5.4470 h5        1 SL3      0.017100
     42 H8         -0.1770    3.2640   -0.9010 h5        1 SL3      0.171800
     43 H1'         0.8670    0.9010    2.0250 h2        1 SL3      0.060700
     44 H21'       -1.1100    0.1730    0.0310 hc        1 SL3      0.065200
     45 H22'        0.2710   -0.8690    0.5600 hc        1 SL3      0.065200
     46 H4'         2.8280    0.4640   -0.9720 h1        1 SL3      0.049700
     47 H51'        2.9240    1.9420   -2.7250 h1        1 SL3      0.026200
     48 H52'        2.7030    3.1100   -1.3250 h1        1 SL3      0.026200
     49 H3'        -0.0510    0.8180   -1.9470 h1        1 SL3      0.106700
     50 HCB         3.2340   -1.5880   -3.0550 ha        1 SL3      0.141000
     51 H1CC        5.0030   -3.7050   -3.3990 hc        1 SL3      0.026033
     52 H2CC        3.6670   -4.9180   -3.2350 hc        1 SL3      0.026033
     53 H3CC        4.6990   -4.9040   -4.7270 hc        1 SL3      0.026033
     54 H4CC        3.3990   -1.5360   -5.9260 hc        1 SL3      0.026033
     55 H5CC        4.9440   -1.9610   -5.0570 hc        1 SL3      0.026033
     56 H6CC        4.3950   -2.9750   -6.4610 hc        1 SL3      0.026033
     57 HOR         1.6630   -2.6340   -6.5340 ho        1 SL3      0.457000
     58 H4CE        0.2000   -5.7370   -4.0150 hc        1 SL3      0.038700
     59 H5CE        1.5320   -5.1990   -2.9080 hc        1 SL3      0.038700
     60 H6CE       -0.1420   -4.5190   -2.6910 hc        1 SL3      0.038700
     61 H1CE       -0.6200   -4.2190   -5.8700 hc        1 SL3      0.038700
     62 H2CE       -1.2180   -3.2680   -4.4170 hc        1 SL3      0.038700
     63 H3CE       -0.2830   -2.4260   -5.7150 hc        1 SL3      0.038700
@<TRIPOS>BOND
     1    1    2 1   
     2    1   39 1   
     3    1   40 1   
     4    2    3 ar  
     5    2    7 ar  
     6    3    4 ar  
     7    4    5 ar  
     8    4   41 1   
     9    5    6 ar  
    10    6    7 ar  
    11    6   10 1   
    12    7    8 1   
    13    8    9 2   
    14    9   10 1   
    15    9   42 1   
    16   10   11 1   
    17   11   12 1   
    18   11   13 1   
    19   11   43 1   
    20   12   25 1   
    21   12   44 1   
    22   12   45 1   
    23   13   14 1   
    24   14   15 1   
    25   14   25 1   
    26   14   46 1   
    27   15   16 1   
    28   15   47 1   
    29   15   48 1   
    30   16   17 1   
    31   17   18 1   
    32   17   19 1   
    33   17   20 1   
    34   20   21 1   
    35   21   22 1   
    36   21   23 1   
    37   21   24 1   
    38   22   27 1   
    39   25   26 1   
    40   25   49 1   
    41   26   27 1   
    42   27   28 1   
    43   27   29 1   
    44   29   30 2   
    45   29   36 1   
    46   30   31 1   
    47   30   50 1   
    48   31   32 1   
    49   31   33 1   
    50   31   34 1   
    51   32   51 1   
    52   32   52 1   
    53   32   53 1   
    54   33   54 1   
    55   33   55 1   
    56   33   56 1   
    57   34   35 1   
    58   34   36 1   
    59   35   57 1   
    60   36   37 1   
    61   36   38 1   
    62   37   58 1   
    63   37   59 1   
    64   37   60 1   
    65   38   61 1   
    66   38   62 1   
    67   38   63 1   
@<TRIPOS>SUBSTRUCTURE
     1 SL3         1 TEMP              0 ****  ****    0 ROOT
