@<TRIPOS>MOLECULE
SL3
   63    67     1     0     0
SMALL
bcc


@<TRIPOS>ATOM
      1 N6          0.0080    1.4870   -0.0160 nv        1 SL3     -0.920500
      2 C6          1.3530    1.0990    0.1100 ca        1 SL3      0.667200
      3 N1          1.9840    1.1580    1.3240 nb        1 SL3     -0.807000
      4 C2          3.3160    0.8600    1.3420 ca        1 SL3      0.621900
      5 N3          4.1420    0.4840    0.3450 nb        1 SL3     -0.708000
      6 C4          3.5140    0.3950   -0.8690 ca        1 SL3      0.421800
      7 C5          2.0860    0.7020   -1.0450 ca        1 SL3     -0.190200
      8 N7          1.7240    0.5080   -2.3830 nc        1 SL3     -0.609100
      9 C8          2.8530    0.1010   -2.9990 cd        1 SL3      0.484700
     10 N9          3.9660    0.0070   -2.1320 na        1 SL3     -0.252000
     11 C1'         5.3380   -0.3700   -2.4880 c3        1 SL3      0.249800
     12 C2'         5.4990   -1.8450   -2.8930 c3        1 SL3     -0.135400
     13 O4'         5.7830    0.4280   -3.5750 os        1 SL3     -0.449600
     14 C4'         5.8890   -0.3590   -4.7930 c3        1 SL3      0.084100
     15 C5'         5.0020    0.2770   -5.8700 c3        1 SL3      0.190400
     16 O5'         3.7570   -0.3220   -5.9980 os        1 SL3     -0.597200
     17 PA          3.3200   -0.7310   -7.5730 p5        1 SL3      1.598800
     18 O2A         1.9160   -1.1770   -7.4690 o         1 SL3     -0.888000
     19 O1A         3.6870    0.4560   -8.3780 o         1 SL3     -0.888000
     20 O3A         4.3660   -1.9270   -7.8320 os        1 SL3     -0.820800
     21 PB          5.4510   -3.1510   -8.0340 p5        1 SL3      1.654800
     22 O2B         5.5150   -3.6990   -6.4950 os        1 SL3     -0.708200
     23 O1B         6.7440   -2.5680   -8.4500 o         1 SL3     -0.900500
     24 O3B         4.8520   -4.2400   -8.8360 o         1 SL3     -0.900500
     25 C3'         5.6170   -1.8380   -4.4330 c3        1 SL3      0.192100
     26 O3'         6.7040   -2.6040   -4.8520 os        1 SL3     -0.549600
     27 C1          6.3410   -3.9470   -5.4110 c3        1 SL3      0.852300
     28 OC          5.7010   -4.5900   -4.4870 o         1 SL3     -0.848500
     29 CA          7.7170   -4.5340   -5.7850 c2        1 SL3     -0.060400
     30 CB          8.9170   -3.9380   -5.6940 c2        1 SL3     -0.237200
     31 CC         10.0480   -4.8790   -6.0670 c3        1 SL3      0.159400
     32 CC1        11.0710   -4.9510   -4.9320 c3        1 SL3     -0.077100
     33 CC2        10.7470   -4.3390   -7.3160 c3        1 SL3     -0.077100
     34 ND          9.3980   -6.2410   -6.2520 n3        1 SL3     -0.460100
     35 OR          9.8280   -6.8810   -7.3240 oh        1 SL3     -0.421300
     36 CE          7.8850   -5.9920   -6.2240 c3        1 SL3      0.176400
     37 CE2         7.2500   -6.9270   -5.1950 c3        1 SL3     -0.094100
     38 CE1         7.1960   -6.2020   -7.5700 c3        1 SL3     -0.094100
     39 H61        -0.5490    1.3400    0.7960 hn        1 SL3      0.394300
     40 H62        -0.4130    1.1500   -0.8560 hn        1 SL3      0.394300
     41 H2          3.7870    0.9340    2.3430 h5        1 SL3      0.017100
     42 H8          2.9630   -0.1490   -4.0860 h5        1 SL3      0.171800
     43 H1'         5.9820   -0.0850   -1.6050 h2        1 SL3      0.061700
     44 H21'        6.4390   -2.2470   -2.4430 hc        1 SL3      0.066200
     45 H22'        4.6540   -2.4970   -2.5760 hc        1 SL3      0.066200
     46 H4'         6.9660   -0.2380   -5.1010 h1        1 SL3      0.062700
     47 H51'        4.8590    1.3630   -5.5820 h1        1 SL3      0.027200
     48 H52'        5.5530    0.2340   -6.8520 h1        1 SL3      0.027200
     49 H3'         4.6540   -2.2070   -4.8770 h1        1 SL3      0.111700
     50 HCB         9.1170   -2.9030   -5.4270 ha        1 SL3      0.149000
     51 H1CC       10.5910   -5.3240   -3.9960 hc        1 SL3      0.023367
     52 H2CC       11.9150   -5.6290   -5.2010 hc        1 SL3      0.023367
     53 H3CC       11.4750   -3.9280   -4.7420 hc        1 SL3      0.023367
     54 H4CC       11.2130   -3.3550   -7.0750 hc        1 SL3      0.023367
     55 H5CC       10.0020   -4.1800   -8.1340 hc        1 SL3      0.023367
     56 H6CC       11.5410   -5.0400   -7.6670 hc        1 SL3      0.023367
     57 HOR         9.5680   -6.4170   -8.1480 ho        1 SL3      0.366000
     58 H4CE        7.2920   -7.9860   -5.5450 hc        1 SL3      0.047367
     59 H5CE        7.7690   -6.8510   -4.2110 hc        1 SL3      0.047367
     60 H6CE        6.1860   -6.5960   -5.0550 hc        1 SL3      0.047367
     61 H1CE        6.1770   -5.7150   -7.5390 hc        1 SL3      0.047367
     62 H2CE        7.0930   -7.2890   -7.7950 hc        1 SL3      0.047367
     63 H3CE        7.7540   -5.7130   -8.4050 hc        1 SL3      0.047367
@<TRIPOS>BOND
     1    1    2 1   
     2    1   39 1   
     3    1   40 1   
     4    2    3 ar  
     5    2    7 ar  
     6    3    4 ar  
     7    4    5 ar  
     8    4   41 1   
     9    5    6 ar  
    10    6    7 ar  
    11    6   10 1   
    12    7    8 1   
    13    8    9 2   
    14    9   10 1   
    15    9   42 1   
    16   10   11 1   
    17   11   12 1   
    18   11   13 1   
    19   11   43 1   
    20   12   25 1   
    21   12   44 1   
    22   12   45 1   
    23   13   14 1   
    24   14   15 1   
    25   14   25 1   
    26   14   46 1   
    27   15   16 1   
    28   15   47 1   
    29   15   48 1   
    30   16   17 1   
    31   17   18 1   
    32   17   19 1   
    33   17   20 1   
    34   20   21 1   
    35   21   22 1   
    36   21   23 1   
    37   21   24 1   
    38   22   27 1   
    39   25   26 1   
    40   25   49 1   
    41   26   27 1   
    42   27   28 1   
    43   27   29 1   
    44   29   30 2   
    45   29   36 1   
    46   30   31 1   
    47   30   50 1   
    48   31   32 1   
    49   31   33 1   
    50   31   34 1   
    51   32   51 1   
    52   32   52 1   
    53   32   53 1   
    54   33   54 1   
    55   33   55 1   
    56   33   56 1   
    57   34   35 1   
    58   34   36 1   
    59   35   57 1   
    60   36   37 1   
    61   36   38 1   
    62   37   58 1   
    63   37   59 1   
    64   37   60 1   
    65   38   61 1   
    66   38   62 1   
    67   38   63 1   
@<TRIPOS>SUBSTRUCTURE
     1 SL3         1 TEMP              0 ****  ****    0 ROOT
