@<TRIPOS>MOLECULE
SL3
   63    67     1     0     0
SMALL
bcc


@<TRIPOS>ATOM
      1 N6          0.2400    1.6210    0.2240 nh        1 SL3     -0.920500
      2 C6          1.5910    1.2410    0.2500 ca        1 SL3      0.668200
      3 N1          2.3260    1.3530    1.4010 nb        1 SL3     -0.807000
      4 C2          3.6550    1.0580    1.3150 ca        1 SL3      0.621900
      5 N3          4.3940    0.6400    0.2670 nb        1 SL3     -0.709000
      6 C4          3.6630    0.4980   -0.8820 ca        1 SL3      0.420800
      7 C5          2.2240    0.7930   -0.9460 ca        1 SL3     -0.191200
      8 N7          1.7470    0.5380   -2.2370 nc        1 SL3     -0.610100
      9 C8          2.8210    0.1070   -2.9310 cd        1 SL3      0.482700
     10 N9          4.0060    0.0570   -2.1630 na        1 SL3     -0.253000
     11 C1'         5.3440   -0.3370   -2.6180 c3        1 SL3      0.252800
     12 C2'         5.4650   -1.8270   -2.9850 c3        1 SL3     -0.132400
     13 O4'         5.7090    0.4250   -3.7570 os        1 SL3     -0.448600
     14 C4'         5.7210   -0.3980   -4.9570 c3        1 SL3      0.083100
     15 C5'         4.6770    0.1520   -5.9380 c3        1 SL3      0.190400
     16 O5'         3.4840   -0.5550   -5.9380 os        1 SL3     -0.598200
     17 PA          2.9090   -0.9940   -7.4620 p5        1 SL3      1.598800
     18 O2A         1.5820   -1.5900   -7.2050 o         1 SL3     -0.888500
     19 O1A         3.0410    0.2480   -8.2580 o         1 SL3     -0.888500
     20 O3A         4.0270   -2.0710   -7.8820 os        1 SL3     -0.822800
     21 PB          5.2420   -3.0940   -8.3360 p5        1 SL3      1.660800
     22 O2B         6.1570   -3.0960   -6.9850 os        1 SL3     -0.715200
     23 O1B         6.0600   -2.3980   -9.3530 o         1 SL3     -0.895500
     24 O3B         4.7190   -4.4430   -8.6420 o         1 SL3     -0.895500
     25 C3'         5.5690   -1.8740   -4.5260 c3        1 SL3      0.189100
     26 O3'         6.7040   -2.5980   -4.8950 os        1 SL3     -0.541600
     27 C1          6.4120   -3.7640   -5.7960 c3        1 SL3      0.847300
     28 OC          5.4750   -4.4610   -5.2440 o         1 SL3     -0.845500
     29 CA          7.7910   -4.4460   -5.9130 c2        1 SL3     -0.028400
     30 CB          8.9960   -3.9510   -5.5850 c2        1 SL3     -0.265200
     31 CC         10.1110   -4.9530   -5.8260 c3        1 SL3      0.192400
     32 CC1        10.8770   -5.2040   -4.5230 c3        1 SL3     -0.068100
     33 CC2        11.0890   -4.3830   -6.8550 c3        1 SL3     -0.068100
     34 ND          9.4220   -6.2340   -6.2560 n3        1 SL3     -0.484100
     35 OR          9.9850   -6.6670   -7.4010 oh        1 SL3     -0.444300
     36 CE          7.9380   -5.8800   -6.4250 c3        1 SL3      0.159400
     37 CE2         7.1120   -6.8350   -5.5630 c3        1 SL3     -0.099600
     38 CE1         7.4360   -5.9610   -7.8640 c3        1 SL3     -0.099600
     39 H61        -0.2520    1.2500   -0.5600 hn        1 SL3      0.394800
     40 H62        -0.2440    1.5130    1.0870 hn        1 SL3      0.394800
     41 H2          4.2120    1.1760    2.2670 h5        1 SL3      0.017100
     42 H8          2.8350   -0.1960   -4.0110 h5        1 SL3      0.173800
     43 H1'         6.0560   -0.0330   -1.7950 h2        1 SL3      0.062700
     44 H21'        4.6010   -2.4390   -2.6390 hc        1 SL3      0.057700
     45 H22'        6.3970   -2.2380   -2.5270 hc        1 SL3      0.057700
     46 H4'         6.7470   -0.2330   -5.3880 h1        1 SL3      0.069700
     47 H51'        5.1260    0.1530   -6.9720 h1        1 SL3      0.026200
     48 H52'        4.4700    1.2230   -5.6350 h1        1 SL3      0.026200
     49 H3'         4.6360   -2.3320   -4.9540 h1        1 SL3      0.118700
     50 HCB         9.2150   -2.9570   -5.2010 ha        1 SL3      0.143000
     51 H1CC       11.7050   -5.9360   -4.6810 hc        1 SL3      0.020033
     52 H2CC       10.1920   -5.5970   -3.7350 hc        1 SL3      0.020033
     53 H3CC       11.3110   -4.2390   -4.1690 hc        1 SL3      0.020033
     54 H4CC       11.9320   -5.0910   -7.0360 hc        1 SL3      0.020033
     55 H5CC       11.4970   -3.4170   -6.4760 hc        1 SL3      0.020033
     56 H6CC       10.5590   -4.1980   -7.8200 hc        1 SL3      0.020033
     57 HOR         9.4660   -7.4510   -7.6520 ho        1 SL3      0.396000
     58 H4CE        6.0510   -6.4630   -5.5800 hc        1 SL3      0.048700
     59 H5CE        7.4690   -6.8380   -4.5060 hc        1 SL3      0.048700
     60 H6CE        7.1670   -7.8750   -5.9640 hc        1 SL3      0.048700
     61 H1CE        8.1240   -5.4220   -8.5580 hc        1 SL3      0.048700
     62 H2CE        7.3490   -7.0230   -8.1930 hc        1 SL3      0.048700
     63 H3CE        6.4180   -5.4680   -7.9230 hc        1 SL3      0.048700
@<TRIPOS>BOND
     1    1    2 1   
     2    1   39 1   
     3    1   40 1   
     4    2    3 ar  
     5    2    7 ar  
     6    3    4 ar  
     7    4    5 ar  
     8    4   41 1   
     9    5    6 ar  
    10    6    7 ar  
    11    6   10 1   
    12    7    8 1   
    13    8    9 2   
    14    9   10 1   
    15    9   42 1   
    16   10   11 1   
    17   11   12 1   
    18   11   13 1   
    19   11   43 1   
    20   12   25 1   
    21   12   44 1   
    22   12   45 1   
    23   13   14 1   
    24   14   15 1   
    25   14   25 1   
    26   14   46 1   
    27   15   16 1   
    28   15   47 1   
    29   15   48 1   
    30   16   17 1   
    31   17   18 1   
    32   17   19 1   
    33   17   20 1   
    34   20   21 1   
    35   21   22 1   
    36   21   23 1   
    37   21   24 1   
    38   22   27 1   
    39   25   26 1   
    40   25   49 1   
    41   26   27 1   
    42   27   28 1   
    43   27   29 1   
    44   29   30 2   
    45   29   36 1   
    46   30   31 1   
    47   30   50 1   
    48   31   32 1   
    49   31   33 1   
    50   31   34 1   
    51   32   51 1   
    52   32   52 1   
    53   32   53 1   
    54   33   54 1   
    55   33   55 1   
    56   33   56 1   
    57   34   35 1   
    58   34   36 1   
    59   35   57 1   
    60   36   37 1   
    61   36   38 1   
    62   37   58 1   
    63   37   59 1   
    64   37   60 1   
    65   38   61 1   
    66   38   62 1   
    67   38   63 1   
@<TRIPOS>SUBSTRUCTURE
     1 SL3         1 TEMP              0 ****  ****    0 ROOT
