@<TRIPOS>MOLECULE
SL5
   28    27     1     0     0
SMALL
bcc


@<TRIPOS>ATOM
      1 C           3.4690    1.5430   -1.6070 c1        1 SL5      0.827000
      2 N           1.3040    1.5110   -0.2970 nh        1 SL5     -0.351100
      3 O           4.7260    1.4640   -1.6710 o         1 SL5     -0.798500
      4 C5          0.3210    0.5510   -0.9190 c3        1 SL5      0.191800
      5 C6         -0.5090   -0.1820    0.2060 c3        1 SL5      0.081400
      6 O7         -1.9000    0.0870    0.0200 os        1 SL5     -0.421600
      7 C8         -2.7600   -0.5700    0.9690 c3        1 SL5      0.131400
      8 C9         -4.2650   -0.2780    0.6000 c3        1 SL5      0.123400
      9 CA          2.7130    0.8590   -0.4570 c2        1 SL5      0.126200
     10 CB          2.4040   -0.3200   -0.7970 c3        1 SL5      0.050800
     11 O10        -5.1030   -0.8710    1.5530 oh        1 SL5     -0.609800
     12 OG1         0.9870   -0.2500   -1.5300 os        1 SL5     -0.455600
     13 CG2         2.2950   -1.2150    0.4480 c3        1 SL5     -0.095100
     14 OXT         2.8490    2.2490   -2.4220 o         1 SL5     -0.798500
     15 HN          1.1120    1.6120    0.5940 hn        1 SL5      0.209700
     16 H5         -0.2760    1.0260   -1.5250 h2        1 SL5      0.069700
     17 H6         -0.2210    0.1520    1.0990 h1        1 SL5      0.030200
     18 H6A        -0.3470   -1.1730    0.1500 h1        1 SL5      0.030200
     19 H8         -2.5710   -0.2300    1.8770 h1        1 SL5      0.033200
     20 H8A        -2.5970   -1.5460    0.9420 h1        1 SL5      0.033200
     21 H9A        -4.4180    0.6980    0.5890 h1        1 SL5      0.037200
     22 H9B        -4.4600   -0.6480   -0.2830 h1        1 SL5      0.037200
     23 HA          3.3420    0.9660    0.2720 h4        1 SL5     -0.073200
     24 HB          3.0630   -0.6710   -1.3930 h1        1 SL5      0.107700
     25 HO10       -5.9750   -0.5980    1.4110 ho        1 SL5      0.397000
     26 HG2         3.1840   -1.5380    0.6970 hc        1 SL5      0.028700
     27 HG2A        1.8990   -0.6780    1.2190 hc        1 SL5      0.028700
     28 HG2B        1.7360   -1.9500    0.2580 hc        1 SL5      0.028700
@<TRIPOS>BOND
     1    1    3 2   
     2    1   14 2   
     3    2    4 1   
     4    2    9 2   
     5    2   15 1   
     6    4    5 1   
     7    4   12 1   
     8    4   16 1   
     9    5    6 1   
    10    5   17 1   
    11    5   18 1   
    12    6    7 1   
    13    7    8 1   
    14    7   19 1   
    15    7   20 1   
    16    8   11 1   
    17    8   21 1   
    18    8   22 1   
    19    9   10 1   
    20    9   23 1   
    21   10   12 1   
    22   10   13 1   
    23   10   24 1   
    24   11   25 1   
    25   13   26 1   
    26   13   27 1   
    27   13   28 1   
@<TRIPOS>SUBSTRUCTURE
     1 SL5         1 TEMP              0 ****  ****    0 ROOT
