@<TRIPOS>MOLECULE
SL5
   28    28     1     0     0
SMALL
bcc


@<TRIPOS>ATOM
      1 C          -2.9220    0.8400   -0.3830 c         1 SL5      0.909600
      2 N          -0.7180    0.9790    0.8970 n3        1 SL5     -0.804200
      3 O          -3.4620    1.4160    0.6020 o         1 SL5     -0.832800
      4 C5         -0.1580   -0.1490    1.6450 c3        1 SL5      0.366300
      5 C6          1.3870   -0.1630    1.6860 c3        1 SL5      0.126400
      6 O7          1.8890   -0.2850    0.3610 os        1 SL5     -0.400600
      7 C8          3.3110   -0.2810    0.3180 c3        1 SL5      0.084400
      8 C9          3.6790   -0.2940   -1.1630 c3        1 SL5      0.136400
      9 CA         -1.4210    0.4220   -0.2640 c3        1 SL5      0.007500
     10 CB         -1.3150   -1.1210   -0.1540 c3        1 SL5      0.143100
     11 O10         3.3150    0.9120   -1.8000 oh        1 SL5     -0.614800
     12 OG1        -0.6150   -1.3920    1.0800 os        1 SL5     -0.453600
     13 CG2        -0.5540   -1.7370   -1.3060 c3        1 SL5     -0.101100
     14 OXT        -3.4990    0.5640   -1.4680 o         1 SL5     -0.832800
     15 HN         -1.3880    1.4700    1.4710 hn        1 SL5      0.384800
     16 H5         -0.4930   -0.1610    2.7250 h2        1 SL5      0.034700
     17 H6          1.7660    0.7840    2.1520 h1        1 SL5      0.019700
     18 H6A         1.7240   -1.0460    2.2910 h1        1 SL5      0.019700
     19 H8          3.7110    0.6400    0.8180 h1        1 SL5      0.025700
     20 H8A         3.7130   -1.1910    0.8340 h1        1 SL5      0.025700
     21 H9A         4.7910   -0.3690   -1.2830 h1        1 SL5      0.042700
     22 H9B         3.1760   -1.1610   -1.6710 h1        1 SL5      0.042700
     23 HA         -0.8870    0.7800   -1.1850 h1        1 SL5      0.062700
     24 HB         -2.3280   -1.5910   -0.0440 h1        1 SL5      0.071700
     25 HO10        2.3770    1.0580   -1.6120 ho        1 SL5      0.431000
     26 HG2         0.4880   -1.3350   -1.3380 hc        1 SL5      0.034700
     27 HG2A       -0.5020   -2.8460   -1.1880 hc        1 SL5      0.034700
     28 HG2B       -1.0770   -1.4940   -2.2620 hc        1 SL5      0.034700
@<TRIPOS>BOND
     1    1    3 1   
     2    1    9 1   
     3    1   14 1   
     4    2    4 1   
     5    2    9 1   
     6    2   15 1   
     7    4    5 1   
     8    4   12 1   
     9    4   16 1   
    10    5    6 1   
    11    5   17 1   
    12    5   18 1   
    13    6    7 1   
    14    7    8 1   
    15    7   19 1   
    16    7   20 1   
    17    8   11 1   
    18    8   21 1   
    19    8   22 1   
    20    9   10 1   
    21    9   23 1   
    22   10   12 1   
    23   10   13 1   
    24   10   24 1   
    25   11   25 1   
    26   13   26 1   
    27   13   27 1   
    28   13   28 1   
@<TRIPOS>SUBSTRUCTURE
     1 SL5         1 TEMP              0 ****  ****    0 ROOT
