@<TRIPOS>MOLECULE
SL5
   28    28     1     0     0
SMALL
bcc


@<TRIPOS>ATOM
      1 C          -0.2010   -0.0960   -0.0830 c         1 SL5      0.909600
      2 N           0.5680   -0.0010    2.3490 n3        1 SL5     -0.804200
      3 O           1.0190   -0.1270   -0.4060 o         1 SL5     -0.832800
      4 C5          0.6250    1.2430    3.1200 c3        1 SL5      0.366300
      5 C6          0.3620    1.0520    4.6300 c3        1 SL5      0.126400
      6 O7         -0.9510    0.5380    4.8160 os        1 SL5     -0.400600
      7 C8         -1.2560    0.3150    6.1870 c3        1 SL5      0.084400
      8 C9         -2.6330   -0.3420    6.2010 c3        1 SL5      0.136400
      9 CA         -0.5640    0.1160    1.4220 c3        1 SL5      0.007500
     10 CB         -1.1630    1.5310    1.6230 c3        1 SL5      0.143100
     11 O10        -2.5960   -1.6400    5.6450 oh        1 SL5     -0.614800
     12 OG1        -0.3290    2.1880    2.6020 os        1 SL5     -0.453600
     13 CG2        -2.5890    1.4970    2.1220 c3        1 SL5     -0.101100
     14 OXT        -1.1670   -0.2180   -0.8820 o         1 SL5     -0.832800
     15 HN          1.4140   -0.1080    1.8090 hn        1 SL5      0.384800
     16 H5          1.6330    1.7520    3.0450 h2        1 SL5      0.034700
     17 H6          0.4440    2.0500    5.1390 h1        1 SL5      0.019700
     18 H6A         1.1150    0.3430    5.0640 h1        1 SL5      0.019700
     19 H8         -0.4890   -0.3610    6.6500 h1        1 SL5      0.025700
     20 H8A        -1.2760    1.2900    6.7400 h1        1 SL5      0.025700
     21 H9A        -3.3630    0.2960    5.6350 h1        1 SL5      0.042700
     22 H9B        -2.9820   -0.4830    7.2580 h1        1 SL5      0.042700
     23 HA         -1.3180   -0.6660    1.7110 h1        1 SL5      0.062700
     24 HB         -1.0790    2.1430    0.6860 h1        1 SL5      0.071700
     25 HO10       -2.1890   -1.5580    4.7690 ho        1 SL5      0.431000
     26 HG2        -2.6390    0.9740    3.1090 hc        1 SL5      0.034700
     27 HG2A       -3.2240    0.9540    1.3820 hc        1 SL5      0.034700
     28 HG2B       -2.9800    2.5340    2.2520 hc        1 SL5      0.034700
@<TRIPOS>BOND
     1    1    3 1   
     2    1    9 1   
     3    1   14 1   
     4    2    4 1   
     5    2    9 1   
     6    2   15 1   
     7    4    5 1   
     8    4   12 1   
     9    4   16 1   
    10    5    6 1   
    11    5   17 1   
    12    5   18 1   
    13    6    7 1   
    14    7    8 1   
    15    7   19 1   
    16    7   20 1   
    17    8   11 1   
    18    8   21 1   
    19    8   22 1   
    20    9   10 1   
    21    9   23 1   
    22   10   12 1   
    23   10   13 1   
    24   10   24 1   
    25   11   25 1   
    26   13   26 1   
    27   13   27 1   
    28   13   28 1   
@<TRIPOS>SUBSTRUCTURE
     1 SL5         1 TEMP              0 ****  ****    0 ROOT
