@<TRIPOS>MOLECULE
SL5
   28    28     1     0     0
SMALL
bcc


@<TRIPOS>ATOM
      1 C          -0.1310    0.0340   -0.1700 c         1 SL5      0.936600
      2 N           0.0060   -0.2290    2.3380 n3        1 SL5     -0.766200
      3 O           0.6140    0.9460   -0.6170 o         1 SL5     -0.830300
      4 C5          0.3740    0.9520    3.1200 c3        1 SL5      0.357300
      5 C6          0.3060    0.8300    4.6520 c3        1 SL5      0.110400
      6 O7         -0.9120    0.1840    5.0180 os        1 SL5     -0.426600
      7 C8         -1.1320    0.2070    6.4240 c3        1 SL5      0.090400
      8 C9         -2.4280   -0.5620    6.6620 c3        1 SL5      0.133400
      9 CA         -0.8220    0.2490    1.2210 c3        1 SL5      0.007500
     10 CB         -1.1000    1.7520    1.4850 c3        1 SL5      0.119100
     11 O10        -2.2840   -1.9340    6.3590 oh        1 SL5     -0.610800
     12 OG1        -0.4490    2.0750    2.7330 os        1 SL5     -0.463600
     13 CG2        -2.5710    2.0730    1.6150 c3        1 SL5     -0.095100
     14 OXT        -0.4200   -1.0350   -0.7700 o         1 SL5     -0.830300
     15 HN         -0.5310   -0.8610    2.9050 hn        1 SL5      0.338800
     16 H5          1.4380    1.2260    2.8500 h2        1 SL5      0.069700
     17 H6          1.1690    0.2160    5.0250 h1        1 SL5      0.031700
     18 H6A         0.3440    1.8570    5.1010 h1        1 SL5      0.031700
     19 H8         -0.2740   -0.2860    6.9520 h1        1 SL5      0.030200
     20 H8A        -1.2330    1.2660    6.7790 h1        1 SL5      0.030200
     21 H9A        -2.6980   -0.5290    7.7500 h1        1 SL5      0.046200
     22 H9B        -3.2550   -0.1180    6.0460 h1        1 SL5      0.046200
     23 HA         -1.7920   -0.3210    1.1880 h1        1 SL5      0.038700
     24 HB         -0.6070    2.3790    0.6920 h1        1 SL5      0.097700
     25 HO10       -1.9590   -1.9870    5.4490 ho        1 SL5      0.422000
     26 HG2        -3.0820    1.8500    0.6480 hc        1 SL5      0.028033
     27 HG2A       -2.7100    3.1530    1.8600 hc        1 SL5      0.028033
     28 HG2B       -3.0410    1.4660    2.4240 hc        1 SL5      0.028033
@<TRIPOS>BOND
     1    1    3 1   
     2    1    9 1   
     3    1   14 1   
     4    2    4 1   
     5    2    9 1   
     6    2   15 1   
     7    4    5 1   
     8    4   12 1   
     9    4   16 1   
    10    5    6 1   
    11    5   17 1   
    12    5   18 1   
    13    6    7 1   
    14    7    8 1   
    15    7   19 1   
    16    7   20 1   
    17    8   11 1   
    18    8   21 1   
    19    8   22 1   
    20    9   10 1   
    21    9   23 1   
    22   10   12 1   
    23   10   13 1   
    24   10   24 1   
    25   11   25 1   
    26   13   26 1   
    27   13   27 1   
    28   13   28 1   
@<TRIPOS>SUBSTRUCTURE
     1 SL5         1 TEMP              0 ****  ****    0 ROOT
