@<TRIPOS>MOLECULE
SL5
   28    28     1     0     0
SMALL
bcc


@<TRIPOS>ATOM
      1 C          -0.1280    0.0010   -0.1640 c         1 SL5      0.936600
      2 N           0.0020   -0.2450    2.3450 n7        1 SL5     -0.766200
      3 O           0.6260    0.9030   -0.6170 o         1 SL5     -0.830300
      4 C5          0.3780    0.9390    3.1200 c3        1 SL5      0.357300
      5 C6          0.3060    0.8280    4.6530 c3        1 SL5      0.110400
      6 O7         -0.9180    0.1940    5.0210 os        1 SL5     -0.426600
      7 C8         -1.1430    0.2310    6.4250 c3        1 SL5      0.090400
      8 C9         -2.4430   -0.5290    6.6660 c3        1 SL5      0.133400
      9 CA         -0.8200    0.2320    1.2240 c3        1 SL5      0.007500
     10 CB         -1.0860    1.7390    1.4760 c3        1 SL5      0.119100
     11 O10        -2.3060   -1.9050    6.3760 oh        1 SL5     -0.610800
     12 OG1        -0.4350    2.0660    2.7240 os        1 SL5     -0.463600
     13 CG2        -2.5540    2.0730    1.6000 c3        1 SL5     -0.095100
     14 OXT        -0.4240   -1.0700   -0.7570 o         1 SL5     -0.830300
     15 HN         -0.5410   -0.8680    2.9160 hn        1 SL5      0.338800
     16 H5          1.4450    1.2020    2.8510 h2        1 SL5      0.069700
     17 H6          1.1630    0.2110    5.0320 h1        1 SL5      0.031700
     18 H6A         0.3500    1.8580    5.0950 h1        1 SL5      0.031700
     19 H8         -1.2390    1.2930    6.7710 h1        1 SL5      0.030200
     20 H8A        -0.2890   -0.2630    6.9610 h1        1 SL5      0.030200
     21 H9A        -3.2660   -0.0860    6.0430 h1        1 SL5      0.046200
     22 H9B        -2.7170   -0.4840    7.7530 h1        1 SL5      0.046200
     23 HA         -1.7950   -0.3310    1.1920 h1        1 SL5      0.038700
     24 HB         -0.5850    2.3560    0.6790 h1        1 SL5      0.097700
     25 HO10       -1.9780   -1.9680    5.4680 ho        1 SL5      0.422000
     26 HG2        -2.6850    3.1560    1.8380 hc        1 SL5      0.028033
     27 HG2A       -3.0660    1.8470    0.6340 hc        1 SL5      0.028033
     28 HG2B       -3.0310    1.4750    2.4130 hc        1 SL5      0.028033
@<TRIPOS>BOND
     1    1    3 1   
     2    1    9 1   
     3    1   14 1   
     4    2    4 1   
     5    2    9 1   
     6    2   15 1   
     7    4    5 1   
     8    4   12 1   
     9    4   16 1   
    10    5    6 1   
    11    5   17 1   
    12    5   18 1   
    13    6    7 1   
    14    7    8 1   
    15    7   19 1   
    16    7   20 1   
    17    8   11 1   
    18    8   21 1   
    19    8   22 1   
    20    9   10 1   
    21    9   23 1   
    22   10   12 1   
    23   10   13 1   
    24   10   24 1   
    25   11   25 1   
    26   13   26 1   
    27   13   27 1   
    28   13   28 1   
@<TRIPOS>SUBSTRUCTURE
     1 SL5         1 TEMP              0 ****  ****    0 ROOT
