@<TRIPOS>MOLECULE
SL6
   58    60     1     0     0
SMALL
bcc


@<TRIPOS>ATOM
      1 CL2         5.1670    4.2350    0.1010 cl        1 SL6     -0.127400
      2 C19         3.8850    3.1370    0.3480 ca        1 SL6      0.009400
      3 C18         2.5890    3.6230    0.5350 ca        1 SL6     -0.127000
      4 C17         1.5450    2.7230    0.7420 ca        1 SL6     -0.116000
      5 C20         4.1390    1.7630    0.3610 ca        1 SL6     -0.127000
      6 C21         3.0880    0.8730    0.5700 ca        1 SL6     -0.116000
      7 C16         1.7820    1.3440    0.7640 ca        1 SL6     -0.062300
      8 C15         0.6720    0.3900    1.0380 c3        1 SL6     -0.030100
      9 C11         0.1290   -0.3400   -0.1940 c3        1 SL6     -0.138000
     10 C10        -0.3910    0.6470   -1.2360 c3        1 SL6     -0.069400
     11 C9         -1.6570    1.3710   -0.7930 c3        1 SL6      0.171300
     12 C14         1.2300   -1.2180   -0.8200 c         1 SL6      0.590300
     13 O27         1.5500   -1.0340   -2.0060 o         1 SL6     -0.575100
     14 C22         1.7970   -2.2210    0.0520 ce        1 SL6     -0.402200
     15 C23         2.7800   -3.1090   -0.2460 cf        1 SL6      0.114900
     16 O28         3.3710   -3.1300   -1.4680 oh        1 SL6     -0.497100
     17 C24         3.3100   -4.1430    0.7630 c         1 SL6      0.881800
     18 O26         4.2270   -4.8890    0.3140 o         1 SL6     -0.802800
     19 O25         2.8230   -4.1740    1.9180 o         1 SL6     -0.802800
     20 C12        -1.0230   -1.2610    0.2110 c3        1 SL6     -0.069400
     21 C13        -2.2860   -0.5070    0.6150 c3        1 SL6      0.171300
     22 N8         -2.7280    0.4860   -0.3530 n3        1 SL6     -0.728600
     23 C7         -3.8810    1.2480    0.1060 c3        1 SL6      0.176800
     24 C2         -5.1640    0.4290    0.3020 c3        1 SL6     -0.061700
     25 C3         -6.2580    1.3560    0.8180 c3        1 SL6     -0.072400
     26 C4         -7.5650    0.6140    1.0000 c3        1 SL6     -0.076400
     27 C5         -7.9980   -0.0600   -0.2860 c3        1 SL6     -0.075400
     28 C6         -6.9140   -0.9760   -0.8130 c3        1 SL6     -0.076400
     29 C1         -5.6010   -0.2410   -0.9900 c3        1 SL6     -0.072400
     30 H18         2.3910    4.7040    0.5190 ha        1 SL6      0.140000
     31 H20         5.1590    1.3810    0.2040 ha        1 SL6      0.140000
     32 H17         0.5220    3.1040    0.8860 ha        1 SL6      0.151000
     33 H21         3.2750   -0.2170    0.5700 ha        1 SL6      0.151000
     34 H151        1.0340   -0.3760    1.7790 hc        1 SL6      0.054700
     35 H152       -0.1780    0.9440    1.5210 hc        1 SL6      0.054700
     36 H101        0.3990    1.4130   -1.4490 hc        1 SL6      0.062450
     37 H102       -0.5880    0.0880   -2.1890 hc        1 SL6      0.062450
     38 H121       -1.2540   -1.9360   -0.6550 hc        1 SL6      0.062450
     39 H122       -0.7140   -1.9060    1.0740 hc        1 SL6      0.062450
     40 H91C       -1.3840    2.1170    0.0150 h1        1 SL6      0.020950
     41 H92C       -2.0510    1.9600   -1.6700 h1        1 SL6      0.020950
     42 H22         1.3890   -2.3030    1.0740 ha        1 SL6      0.153000
     43 H28         4.0410   -3.8460   -1.4510 ho        1 SL6      0.448000
     44 H131       -3.1180   -1.2610    0.7210 h1        1 SL6      0.020950
     45 H132       -2.1230   -0.0430    1.6340 h1        1 SL6      0.020950
     46 H71C       -3.6620    1.7800    1.0810 h1        1 SL6      0.023200
     47 H72C       -4.0930    2.0410   -0.6680 h1        1 SL6      0.023200
     48 H2         -4.9850   -0.3670    1.0780 hc        1 SL6      0.051700
     49 H31C       -5.9410    1.8020    1.7970 hc        1 SL6      0.043950
     50 H32C       -6.4040    2.2000    0.0940 hc        1 SL6      0.043950
     51 H11C       -5.7080    0.5350   -1.7930 hc        1 SL6      0.043950
     52 H12C       -4.8110   -0.9630   -1.3240 hc        1 SL6      0.043950
     53 H41C       -7.4470   -0.1590    1.8040 hc        1 SL6      0.035950
     54 H42C       -8.3590    1.3310    1.3360 hc        1 SL6      0.035950
     55 H51C       -8.9350   -0.6480   -0.1050 hc        1 SL6      0.033200
     56 H52C       -8.2340    0.7220   -1.0550 hc        1 SL6      0.033200
     57 H61C       -6.7690   -1.8310   -0.1010 hc        1 SL6      0.035950
     58 H62C       -7.2340   -1.4090   -1.7960 hc        1 SL6      0.035950
@<TRIPOS>BOND
     1    1    2 1   
     2    2    3 ar  
     3    2    5 ar  
     4    3    4 ar  
     5    3   30 1   
     6    4    7 ar  
     7    4   32 1   
     8    5    6 ar  
     9    5   31 1   
    10    6    7 ar  
    11    6   33 1   
    12    7    8 1   
    13    8    9 1   
    14    8   34 1   
    15    8   35 1   
    16    9   10 1   
    17    9   12 1   
    18    9   20 1   
    19   10   11 1   
    20   10   36 1   
    21   10   37 1   
    22   11   22 1   
    23   11   40 1   
    24   11   41 1   
    25   12   13 2   
    26   12   14 1   
    27   14   15 2   
    28   14   42 1   
    29   15   16 1   
    30   15   17 1   
    31   16   43 1   
    32   17   18 1   
    33   17   19 1   
    34   20   21 1   
    35   20   38 1   
    36   20   39 1   
    37   21   22 1   
    38   21   44 1   
    39   21   45 1   
    40   22   23 1   
    41   23   24 1   
    42   23   46 1   
    43   23   47 1   
    44   24   25 1   
    45   24   29 1   
    46   24   48 1   
    47   25   26 1   
    48   25   49 1   
    49   25   50 1   
    50   26   27 1   
    51   26   53 1   
    52   26   54 1   
    53   27   28 1   
    54   27   55 1   
    55   27   56 1   
    56   28   29 1   
    57   28   57 1   
    58   28   58 1   
    59   29   51 1   
    60   29   52 1   
@<TRIPOS>SUBSTRUCTURE
     1 SL6         1 TEMP              0 ****  ****    0 ROOT
