@<TRIPOS>MOLECULE
SL6
   58    60     1     0     0
SMALL
bcc


@<TRIPOS>ATOM
      1 Cl2         0.0110    0.5170    0.3870 cl        1 SL6     -0.127400
      2 C19         1.6970    0.2980    0.2350 ca        1 SL6      0.009400
      3 C18         2.5280    0.5730    1.3240 ca        1 SL6     -0.127000
      4 C17         3.9040    0.3970    1.1940 ca        1 SL6     -0.116000
      5 C20         2.2330   -0.1530   -0.9740 ca        1 SL6     -0.127000
      6 C21         3.6100   -0.3230   -1.0930 ca        1 SL6     -0.116000
      7 C16         4.4580   -0.0490   -0.0110 ca        1 SL6     -0.062300
      8 C15         5.9340   -0.1830   -0.1610 c3        1 SL6     -0.030100
      9 C11         6.4620   -1.6200   -0.0930 c3        1 SL6     -0.138000
     10 C10         6.0950   -2.2810    1.2330 c3        1 SL6     -0.069400
     11 C9          6.8360   -1.6830    2.4240 c3        1 SL6      0.171300
     12 C14         5.8910   -2.4500   -1.2590 c         1 SL6      0.590300
     13 O27         5.2430   -3.4800   -1.0090 o         1 SL6     -0.575100
     14 C22         6.1880   -1.9510   -2.5830 ce        1 SL6     -0.402200
     15 C23         5.7980   -2.4850   -3.7690 cf        1 SL6      0.114900
     16 O28         5.0320   -3.6040   -3.8260 oh        1 SL6     -0.497100
     17 C24         6.1740   -1.8700   -5.1280 c         1 SL6      0.881800
     18 O26         5.7240   -2.5000   -6.1280 o         1 SL6     -0.802800
     19 O25         6.8680   -0.8260   -5.1550 o         1 SL6     -0.802800
     20 C12         7.9850   -1.6220   -0.2250 c3        1 SL6     -0.069400
     21 C13         8.6980   -1.0510    0.9970 c3        1 SL6      0.171300
     22 N8          8.2840   -1.6370    2.2630 n3        1 SL6     -0.728600
     23 C7          8.9170   -1.0050    3.4120 c3        1 SL6      0.176800
     24 C2         10.4400   -1.1770    3.4890 c3        1 SL6     -0.061700
     25 C3         10.9510   -0.4310    4.7150 c3        1 SL6     -0.072400
     26 C4         12.4500   -0.5910    4.8690 c3        1 SL6     -0.076400
     27 C5         12.8430   -2.0530    4.9300 c3        1 SL6     -0.075400
     28 C6         12.3300   -2.8070    3.7210 c3        1 SL6     -0.076400
     29 C1         10.8330   -2.6440    3.5570 c3        1 SL6     -0.072400
     30 H18         2.1030    0.9220    2.2750 ha        1 SL6      0.140000
     31 H20         1.5760   -0.3770   -1.8290 ha        1 SL6      0.140000
     32 H17         4.5600    0.6090    2.0520 ha        1 SL6      0.151000
     33 H21         4.0450   -0.6920   -2.0400 ha        1 SL6      0.151000
     34 H151        6.4410    0.4150    0.6450 hc        1 SL6      0.054700
     35 H152        6.2360    0.2640   -1.1480 hc        1 SL6      0.054700
     36 H101        4.9930   -2.1720    1.4110 hc        1 SL6      0.062450
     37 H102        6.3190   -3.3780    1.1580 hc        1 SL6      0.062450
     38 H121        8.2950   -1.0210   -1.1190 hc        1 SL6      0.062450
     39 H122        8.3220   -2.6800   -0.3900 hc        1 SL6      0.062450
     40 H91C        6.4140   -0.6540    2.6340 h1        1 SL6      0.020950
     41 H92C        6.6210   -2.3220    3.3280 h1        1 SL6      0.020950
     42 H22         6.8120   -1.0450   -2.6610 ha        1 SL6      0.153000
     43 H28         4.8800   -3.8000   -4.7750 ho        1 SL6      0.448000
     44 H131        8.5680    0.0730    1.0020 h1        1 SL6      0.020950
     45 H132        9.8010   -1.2590    0.8800 h1        1 SL6      0.020950
     46 H71C        8.6950    0.1040    3.4470 h1        1 SL6      0.023200
     47 H72C        8.4710   -1.4660    4.3400 h1        1 SL6      0.023200
     48 H2         10.9150   -0.7200    2.5770 hc        1 SL6      0.051700
     49 H31C       10.6990    0.6570    4.6250 hc        1 SL6      0.043950
     50 H32C       10.4370   -0.8220    5.6320 hc        1 SL6      0.043950
     51 H11C       10.5010   -3.1650    2.6210 hc        1 SL6      0.043950
     52 H12C       10.3040   -3.1300    4.4180 hc        1 SL6      0.043950
     53 H41C       12.9680   -0.1020    4.0030 hc        1 SL6      0.035950
     54 H42C       12.7880   -0.0710    5.8030 hc        1 SL6      0.035950
     55 H51C       12.4230   -2.5130    5.8630 hc        1 SL6      0.033200
     56 H52C       13.9590   -2.1400    4.9850 hc        1 SL6      0.033200
     57 H61C       12.8490   -2.4300    2.8000 hc        1 SL6      0.035950
     58 H62C       12.5780   -3.8950    3.8240 hc        1 SL6      0.035950
@<TRIPOS>BOND
     1    1    2 1   
     2    2    3 ar  
     3    2    5 ar  
     4    3    4 ar  
     5    3   30 1   
     6    4    7 ar  
     7    4   32 1   
     8    5    6 ar  
     9    5   31 1   
    10    6    7 ar  
    11    6   33 1   
    12    7    8 1   
    13    8    9 1   
    14    8   34 1   
    15    8   35 1   
    16    9   10 1   
    17    9   12 1   
    18    9   20 1   
    19   10   11 1   
    20   10   36 1   
    21   10   37 1   
    22   11   22 1   
    23   11   40 1   
    24   11   41 1   
    25   12   13 2   
    26   12   14 1   
    27   14   15 2   
    28   14   42 1   
    29   15   16 1   
    30   15   17 1   
    31   16   43 1   
    32   17   18 1   
    33   17   19 1   
    34   20   21 1   
    35   20   38 1   
    36   20   39 1   
    37   21   22 1   
    38   21   44 1   
    39   21   45 1   
    40   22   23 1   
    41   23   24 1   
    42   23   46 1   
    43   23   47 1   
    44   24   25 1   
    45   24   29 1   
    46   24   48 1   
    47   25   26 1   
    48   25   49 1   
    49   25   50 1   
    50   26   27 1   
    51   26   53 1   
    52   26   54 1   
    53   27   28 1   
    54   27   55 1   
    55   27   56 1   
    56   28   29 1   
    57   28   57 1   
    58   28   58 1   
    59   29   51 1   
    60   29   52 1   
@<TRIPOS>SUBSTRUCTURE
     1 SL6         1 TEMP              0 ****  ****    0 ROOT
