@<TRIPOS>MOLECULE
SL6
   58    60     1     0     0
SMALL
bcc


@<TRIPOS>ATOM
      1 CL2         0.0140    0.5240    0.3790 cl        1 SL6     -0.127400
      2 C19         1.6990    0.3030    0.2290 ca        1 SL6      0.009400
      3 C18         2.5300    0.5780    1.3180 ca        1 SL6     -0.127000
      4 C17         3.9060    0.4000    1.1900 ca        1 SL6     -0.116000
      5 C20         2.2350   -0.1510   -0.9790 ca        1 SL6     -0.127000
      6 C21         3.6120   -0.3230   -1.0960 ca        1 SL6     -0.116000
      7 C16         4.4600   -0.0490   -0.0150 ca        1 SL6     -0.062300
      8 C15         5.9360   -0.1850   -0.1630 c3        1 SL6     -0.030100
      9 C11         6.4610   -1.6220   -0.0920 c3        1 SL6     -0.138000
     10 C10         6.0930   -2.2800    1.2350 c3        1 SL6     -0.069400
     11 C9          6.8340   -1.6810    2.4250 c3        1 SL6      0.171300
     12 C14         5.8900   -2.4540   -1.2570 c         1 SL6      0.590300
     13 O27         5.2410   -3.4820   -1.0050 o         1 SL6     -0.575100
     14 C22         6.1890   -1.9580   -2.5810 ce        1 SL6     -0.402200
     15 C23         5.7990   -2.4940   -3.7660 cf        1 SL6      0.114900
     16 O28         5.0310   -3.6120   -3.8220 oh        1 SL6     -0.497100
     17 C24         6.1770   -1.8820   -5.1270 c         1 SL6      0.881800
     18 O26         5.7270   -2.5130   -6.1260 o         1 SL6     -0.802800
     19 O25         6.8720   -0.8400   -5.1550 o         1 SL6     -0.802800
     20 C12         7.9850   -1.6270   -0.2230 c3        1 SL6     -0.069400
     21 C13         8.6980   -1.0540    0.9980 c3        1 SL6      0.171300
     22 N8          8.2820   -1.6370    2.2650 n3        1 SL6     -0.728600
     23 C7          8.9150   -1.0030    3.4130 c3        1 SL6      0.176800
     24 C2         10.4380   -1.1750    3.4900 c3        1 SL6     -0.061700
     25 C3         10.9490   -0.4280    4.7160 c3        1 SL6     -0.072400
     26 C4         12.4480   -0.5870    4.8700 c3        1 SL6     -0.076400
     27 C5         12.8420   -2.0480    4.9320 c3        1 SL6     -0.075400
     28 C6         12.3300   -2.8030    3.7230 c3        1 SL6     -0.076400
     29 C1         10.8320   -2.6410    3.5590 c3        1 SL6     -0.072400
     30 H18         2.1040    0.9300    2.2680 ha        1 SL6      0.140000
     31 H20         1.5790   -0.3770   -1.8330 ha        1 SL6      0.140000
     32 H17         4.5610    0.6130    2.0470 ha        1 SL6      0.151000
     33 H21         4.0470   -0.6950   -2.0430 ha        1 SL6      0.151000
     34 H151        6.2390    0.2600   -1.1510 hc        1 SL6      0.054700
     35 H152        6.4440    0.4140    0.6420 hc        1 SL6      0.054700
     36 H101        6.3160   -3.3780    1.1630 hc        1 SL6      0.062450
     37 H102        4.9920   -2.1690    1.4120 hc        1 SL6      0.062450
     38 H121        8.2960   -1.0280   -1.1180 hc        1 SL6      0.062450
     39 H122        8.3200   -2.6850   -0.3860 hc        1 SL6      0.062450
     40 H91C        6.6180   -2.3180    3.3300 h1        1 SL6      0.020950
     41 H92C        6.4130   -0.6510    2.6330 h1        1 SL6      0.020950
     42 H22         6.8140   -1.0530   -2.6610 ha        1 SL6      0.153000
     43 H28         4.8800   -3.8100   -4.7710 ho        1 SL6      0.448000
     44 H131        9.8000   -1.2640    0.8820 h1        1 SL6      0.020950
     45 H132        8.5700    0.0700    1.0010 h1        1 SL6      0.020950
     46 H71C        8.4690   -1.4630    4.3420 h1        1 SL6      0.023200
     47 H72C        8.6930    0.1060    3.4470 h1        1 SL6      0.023200
     48 H2         10.9140   -0.7170    2.5780 hc        1 SL6      0.051700
     49 H31C       10.6960    0.6610    4.6260 hc        1 SL6      0.043950
     50 H32C       10.4350   -0.8190    5.6330 hc        1 SL6      0.043950
     51 H11C       10.3040   -3.1270    4.4200 hc        1 SL6      0.043950
     52 H12C       10.5010   -3.1630    2.6230 hc        1 SL6      0.043950
     53 H41C       12.7850   -0.0660    5.8040 hc        1 SL6      0.035950
     54 H42C       12.9660   -0.0970    4.0050 hc        1 SL6      0.035950
     55 H51C       13.9580   -2.1350    4.9870 hc        1 SL6      0.033200
     56 H52C       12.4220   -2.5080    5.8650 hc        1 SL6      0.033200
     57 H61C       12.8480   -2.4260    2.8020 hc        1 SL6      0.035950
     58 H62C       12.5780   -3.8910    3.8270 hc        1 SL6      0.035950
@<TRIPOS>BOND
     1    1    2 1   
     2    2    3 ar  
     3    2    5 ar  
     4    3    4 ar  
     5    3   30 1   
     6    4    7 ar  
     7    4   32 1   
     8    5    6 ar  
     9    5   31 1   
    10    6    7 ar  
    11    6   33 1   
    12    7    8 1   
    13    8    9 1   
    14    8   34 1   
    15    8   35 1   
    16    9   10 1   
    17    9   12 1   
    18    9   20 1   
    19   10   11 1   
    20   10   36 1   
    21   10   37 1   
    22   11   22 1   
    23   11   40 1   
    24   11   41 1   
    25   12   13 2   
    26   12   14 1   
    27   14   15 2   
    28   14   42 1   
    29   15   16 1   
    30   15   17 1   
    31   16   43 1   
    32   17   18 1   
    33   17   19 1   
    34   20   21 1   
    35   20   38 1   
    36   20   39 1   
    37   21   22 1   
    38   21   44 1   
    39   21   45 1   
    40   22   23 1   
    41   23   24 1   
    42   23   46 1   
    43   23   47 1   
    44   24   25 1   
    45   24   29 1   
    46   24   48 1   
    47   25   26 1   
    48   25   49 1   
    49   25   50 1   
    50   26   27 1   
    51   26   53 1   
    52   26   54 1   
    53   27   28 1   
    54   27   55 1   
    55   27   56 1   
    56   28   29 1   
    57   28   57 1   
    58   28   58 1   
    59   29   51 1   
    60   29   52 1   
@<TRIPOS>SUBSTRUCTURE
     1 SL6         1 TEMP              0 ****  ****    0 ROOT
