@<TRIPOS>MOLECULE
SL6
   58    60     1     0     0
SMALL
bcc


@<TRIPOS>ATOM
      1 CL2         0.0150    0.5190    0.3720 cl        1 SL6     -0.127400
      2 C19         1.7000    0.2980    0.2220 ca        1 SL6      0.009400
      3 C18         2.5310    0.5790    1.3090 ca        1 SL6     -0.127000
      4 C17         3.9070    0.4020    1.1820 ca        1 SL6     -0.116000
      5 C20         2.2370   -0.1610   -0.9850 ca        1 SL6     -0.127000
      6 C21         3.6140   -0.3310   -1.1010 ca        1 SL6     -0.116000
      7 C16         4.4620   -0.0510   -0.0210 ca        1 SL6     -0.062300
      8 C15         5.9380   -0.1870   -0.1690 c3        1 SL6     -0.030100
      9 C11         6.4640   -1.6230   -0.0950 c3        1 SL6     -0.138000
     10 C10         6.0950   -2.2790    1.2320 c3        1 SL6     -0.069400
     11 C9          6.8330   -1.6780    2.4220 c3        1 SL6      0.171300
     12 C14         5.8950   -2.4580   -1.2590 c         1 SL6      0.590300
     13 O27         5.2470   -3.4860   -1.0060 o         1 SL6     -0.575100
     14 C22         6.1950   -1.9630   -2.5840 ce        1 SL6     -0.402200
     15 C23         5.8060   -2.5010   -3.7690 cf        1 SL6      0.114900
     16 O28         5.0370   -3.6180   -3.8240 oh        1 SL6     -0.497100
     17 C24         6.1850   -1.8900   -5.1300 c         1 SL6      0.881800
     18 O26         5.7350   -2.5220   -6.1290 o         1 SL6     -0.802800
     19 O25         6.8810   -0.8480   -5.1590 o         1 SL6     -0.802800
     20 C12         7.9880   -1.6270   -0.2240 c3        1 SL6     -0.069400
     21 C13         8.7000   -1.0520    0.9970 c3        1 SL6      0.171300
     22 N8          8.2820   -1.6330    2.2640 n3        1 SL6     -0.728600
     23 C7          8.9130   -0.9970    3.4120 c3        1 SL6      0.176800
     24 C2         10.4360   -1.1710    3.4940 c3        1 SL6     -0.061700
     25 C3         10.9450   -0.4190    4.7170 c3        1 SL6     -0.072400
     26 C4         12.4430   -0.5810    4.8760 c3        1 SL6     -0.076400
     27 C5         12.8340   -2.0430    4.9460 c3        1 SL6     -0.075400
     28 C6         12.3230   -2.8020    3.7390 c3        1 SL6     -0.076400
     29 C1         10.8260   -2.6380    3.5700 c3        1 SL6     -0.072400
     30 H18         2.1060    0.9350    2.2590 ha        1 SL6      0.140000
     31 H20         1.5810   -0.3900   -1.8370 ha        1 SL6      0.140000
     32 H17         4.5630    0.6190    2.0380 ha        1 SL6      0.151000
     33 H21         4.0490   -0.7070   -2.0460 ha        1 SL6      0.151000
     34 H151        6.2400    0.2560   -1.1580 hc        1 SL6      0.054700
     35 H152        6.4450    0.4140    0.6340 hc        1 SL6      0.054700
     36 H101        6.3190   -3.3770    1.1620 hc        1 SL6      0.062450
     37 H102        4.9930   -2.1700    1.4080 hc        1 SL6      0.062450
     38 H121        8.3240   -2.6860   -0.3850 hc        1 SL6      0.062450
     39 H122        8.3000   -1.0300   -1.1200 hc        1 SL6      0.062450
     40 H91C        6.6170   -2.3130    3.3280 h1        1 SL6      0.020950
     41 H92C        6.4120   -0.6480    2.6270 h1        1 SL6      0.020950
     42 H22         6.8210   -1.0580   -2.6650 ha        1 SL6      0.153000
     43 H28         4.8870   -3.8170   -4.7730 ho        1 SL6      0.448000
     44 H131        9.8020   -1.2610    0.8830 h1        1 SL6      0.020950
     45 H132        8.5700    0.0720    0.9980 h1        1 SL6      0.020950
     46 H71C        8.4640   -1.4520    4.3410 h1        1 SL6      0.023200
     47 H72C        8.6930    0.1130    3.4420 h1        1 SL6      0.023200
     48 H2         10.9140   -0.7190    2.5800 hc        1 SL6      0.051700
     49 H31C       10.6950    0.6690    4.6200 hc        1 SL6      0.043950
     50 H32C       10.4280   -0.8050    5.6350 hc        1 SL6      0.043950
     51 H11C       10.4960   -3.1630    2.6360 hc        1 SL6      0.043950
     52 H12C       10.2940   -3.1190    4.4330 hc        1 SL6      0.043950
     53 H41C       12.9650   -0.0970    4.0090 hc        1 SL6      0.035950
     54 H42C       12.7800   -0.0560    5.8070 hc        1 SL6      0.035950
     55 H51C       13.9500   -2.1320    5.0040 hc        1 SL6      0.033200
     56 H52C       12.4100   -2.4980    5.8800 hc        1 SL6      0.033200
     57 H61C       12.8450   -2.4310    2.8170 hc        1 SL6      0.035950
     58 H62C       12.5680   -3.8910    3.8480 hc        1 SL6      0.035950
@<TRIPOS>BOND
     1    1    2 1   
     2    2    3 ar  
     3    2    5 ar  
     4    3    4 ar  
     5    3   30 1   
     6    4    7 ar  
     7    4   32 1   
     8    5    6 ar  
     9    5   31 1   
    10    6    7 ar  
    11    6   33 1   
    12    7    8 1   
    13    8    9 1   
    14    8   34 1   
    15    8   35 1   
    16    9   10 1   
    17    9   12 1   
    18    9   20 1   
    19   10   11 1   
    20   10   36 1   
    21   10   37 1   
    22   11   22 1   
    23   11   40 1   
    24   11   41 1   
    25   12   13 2   
    26   12   14 1   
    27   14   15 2   
    28   14   42 1   
    29   15   16 1   
    30   15   17 1   
    31   16   43 1   
    32   17   18 1   
    33   17   19 1   
    34   20   21 1   
    35   20   38 1   
    36   20   39 1   
    37   21   22 1   
    38   21   44 1   
    39   21   45 1   
    40   22   23 1   
    41   23   24 1   
    42   23   46 1   
    43   23   47 1   
    44   24   25 1   
    45   24   29 1   
    46   24   48 1   
    47   25   26 1   
    48   25   49 1   
    49   25   50 1   
    50   26   27 1   
    51   26   53 1   
    52   26   54 1   
    53   27   28 1   
    54   27   55 1   
    55   27   56 1   
    56   28   29 1   
    57   28   57 1   
    58   28   58 1   
    59   29   51 1   
    60   29   52 1   
@<TRIPOS>SUBSTRUCTURE
     1 SL6         1 TEMP              0 ****  ****    0 ROOT
