@<TRIPOS>MOLECULE
SLA
   32    32     1     0     0
SMALL
bcc


@<TRIPOS>ATOM
      1 C1          0.4320   -0.3940   -0.2210 c3        1 SLA      0.153100
      2 C2          1.7980    0.3120   -0.0550 c3        1 SLA     -0.171700
      3 C3          2.2320   -0.0470    1.3670 c         1 SLA      0.698500
      4 N4          1.1490   -0.5540    2.0780 ns        1 SLA     -0.563900
      5 C5         -0.0390   -0.7330    1.2500 c3        1 SLA     -0.037600
      6 C6         -1.1300    0.2020    1.7880 c         1 SLA      0.589900
      7 O7         -1.3350    1.3260    1.3340 o         1 SLA     -0.534100
      8 O8         -0.5190    0.2970   -0.9780 oh        1 SLA     -0.587800
      9 C9          1.7430    1.8080   -0.2310 c3        1 SLA     -0.096100
     10 O10         3.3640    0.0960    1.8480 o         1 SLA     -0.610500
     11 C11        -0.5730   -2.1950    1.2880 c3        1 SLA      0.135100
     12 O12        -0.8600   -2.4820    2.6510 oh        1 SLA     -0.609800
     13 C13        -1.7810   -2.4330    0.3700 c3        1 SLA     -0.111700
     14 C14        -1.8770   -3.9090    0.0370 c3        1 SLA     -0.095600
     15 C15        -3.0860   -1.9470    0.9630 c3        1 SLA     -0.095600
     16 H18        -1.6990   -0.2140    2.6480 h4        1 SLA      0.033200
     17 H1          0.5790   -1.3590   -0.7860 h1        1 SLA      0.081700
     18 H2          2.5400   -0.1250   -0.7740 hc        1 SLA      0.091700
     19 H3          1.2310   -1.0480    2.9320 hn        1 SLA      0.340500
     20 H4         -0.6140    1.1950   -0.6260 ho        1 SLA      0.435000
     21 H5          0.9810    2.2610    0.4510 hc        1 SLA      0.055700
     22 H6          2.7410    2.2530    0.0030 hc        1 SLA      0.055700
     23 H7          1.4740    2.0580   -1.2860 hc        1 SLA      0.055700
     24 H8          0.2640   -2.8770    0.9520 h1        1 SLA      0.044700
     25 H9         -1.2680   -3.3570    2.6730 ho        1 SLA      0.415000
     26 H10        -1.5990   -1.8650   -0.5880 hc        1 SLA      0.084700
     27 H11        -2.0600   -4.5120    0.9590 hc        1 SLA      0.040533
     28 H12        -0.9340   -4.2690   -0.4420 hc        1 SLA      0.040533
     29 H13        -2.7210   -4.0880   -0.6720 hc        1 SLA      0.040533
     30 H14        -3.9470   -2.3560    0.3800 hc        1 SLA      0.040533
     31 H15        -3.1460   -0.8320    0.9250 hc        1 SLA      0.040533
     32 H16        -3.1920   -2.2730    2.0260 hc        1 SLA      0.040533
@<TRIPOS>BOND
     1    1    2 1   
     2    1    5 1   
     3    1    8 1   
     4    1   17 1   
     5    2    3 1   
     6    2    9 1   
     7    2   18 1   
     8    3    4 1   
     9    3   10 2   
    10    4    5 1   
    11    4   19 1   
    12    5    6 1   
    13    5   11 1   
    14    6    7 2   
    15    6   16 1   
    16    8   20 1   
    17    9   21 1   
    18    9   22 1   
    19    9   23 1   
    20   11   12 1   
    21   11   13 1   
    22   11   24 1   
    23   12   25 1   
    24   13   14 1   
    25   13   15 1   
    26   13   26 1   
    27   14   27 1   
    28   14   28 1   
    29   14   29 1   
    30   15   30 1   
    31   15   31 1   
    32   15   32 1   
@<TRIPOS>SUBSTRUCTURE
     1 SLA         1 TEMP              0 ****  ****    0 ROOT
