@<TRIPOS>MOLECULE
SLA
   32    32     1     0     0
SMALL
bcc


@<TRIPOS>ATOM
      1 C1          0.3000   -0.2210   -0.1790 c3        1 SLA      0.153100
      2 C2          1.8040    0.0930   -0.0020 c3        1 SLA     -0.134700
      3 C3          2.0460    0.0220    1.5050 c         1 SLA      0.692500
      4 N4          0.8450   -0.1910    2.1780 n         1 SLA     -0.550900
      5 C5         -0.2590   -0.4950    1.2760 c3        1 SLA     -0.043600
      6 C6         -1.4800    0.3600    1.6220 c         1 SLA      0.602900
      7 O7         -2.3490    0.6310    0.7940 o         1 SLA     -0.540100
      8 O8         -0.3160    0.8810   -0.8000 oh        1 SLA     -0.582800
      9 C9          2.2280    1.4290   -0.5580 c3        1 SLA     -0.074100
     10 O10         3.1370    0.1510    2.0760 o         1 SLA     -0.609500
     11 C11        -0.6920   -1.9970    1.3750 c3        1 SLA      0.128100
     12 O12        -1.0040   -2.2210    2.7430 oh        1 SLA     -0.606800
     13 C13        -1.8580   -2.3490    0.4360 c3        1 SLA     -0.108700
     14 C14        -1.5390   -3.6060   -0.3470 c3        1 SLA     -0.092100
     15 C15        -3.1710   -2.5080    1.1740 c3        1 SLA     -0.092100
     16 H18        -1.5470    0.6950    2.6800 h4        1 SLA      0.028200
     17 H1          0.1640   -1.1440   -0.8060 h1        1 SLA      0.048700
     18 H2          2.4060   -0.7240   -0.4840 hc        1 SLA      0.081700
     19 H3          0.8110   -0.5410    3.1050 hn        1 SLA      0.333500
     20 H4         -1.2310    0.6320   -1.0000 ho        1 SLA      0.428000
     21 H5          2.0800    1.4410   -1.6650 hc        1 SLA      0.053700
     22 H6          3.3040    1.6100   -0.3220 hc        1 SLA      0.053700
     23 H7          1.6150    2.2520   -0.1170 hc        1 SLA      0.053700
     24 H8          0.2040   -2.6300    1.1040 h1        1 SLA      0.045700
     25 H9         -1.2780   -3.1440    2.8210 ho        1 SLA      0.417000
     26 H10        -1.9850   -1.4980   -0.2960 hc        1 SLA      0.068700
     27 H11        -1.3630   -4.4660    0.3440 hc        1 SLA      0.040867
     28 H12        -2.3920   -3.8640   -1.0200 hc        1 SLA      0.040867
     29 H13        -0.6260   -3.4600   -0.9730 hc        1 SLA      0.040867
     30 H14        -4.0100   -2.5860    0.4420 hc        1 SLA      0.040867
     31 H15        -3.1700   -3.4290    1.8050 hc        1 SLA      0.040867
     32 H16        -3.3480   -1.6220    1.8320 hc        1 SLA      0.040867
@<TRIPOS>BOND
     1    1    2 1   
     2    1    5 1   
     3    1    8 1   
     4    1   17 1   
     5    2    3 1   
     6    2    9 1   
     7    2   18 1   
     8    3    4 1   
     9    3   10 2   
    10    4    5 1   
    11    4   19 1   
    12    5    6 1   
    13    5   11 1   
    14    6    7 2   
    15    6   16 1   
    16    8   20 1   
    17    9   21 1   
    18    9   22 1   
    19    9   23 1   
    20   11   12 1   
    21   11   13 1   
    22   11   24 1   
    23   12   25 1   
    24   13   14 1   
    25   13   15 1   
    26   13   26 1   
    27   14   27 1   
    28   14   28 1   
    29   14   29 1   
    30   15   30 1   
    31   15   31 1   
    32   15   32 1   
@<TRIPOS>SUBSTRUCTURE
     1 SLA         1 TEMP              0 ****  ****    0 ROOT
