@<TRIPOS>MOLECULE
SLA
   32    32     1     0     0
SMALL
bcc


@<TRIPOS>ATOM
      1 C1          0.3020   -0.2190   -0.1840 c3        1 SLA      0.153100
      2 C2          1.8110    0.0800   -0.0230 c3        1 SLA     -0.134700
      3 C3          2.0700    0.0000    1.4800 c         1 SLA      0.692500
      4 N4          0.8750   -0.2050    2.1660 n         1 SLA     -0.550900
      5 C5         -0.2420   -0.4950    1.2760 c3        1 SLA     -0.043600
      6 C6         -1.4510    0.3710    1.6400 c         1 SLA      0.602900
      7 O7         -2.3280    0.6530    0.8240 o         1 SLA     -0.540100
      8 O8         -0.3110    0.8910   -0.7930 oh        1 SLA     -0.582800
      9 C9          2.2400    1.4150   -0.5780 c3        1 SLA     -0.074100
     10 O10         3.1690    0.1160    2.0400 o         1 SLA     -0.609500
     11 C11        -0.6890   -1.9930    1.3730 c3        1 SLA      0.128100
     12 O12        -0.9870   -2.2200    2.7440 oh        1 SLA     -0.606800
     13 C13        -1.8680   -2.3290    0.4460 c3        1 SLA     -0.108700
     14 C14        -1.5700   -3.5860   -0.3460 c3        1 SLA     -0.092100
     15 C15        -3.1740   -2.4810    1.1980 c3        1 SLA     -0.092100
     16 H18        -1.5020    0.7010    2.7000 h4        1 SLA      0.028200
     17 H1          0.1510   -1.1380   -0.8130 h1        1 SLA      0.048700
     18 H2          2.4000   -0.7400   -0.5160 hc        1 SLA      0.081700
     19 H3          0.8480   -0.5590    3.0920 hn        1 SLA      0.333500
     20 H4         -1.2300    0.6510   -0.9830 ho        1 SLA      0.428000
     21 H5          3.3220    1.5850   -0.3540 hc        1 SLA      0.053700
     22 H6          2.0810    1.4330   -1.6820 hc        1 SLA      0.053700
     23 H7          1.6410    2.2420   -0.1260 hc        1 SLA      0.053700
     24 H8          0.1990   -2.6330    1.0890 h1        1 SLA      0.045700
     25 H9         -1.2680   -3.1410    2.8210 ho        1 SLA      0.417000
     26 H10        -1.9960   -1.4730   -0.2800 hc        1 SLA      0.068700
     27 H11        -0.6620   -3.4450   -0.9820 hc        1 SLA      0.040867
     28 H12        -1.3940   -4.4500    0.3380 hc        1 SLA      0.040867
     29 H13        -2.4330   -3.8330   -1.0110 hc        1 SLA      0.040867
     30 H14        -3.1740   -3.4050    1.8250 hc        1 SLA      0.040867
     31 H15        -4.0220   -2.5470    0.4760 hc        1 SLA      0.040867
     32 H16        -3.3360   -1.5970    1.8630 hc        1 SLA      0.040867
@<TRIPOS>BOND
     1    1    2 1   
     2    1    5 1   
     3    1    8 1   
     4    1   17 1   
     5    2    3 1   
     6    2    9 1   
     7    2   18 1   
     8    3    4 1   
     9    3   10 2   
    10    4    5 1   
    11    4   19 1   
    12    5    6 1   
    13    5   11 1   
    14    6    7 2   
    15    6   16 1   
    16    8   20 1   
    17    9   21 1   
    18    9   22 1   
    19    9   23 1   
    20   11   12 1   
    21   11   13 1   
    22   11   24 1   
    23   12   25 1   
    24   13   14 1   
    25   13   15 1   
    26   13   26 1   
    27   14   27 1   
    28   14   28 1   
    29   14   29 1   
    30   15   30 1   
    31   15   31 1   
    32   15   32 1   
@<TRIPOS>SUBSTRUCTURE
     1 SLA         1 TEMP              0 ****  ****    0 ROOT
