@<TRIPOS>MOLECULE
SLA
   32    32     1     0     0
SMALL
bcc


@<TRIPOS>ATOM
      1 O7         -0.8580    2.2150   -1.0340 o         1 SLA     -0.820800
      2 C1          1.2030    0.0480   -1.1170 c3        1 SLA      0.162100
      3 C2          2.2790   -0.7770   -0.3710 c3        1 SLA     -0.149700
      4 C3          1.7790   -0.8400    1.0740 c         1 SLA      0.678500
      5 N4          0.4470   -0.4330    1.1500 n         1 SLA     -0.510900
      6 C5         -0.0130    0.1460   -0.1160 c3        1 SLA     -0.116600
      7 C6         -0.4950    1.6400    0.0320 c         1 SLA      0.921600
      8 OXT        -0.4880    2.1650    1.1750 o         1 SLA     -0.820800
      9 O8          1.7670    1.2850   -1.4900 oh        1 SLA     -0.629800
     10 C11        -1.1940   -0.6670   -0.7190 c3        1 SLA      0.156100
     11 O12        -0.7410   -1.9020   -1.2660 oh        1 SLA     -0.624800
     12 C13        -2.3570   -0.9480    0.2460 c3        1 SLA     -0.081700
     13 C14        -2.9320    0.3210    0.8330 c3        1 SLA     -0.095600
     14 C15        -3.4400   -1.7180   -0.4880 c3        1 SLA     -0.095600
     15 H1          0.8790   -0.4880   -2.0510 h1        1 SLA      0.048700
     16 H2          2.2760   -1.8220   -0.7840 hc        1 SLA      0.060700
     17 HN4         0.1400    0.0560    1.9650 hn        1 SLA      0.326500
     18 HO8         1.0380    1.8920   -1.7040 ho        1 SLA      0.451000
     19 H11        -1.5690   -0.0840   -1.6100 h1        1 SLA      0.097700
     20 HO12       -0.3420   -2.4010   -0.5450 ho        1 SLA      0.394000
     21 H13        -1.9750   -1.5990    1.0820 hc        1 SLA      0.041700
     22 H14        -3.0420    1.1040    0.0420 hc        1 SLA      0.036033
     23 H14A       -3.9310    0.1190    1.2880 hc        1 SLA      0.036033
     24 H14B       -2.2530    0.7320    1.6210 hc        1 SLA      0.036033
     25 H15        -3.9000   -1.0780   -1.2800 hc        1 SLA      0.036033
     26 H15A       -3.0080   -2.6260   -0.9740 hc        1 SLA      0.036033
     27 H15B       -4.2400   -2.0340    0.2230 hc        1 SLA      0.036033
     28 C9          3.6680   -0.2010   -0.4440 c3        1 SLA     -0.065100
     29 H9          3.6710    0.8540   -0.0770 hc        1 SLA      0.039700
     30 H9A         4.3640   -0.8060    0.1850 hc        1 SLA      0.039700
     31 H9B         4.0230   -0.2020   -1.5020 hc        1 SLA      0.039700
     32 O10         2.4350   -1.2720    2.0390 o         1 SLA     -0.665500
@<TRIPOS>BOND
     1    1    7 1   
     2    2    3 1   
     3    2    6 1   
     4    2    9 1   
     5    2   15 1   
     6    3    4 1   
     7    3   16 1   
     8    3   28 1   
     9    4    5 1   
    10    4   32 2   
    11    5    6 1   
    12    5   17 1   
    13    6    7 1   
    14    6   10 1   
    15    7    8 1   
    16    9   18 1   
    17   10   11 1   
    18   10   12 1   
    19   10   19 1   
    20   11   20 1   
    21   12   13 1   
    22   12   14 1   
    23   12   21 1   
    24   13   22 1   
    25   13   23 1   
    26   13   24 1   
    27   14   25 1   
    28   14   26 1   
    29   14   27 1   
    30   28   29 1   
    31   28   30 1   
    32   28   31 1   
@<TRIPOS>SUBSTRUCTURE
     1 SLA         1 TEMP              0 ****  ****    0 ROOT
