@<TRIPOS>MOLECULE
SLB
   39    39     1     0     0
SMALL
bcc


@<TRIPOS>ATOM
      1 C1         -2.5190    0.7670   -2.1650 c         1 SLB      0.929600
      2 C2         -1.8270   -0.0860   -1.0290 c3        1 SLB      0.200600
      3 C3         -2.4620    0.1450    0.3360 c3        1 SLB     -0.112400
      4 C4         -1.6490   -0.5210    1.4330 c3        1 SLB      0.118100
      5 C5         -0.1810   -0.0170    1.3650 c3        1 SLB      0.025700
      6 C6          0.3650   -0.3340   -0.0500 c3        1 SLB      0.118100
      7 C7          1.7650    0.2660   -0.2790 c3        1 SLB      0.134100
      8 C8          2.3670   -0.3230   -1.5710 c3        1 SLB      0.062100
      9 C9          3.4700    0.5730   -2.1450 c3        1 SLB      0.096400
     10 C11         1.3560   -0.8440    4.7600 c3        1 SLB     -0.175100
     11 N5          0.6550   -0.5760    2.4070 n         1 SLB     -0.537900
     12 O1A        -2.8320    1.9500   -1.9010 o         1 SLB     -0.803300
     13 O1B        -2.7140    0.1440   -3.2410 o         1 SLB     -0.803300
     14 O2         -1.8210   -1.4610   -1.3230 oh        1 SLB     -0.651800
     15 O4         -2.2090   -0.2970    2.7150 oh        1 SLB     -0.615800
     16 O6         -0.4490    0.2810   -1.0420 os        1 SLB     -0.439600
     17 O7          1.7290    1.6770   -0.3420 oh        1 SLB     -0.609800
     18 O8          2.8800   -1.6250   -1.3320 oh        1 SLB     -0.602800
     19 O9          4.6060   -0.1910   -2.5080 oh        1 SLB     -0.617800
     20 O10         0.0940    1.0380    3.9560 o         1 SLB     -0.617100
     21 H31        -3.5000   -0.2720    0.3330 hc        1 SLB      0.074200
     22 H32        -2.5280    1.2530    0.4990 hc        1 SLB      0.074200
     23 H4         -1.6840   -1.6400    1.3030 h1        1 SLB      0.075700
     24 H5         -0.1830    1.1070    1.4950 h1        1 SLB      0.100700
     25 H6          0.3910   -1.4450   -0.2200 h1        1 SLB      0.063700
     26 H7          2.4440    0.0330    0.5880 h1        1 SLB      0.064700
     27 H8          1.5460   -0.4820   -2.3280 h1        1 SLB      0.110700
     28 H91         3.0850    1.1360   -3.0340 h1        1 SLB      0.060200
     29 H92         3.8450    1.3030   -1.3780 h1        1 SLB      0.060200
     30 H111        1.3410   -0.2570    5.7100 hc        1 SLB      0.058033
     31 H112        0.8440   -1.8210    4.9290 hc        1 SLB      0.058033
     32 H113        2.4160   -1.0320    4.4650 hc        1 SLB      0.058033
     33 HN5         0.8730   -1.5400    2.3090 hn        1 SLB      0.292500
     34 HO2        -1.9300   -1.5420   -2.2860 ho        1 SLB      0.440000
     35 HO4        -2.0880    0.6390    2.9220 ho        1 SLB      0.412000
     36 HO7         0.9630    1.9290   -0.8800 ho        1 SLB      0.438000
     37 HO8         3.6490   -1.5240   -0.7560 ho        1 SLB      0.398000
     38 HO9         4.2920   -0.9360   -3.0370 ho        1 SLB      0.406000
     39 C10         0.6330   -0.0570    3.6910 c         1 SLB      0.657100
@<TRIPOS>BOND
     1    1    2 1   
     2    1   12 1   
     3    1   13 1   
     4    2    3 1   
     5    2   14 1   
     6    2   16 1   
     7    3    4 1   
     8    3   21 1   
     9    3   22 1   
    10    4    5 1   
    11    4   15 1   
    12    4   23 1   
    13    5    6 1   
    14    5   11 1   
    15    5   24 1   
    16    6    7 1   
    17    6   16 1   
    18    6   25 1   
    19    7    8 1   
    20    7   17 1   
    21    7   26 1   
    22    8    9 1   
    23    8   18 1   
    24    8   27 1   
    25    9   19 1   
    26    9   28 1   
    27    9   29 1   
    28   10   30 1   
    29   10   31 1   
    30   10   32 1   
    31   10   39 1   
    32   11   33 1   
    33   11   39 1   
    34   14   34 1   
    35   15   35 1   
    36   17   36 1   
    37   18   37 1   
    38   19   38 1   
    39   20   39 2   
@<TRIPOS>SUBSTRUCTURE
     1 SLB         1 TEMP              0 ****  ****    0 ROOT
