@<TRIPOS>MOLECULE
SLB
   40    49     1     0     0
SMALL
bcc


@<TRIPOS>ATOM
      1 C1          1.5060    0.0000    0.0000 c2        1 SLB      0.374000
      2 C2          0.0000    0.0000    0.0000 c3        1 SLB      0.101000
      3 C3         -0.5100    0.0000    1.4420 DU        1 SLB      0.244000
      4 C4         -2.0420    0.0330    1.4300 DU        1 SLB      0.258000
      5 C5         -2.5510   -1.1190    0.5570 DU        1 SLB     -0.321000
      6 C6         -1.8860   -1.0350   -0.8190 DU        1 SLB     -0.135000
      7 C7         -2.4120   -2.1640   -1.7080 DU        1 SLB     -0.057000
      8 C8         -1.7550   -2.0750   -3.0870 DU        1 SLB     -0.176000
      9 C9         -2.2810   -3.2030   -3.9760 c3        1 SLB      0.021000
     10 C11        -6.3140   -1.5210    1.1330 c3        1 SLB     -0.230000
     11 N5         -4.0040   -1.0150    0.4070 ny        1 SLB     -0.074000
     12 O1A         2.1790    1.0050    0.5830 o         1 SLB     -0.462500
     13 O1B         2.1110   -0.9070   -0.5230 o         1 SLB     -0.462500
     14 O2         -0.4730    1.1700   -0.6710 oh        1 SLB     -0.200000
     15 O4         -2.5390   -0.1180    2.7610 oh        1 SLB     -0.332000
     16 O6         -0.4740   -1.1600   -0.6820 os        1 SLB     -0.134000
     17 O7         -2.1000   -3.4240   -1.1130 oh        1 SLB     -0.226000
     18 O8         -2.0670   -0.8150   -3.6820 oh        1 SLB     -0.393000
     19 O9         -1.6670   -3.1200   -5.2640 oh        1 SLB     -0.190000
     20 O10        -4.3480   -2.2660    2.2050 o         1 SLB     -0.287000
     21 H31        -1.5160   -0.4010    1.4280 DU        1 SLB     -0.026500
     22 H32        -0.1720   -0.8980    1.9450 ha        1 SLB      0.135000
     23 H4         -1.0820    0.4580    1.6960 DU        1 SLB     -0.026500
     24 H5         -2.4660   -0.0640    0.7860 DU        1 SLB      0.221000
     25 H6         -2.0920   -1.5550    0.1090 DU        1 SLB      0.143000
     26 H7         -2.2650   -1.1130   -1.4890 DU        1 SLB      0.103000
     27 H8         -2.6280   -2.0730   -2.4460 DU        1 SLB      0.136000
     28 H91        -1.4740   -2.6830   -3.4760 DU        1 SLB      0.116000
     29 H92        -3.3550   -3.1090   -4.0820 h1        1 SLB      0.111000
     30 H111       -5.6380   -1.9390    0.3970 DU        1 SLB     -0.006000
     31 H112       -6.5750   -1.9500    0.1740 hc        1 SLB      0.097500
     32 H113       -6.5650   -0.4670    1.1380 hc        1 SLB      0.097500
     33 HN5        -4.8480   -1.3140    0.8530 hn        1 SLB     -0.071500
     34 HO2        -1.3380    0.8940   -0.4170 ho        1 SLB      0.154000
     35 HO4        -2.0050    0.2390    2.0700 ho        1 SLB      0.245000
     36 HO7        -2.1510   -2.7770   -0.4290 ho        1 SLB      0.225000
     37 HO8        -2.2310   -1.5660   -3.1360 DU        1 SLB      0.301000
     38 HO9        -1.6350   -2.2230   -4.9750 ho        1 SLB      0.225000
     39 C10        -4.8190   -1.6280    1.2880 c3        1 SLB      0.575000
     40 H52        -4.2500   -1.3850   -0.4900 hn        1 SLB     -0.071500
@<TRIPOS>BOND
     1    1    2 1   
     2    1   12 1   
     3    1   13 1   
     4    2    3 1   
     5    2   14 1   
     6    2   16 1   
     7    3    4 1   
     8    3   21 1   
     9    3   22 1   
    10    3   23 1   
    11    4    5 1   
    12    4   15 1   
    13    4   21 1   
    14    4   23 1   
    15    4   24 1   
    16    5    6 1   
    17    5   11 1   
    18    5   24 1   
    19    5   25 1   
    20    6    7 1   
    21    6   16 1   
    22    6   25 1   
    23    6   26 1   
    24    7    8 1   
    25    7   17 1   
    26    7   26 1   
    27    7   27 1   
    28    8    9 1   
    29    8   18 1   
    30    8   27 1   
    31    8   28 1   
    32    8   37 1   
    33    9   19 1   
    34    9   28 1   
    35    9   29 1   
    36   10   30 1   
    37   10   31 1   
    38   10   32 1   
    39   10   39 1   
    40   11   33 1   
    41   11   39 1   
    42   11   40 1   
    43   14   34 1   
    44   15   35 1   
    45   17   36 1   
    46   18   37 1   
    47   19   38 1   
    48   20   39 1   
    49   30   39 1   
@<TRIPOS>SUBSTRUCTURE
     1 SLB         1 TEMP              0 ****  ****    0 ROOT
