@<TRIPOS>MOLECULE
SLB
   40    40     1     0     0
SMALL
bcc


@<TRIPOS>ATOM
      1 C1          1.2970   -0.7450   -0.2050 c         1 SLB      0.942600
      2 C2         -0.2140   -0.2310   -0.1320 c3        1 SLB      0.168600
      3 C3         -0.7760   -0.3300    1.2820 c3        1 SLB     -0.124400
      4 C4         -2.2930   -0.2190    1.3230 c3        1 SLB      0.134100
      5 C5         -2.8800   -1.2080    0.2870 c3        1 SLB      0.053500
      6 C6         -2.3200   -0.8010   -1.1050 c3        1 SLB      0.099100
      7 C7         -2.9250   -1.6290   -2.2540 c3        1 SLB      0.134100
      8 C8         -2.0060   -1.6080   -3.4850 c3        1 SLB      0.097100
      9 C9         -0.9910   -2.7560   -3.5140 c3        1 SLB      0.087400
     10 C11        -5.7340   -0.5750    2.3320 c3        1 SLB     -0.184100
     11 N5         -4.3790   -1.2630    0.2910 n4        1 SLB     -0.668800
     12 O1A         2.0200   -0.0550   -0.9600 o         1 SLB     -0.769800
     13 O1B         1.5720   -1.7420    0.4930 o         1 SLB     -0.769800
     14 O2         -0.3840    1.0670   -0.6250 oh        1 SLB     -0.650800
     15 O4         -2.8440   -0.5060    2.5960 oh        1 SLB     -0.643800
     16 O6         -0.9320   -1.0560   -1.0570 os        1 SLB     -0.406600
     17 O7         -3.2770   -2.9230   -1.8010 oh        1 SLB     -0.632800
     18 O8         -2.8660   -1.6510   -4.6170 oh        1 SLB     -0.614800
     19 O9         -0.1870   -2.6310   -4.6690 oh        1 SLB     -0.602800
     20 O10        -4.7170   -2.7710    2.0300 o         1 SLB     -0.431100
     21 H31        -0.3310    0.4910    1.9010 hc        1 SLB      0.096700
     22 H32        -0.4370   -1.3170    1.7020 hc        1 SLB      0.096700
     23 H4         -2.6170    0.8340    1.0810 h1        1 SLB      0.085700
     24 H5         -2.5240   -2.2540    0.5340 hx        1 SLB      0.130700
     25 H6         -2.5070    0.2940   -1.2900 h1        1 SLB      0.077700
     26 H7         -3.9160   -1.1730   -2.5570 h1        1 SLB      0.074700
     27 H8         -1.4500   -0.6250   -3.4970 h1        1 SLB      0.071700
     28 H91        -0.3750   -2.7470   -2.5760 h1        1 SLB      0.075200
     29 H92        -1.5170   -3.7410   -3.6360 h1        1 SLB      0.075200
     30 H111       -6.2780   -1.0410    3.1940 hc        1 SLB      0.106367
     31 H112       -5.0270    0.2010    2.7330 hc        1 SLB      0.106367
     32 H113       -6.4740   -0.0910    1.6490 hc        1 SLB      0.106367
     33 HN5        -4.6450   -1.9840   -0.4020 hn        1 SLB      0.459800
     34 HO2         0.4060    1.2710   -1.1600 ho        1 SLB      0.458000
     35 HO4        -2.2040   -1.0280    3.0990 ho        1 SLB      0.439000
     36 HO7        -2.4620   -3.4260   -1.6690 ho        1 SLB      0.435000
     37 HO8        -2.3270   -1.9430   -5.3650 ho        1 SLB      0.430000
     38 HO9         0.5070   -1.9890   -4.4700 ho        1 SLB      0.421000
     39 C10        -4.9450   -1.6360    1.6410 c         1 SLB      0.577100
     40 H52        -4.7470   -0.3570   -0.0030 hn        1 SLB      0.459800
@<TRIPOS>BOND
     1    1    2 1   
     2    1   12 1   
     3    1   13 1   
     4    2    3 1   
     5    2   14 1   
     6    2   16 1   
     7    3    4 1   
     8    3   21 1   
     9    3   22 1   
    10    4    5 1   
    11    4   15 1   
    12    4   23 1   
    13    5    6 1   
    14    5   11 1   
    15    5   24 1   
    16    6    7 1   
    17    6   16 1   
    18    6   25 1   
    19    7    8 1   
    20    7   17 1   
    21    7   26 1   
    22    8    9 1   
    23    8   18 1   
    24    8   27 1   
    25    9   19 1   
    26    9   28 1   
    27    9   29 1   
    28   10   30 1   
    29   10   31 1   
    30   10   32 1   
    31   10   39 1   
    32   11   33 1   
    33   11   39 1   
    34   11   40 1   
    35   14   34 1   
    36   15   35 1   
    37   17   36 1   
    38   18   37 1   
    39   19   38 1   
    40   20   39 2   
@<TRIPOS>SUBSTRUCTURE
     1 SLB         1 TEMP              0 ****  ****    0 ROOT
