@<TRIPOS>MOLECULE
SLC
   26    26     1     0     0
SMALL
bcc


@<TRIPOS>ATOM
      1 C4         -0.3810   -0.6910   -0.0590 c         1 SLC      0.688300
      2 O1          0.6100   -1.4320    0.0900 o         1 SLC     -0.603100
      3 C2         -1.0690   -0.1120    1.1480 ce        1 SLC     -0.191400
      4 C3         -0.9300    1.1870    1.4220 c2        1 SLC     -0.164000
      5 C1         -1.7880   -1.1070    1.9680 c3        1 SLC      0.071900
      6 SE         -2.5910   -0.3250    3.3550 sh        1 SLC     -0.397900
      7 N          -0.9460   -0.4730   -1.3120 n         1 SLC     -0.422800
      8 C8         -0.0890   -0.1490   -2.4610 c3        1 SLC     -0.043300
      9 C9          0.8800    1.0670   -2.2600 c         1 SLC      0.910600
     10 O3          0.7780    1.7730   -1.2180 o         1 SLC     -0.835300
     11 C7         -1.0600    0.1920   -3.6100 c3        1 SLC     -0.070400
     12 C6         -2.3780    0.5750   -2.9420 c3        1 SLC     -0.080400
     13 C5         -2.2090    0.2390   -1.4480 c3        1 SLC      0.078000
     14 O2          1.6980    1.2760   -3.1950 o         1 SLC     -0.835300
     15 H31C       -0.3550    1.8480    0.7440 ha        1 SLC      0.149000
     16 H32C       -1.3640    1.6510    2.3190 ha        1 SLC      0.149000
     17 H11C       -1.0600   -1.8750    2.3350 h1        1 SLC      0.068200
     18 H12C       -2.5580   -1.6270    1.3440 h1        1 SLC      0.068200
     19 HSE        -3.0800   -1.4130    3.9180 hs        1 SLC      0.179800
     20 H8          0.5340   -1.0530   -2.6960 h1        1 SLC      0.068700
     21 H71C       -1.2000   -0.6910   -4.2800 hc        1 SLC      0.045200
     22 H72C       -0.6400    1.0300   -4.2190 hc        1 SLC      0.045200
     23 H61C       -2.5890    1.6640   -3.0660 hc        1 SLC      0.029700
     24 H62C       -3.2330    0.0040   -3.3770 hc        1 SLC      0.029700
     25 H51C       -3.0370   -0.4280   -1.0860 h1        1 SLC      0.030200
     26 H52C       -2.2250    1.1840   -0.8360 h1        1 SLC      0.030200
@<TRIPOS>BOND
     1    1    2 2   
     2    1    3 1   
     3    1    7 1   
     4    3    4 2   
     5    3    5 1   
     6    4   15 1   
     7    4   16 1   
     8    5    6 1   
     9    5   17 1   
    10    5   18 1   
    11    6   19 1   
    12    7    8 1   
    13    7   13 1   
    14    8    9 1   
    15    8   11 1   
    16    8   20 1   
    17    9   10 1   
    18    9   14 1   
    19   11   12 1   
    20   11   21 1   
    21   11   22 1   
    22   12   13 1   
    23   12   23 1   
    24   12   24 1   
    25   13   25 1   
    26   13   26 1   
@<TRIPOS>SUBSTRUCTURE
     1 SLC         1 TEMP              0 ****  ****    0 ROOT
