@<TRIPOS>MOLECULE
SLC
   26    26     1     0     0
SMALL
bcc


@<TRIPOS>ATOM
      1 C4          0.3720   -0.2440   -1.2050 c         1 SLC      0.688300
      2 O1          0.5490   -0.8950   -2.2530 o         1 SLC     -0.603100
      3 C2         -0.9050   -0.4150   -0.4260 ce        1 SLC     -0.191400
      4 C3         -0.8830   -1.0730    0.7340 c2        1 SLC     -0.164000
      5 C1         -2.1020    0.1250   -1.1030 c3        1 SLC      0.071900
      6 SE         -3.5550   -0.0950   -0.0950 sh        1 SLC     -0.397900
      7 N           1.2760    0.7290   -0.7900 n         1 SLC     -0.422800
      8 C8          2.7170    0.4420   -0.7860 c3        1 SLC     -0.043300
      9 C9          3.1480   -0.8440    0.0000 c         1 SLC      0.910600
     10 O3          2.2910   -1.4650    0.6880 o         1 SLC     -0.835300
     11 C7          3.3740    1.6640   -0.1110 c3        1 SLC     -0.070400
     12 C6          2.2730    2.3260    0.7140 c3        1 SLC     -0.080400
     13 C5          0.9660    1.6080    0.3290 c3        1 SLC      0.078000
     14 O2          4.3650   -1.1590   -0.0910 o         1 SLC     -0.835300
     15 H31C       -1.7940   -1.2750    1.3160 ha        1 SLC      0.149000
     16 H32C        0.0710   -1.4510    1.1500 ha        1 SLC      0.149000
     17 H11C       -1.9600    1.2150   -1.3100 h1        1 SLC      0.068200
     18 H12C       -2.2370   -0.4000   -2.0830 h1        1 SLC      0.068200
     19 HSE        -4.4390    0.4010   -0.9390 hs        1 SLC      0.179800
     20 H8          3.0510    0.3250   -1.8510 h1        1 SLC      0.068700
     21 H71C        4.2280    1.3260    0.5250 hc        1 SLC      0.045200
     22 H72C        3.7690    2.3720   -0.8800 hc        1 SLC      0.045200
     23 H61C        2.4650    2.2070    1.8070 hc        1 SLC      0.029700
     24 H62C        2.2000    3.4170    0.4900 hc        1 SLC      0.029700
     25 H51C        0.5640    1.0370    1.2120 h1        1 SLC      0.030200
     26 H52C        0.1810    2.3430    0.0000 h1        1 SLC      0.030200
@<TRIPOS>BOND
     1    1    2 2   
     2    1    3 1   
     3    1    7 1   
     4    3    4 2   
     5    3    5 1   
     6    4   15 1   
     7    4   16 1   
     8    5    6 1   
     9    5   17 1   
    10    5   18 1   
    11    6   19 1   
    12    7    8 1   
    13    7   13 1   
    14    8    9 1   
    15    8   11 1   
    16    8   20 1   
    17    9   10 1   
    18    9   14 1   
    19   11   12 1   
    20   11   21 1   
    21   11   22 1   
    22   12   13 1   
    23   12   23 1   
    24   12   24 1   
    25   13   25 1   
    26   13   26 1   
@<TRIPOS>SUBSTRUCTURE
     1 SLC         1 TEMP              0 ****  ****    0 ROOT
