@<TRIPOS>MOLECULE
SLC
   26    26     1     0     0
SMALL
bcc


@<TRIPOS>ATOM
      1 C4         -0.3970   -0.6720   -0.0260 c         1 SLC      0.688300
      2 O1          0.5830   -1.4190    0.1620 o         1 SLC     -0.603100
      3 C2         -1.0910   -0.0410    1.1510 ce        1 SLC     -0.191400
      4 C3         -0.9390    1.2650    1.3810 c2        1 SLC     -0.164000
      5 C1         -1.8340   -0.9970    1.9970 c3        1 SLC      0.071900
      6 SE         -2.6460   -0.1560    3.3430 sh        1 SLC     -0.397900
      7 N          -0.9430   -0.4910   -1.2930 n         1 SLC     -0.422800
      8 C8         -0.0670   -0.2190   -2.4410 c3        1 SLC     -0.043300
      9 C9          0.9150    0.9910   -2.2700 c         1 SLC      0.910600
     10 O3          0.8100    1.7340   -1.2550 o         1 SLC     -0.835300
     11 C7         -1.0190    0.0940   -3.6140 c3        1 SLC     -0.070400
     12 C6         -2.3410    0.5170   -2.9770 c3        1 SLC     -0.080400
     13 C5         -2.1940    0.2320   -1.4700 c3        1 SLC      0.078000
     14 O2          1.7480    1.1560   -3.2020 o         1 SLC     -0.835300
     15 H31C       -0.3460    1.8940    0.6880 ha        1 SLC      0.149000
     16 H32C       -1.3770    1.7660    2.2560 ha        1 SLC      0.149000
     17 H11C       -2.6020   -1.5300    1.3810 h1        1 SLC      0.068200
     18 H12C       -1.1210   -1.7600    2.4010 h1        1 SLC      0.068200
     19 HSE        -3.1570   -1.2160    3.9380 hs        1 SLC      0.179800
     20 H8          0.5460   -1.1380   -2.6360 h1        1 SLC      0.068700
     21 H71C       -0.5810    0.9050   -4.2470 hc        1 SLC      0.045200
     22 H72C       -1.1630   -0.8100   -4.2540 hc        1 SLC      0.045200
     23 H61C       -2.5350    1.6040   -3.1420 hc        1 SLC      0.029700
     24 H62C       -3.1980   -0.0580   -3.4020 hc        1 SLC      0.029700
     25 H51C       -2.2050    1.1980   -0.8920 h1        1 SLC      0.030200
     26 H52C       -3.0360   -0.4100   -1.0950 h1        1 SLC      0.030200
@<TRIPOS>BOND
     1    1    2 2   
     2    1    3 1   
     3    1    7 1   
     4    3    4 2   
     5    3    5 1   
     6    4   15 1   
     7    4   16 1   
     8    5    6 1   
     9    5   17 1   
    10    5   18 1   
    11    6   19 1   
    12    7    8 1   
    13    7   13 1   
    14    8    9 1   
    15    8   11 1   
    16    8   20 1   
    17    9   10 1   
    18    9   14 1   
    19   11   12 1   
    20   11   21 1   
    21   11   22 1   
    22   12   13 1   
    23   12   23 1   
    24   12   24 1   
    25   13   25 1   
    26   13   26 1   
@<TRIPOS>SUBSTRUCTURE
     1 SLC         1 TEMP              0 ****  ****    0 ROOT
