@<TRIPOS>MOLECULE
SLC
   26    23     1     0     0
SMALL
bcc


@<TRIPOS>ATOM
      1 C4          0.9360   -0.3030    0.7180 c1        1 SLC      0.356000
      2 O1          2.1170   -0.3650    0.7150 o         1 SLC     -0.344000
      3 C2          0.1710   -0.3110    2.0490 c2        1 SLC     -0.108000
      4 C3         -0.3650   -1.4580    2.5130 c1        1 SLC     -0.218000
      5 C1          0.0170    0.9690    2.8390 c3        1 SLC     -0.198000
      6 SE          1.3420    1.0400    4.1950 sh        1 SLC     -0.126000
      7 N           0.1920   -0.3000   -0.5590 n2        1 SLC     -0.286000
      8 C8          0.8080   -0.3720   -2.0190 c3        1 SLC     -0.069000
      9 C9          1.5030    0.9190   -2.3380 c1        1 SLC      0.332000
     10 O3          1.3070    1.9330   -1.6170 o         1 SLC     -0.595000
     11 C7         -0.2800   -0.6100   -2.7560 c3        1 SLC     -0.151000
     12 C6         -1.5200    0.0050   -1.9670 c3        1 SLC     -0.162000
     13 C5         -1.3210   -0.2240   -0.7290 c3        1 SLC     -0.038000
     14 O2          2.3810    0.9590   -3.2740 os        1 SLC     -0.552000
     15 H31C       -0.2660   -2.2880    2.0000 DU        1 SLC      0.112000
     16 H32C       -0.8560   -1.4630    3.3680 ha        1 SLC      0.102000
     17 H11C        0.1220    1.7310    2.2440 h1        1 SLC      0.127500
     18 H12C       -0.8570    0.9940    3.2430 h1        1 SLC      0.127500
     19 HSE         0.9880    1.9150    5.1060 hs        1 SLC      0.136000
     20 H8          1.5120   -1.0220   -2.1960 h1        1 SLC      0.108000
     21 H71C       -0.4010   -1.5570   -2.8680 hc        1 SLC      0.088500
     22 H72C       -0.1920   -0.1730   -3.6430 hc        1 SLC      0.088500
     23 H61C       -2.3410   -0.4200   -2.2550 hc        1 SLC      0.070000
     24 H62C       -1.5700    0.9560   -2.1220 hc        1 SLC      0.070000
     25 H51C       -1.6950    0.5220   -0.1730 h1        1 SLC      0.064500
     26 H52C       -1.7330   -1.0760   -0.4740 h1        1 SLC      0.064500
@<TRIPOS>BOND
     1    1    2 1   
     2    1    3 1   
     3    3    4 1   
     4    3    5 1   
     5    4   16 1   
     6    5    6 1   
     7    5   17 1   
     8    5   18 1   
     9    6   19 1   
    10    7    8 1   
    11    7   13 1   
    12    8    9 1   
    13    8   11 1   
    14    8   20 1   
    15    9   10 1   
    16   11   12 1   
    17   11   21 1   
    18   11   22 1   
    19   12   13 1   
    20   12   23 1   
    21   12   24 1   
    22   13   25 1   
    23   13   26 1   
@<TRIPOS>SUBSTRUCTURE
     1 SLC         1 TEMP              0 ****  ****    0 ROOT
