@<TRIPOS>MOLECULE
SLC
   26    26     1     0     0
SMALL
bcc


@<TRIPOS>ATOM
      1 C4         -0.3860   -0.6880   -0.0500 c         1 SLC      0.688300
      2 O1          0.6020   -1.4310    0.1080 o         1 SLC     -0.603100
      3 C2         -1.0760   -0.0960    1.1500 ce        1 SLC     -0.191400
      4 C3         -0.9340    1.2040    1.4130 c2        1 SLC     -0.164000
      5 C1         -1.8020   -1.0820    1.9760 c3        1 SLC      0.071900
      6 SE         -2.6080   -0.2860    3.3520 sh        1 SLC     -0.397900
      7 N          -0.9460   -0.4780   -1.3070 n         1 SLC     -0.422800
      8 C8         -0.0840   -0.1670   -2.4550 c3        1 SLC     -0.043300
      9 C9          0.8890    1.0480   -2.2600 c         1 SLC      0.910600
     10 O3          0.7850    1.7620   -1.2250 o         1 SLC     -0.835300
     11 C7         -1.0500    0.1690   -3.6110 c3        1 SLC     -0.070400
     12 C6         -2.3690    0.5610   -2.9500 c3        1 SLC     -0.080400
     13 C5         -2.2060    0.2370   -1.4530 c3        1 SLC      0.078000
     14 O2          1.7110    1.2450   -3.1950 o         1 SLC     -0.835300
     15 H31C       -0.3540    1.8570    0.7330 ha        1 SLC      0.149000
     16 H32C       -1.3690    1.6770    2.3050 ha        1 SLC      0.149000
     17 H11C       -2.5700   -1.6050    1.3530 h1        1 SLC      0.068200
     18 H12C       -1.0770   -1.8490    2.3520 h1        1 SLC      0.068200
     19 HSE        -3.1020   -1.3680    3.9240 hs        1 SLC      0.179800
     20 H8          0.5360   -1.0750   -2.6810 h1        1 SLC      0.068700
     21 H71C       -0.6250    1.0000   -4.2250 hc        1 SLC      0.045200
     22 H72C       -1.1910   -0.7200   -4.2740 hc        1 SLC      0.045200
     23 H61C       -3.2250   -0.0110   -3.3830 hc        1 SLC      0.029700
     24 H62C       -2.5760    1.6500   -3.0840 hc        1 SLC      0.029700
     25 H51C       -2.2210    1.1870   -0.8490 h1        1 SLC      0.030200
     26 H52C       -3.0380   -0.4240   -1.0880 h1        1 SLC      0.030200
@<TRIPOS>BOND
     1    1    2 2   
     2    1    3 1   
     3    1    7 1   
     4    3    4 2   
     5    3    5 1   
     6    4   15 1   
     7    4   16 1   
     8    5    6 1   
     9    5   17 1   
    10    5   18 1   
    11    6   19 1   
    12    7    8 1   
    13    7   13 1   
    14    8    9 1   
    15    8   11 1   
    16    8   20 1   
    17    9   10 1   
    18    9   14 1   
    19   11   12 1   
    20   11   21 1   
    21   11   22 1   
    22   12   13 1   
    23   12   23 1   
    24   12   24 1   
    25   13   25 1   
    26   13   26 1   
@<TRIPOS>SUBSTRUCTURE
     1 SLC         1 TEMP              0 ****  ****    0 ROOT
