@<TRIPOS>MOLECULE
SLD
   65    61     1     0     0
SMALL
bcc


@<TRIPOS>ATOM
      1 C1          2.0970   -0.0250   -1.9680 c1        1 SLD     -0.125500
      2 C2          3.3110   -0.6900   -2.0530 c1        1 SLD      0.129000
      3 C3          1.3500   -0.0980   -0.8120 c1        1 SLD     -0.125500
      4 N1          4.0710   -0.6240   -3.2410 n         1 SLD     -0.302000
      5 C4          3.7720   -1.4240   -0.9800 c1        1 SLD     -0.224000
      6 C5          5.3780   -0.1070   -3.3610 c3        1 SLD     -0.050000
      7 C6          3.6520   -1.0860   -4.5400 c2        1 SLD      0.404000
      8 C7          5.7450   -0.1970   -4.8030 c3        1 SLD     -0.022000
      9 C8          6.1350    1.1830   -5.3220 c3        1 SLD     -0.036000
     10 O1          4.6370   -0.6660   -5.5000 os        1 SLD     -0.240000
     11 N2          6.3230    1.1280   -6.7510 n         1 SLD     -0.371000
     12 C9          6.5500    2.3360   -7.4900 c2        1 SLD      0.297000
     13 C10         6.3360    2.3570   -9.0060 c3        1 SLD     -0.242000
     14 O2          6.8700    3.3450   -6.9120 o         1 SLD     -0.367000
     15 O3          2.6440   -1.7390   -4.7810 o         1 SLD     -0.309000
     16 C11         3.0210   -1.4990    0.1840 c1        1 SLD      0.130000
     17 C12         1.8110   -0.8370    0.2690 c1        1 SLD     -0.101000
     18 F1          3.5130   -2.1310    1.2550 f         1 SLD     -0.100000
     19 C2B         1.1040   -0.7150    1.6300 c2        1 SLD     -0.122000
     20 C3B        -0.1430   -1.2720    1.8130 c1        1 SLD     -0.155000
     21 C4B        -0.8190   -2.0030    0.6780 c2        1 SLD     -0.142000
     22 C5B        -1.9460   -2.8710    1.2340 c3        1 SLD     -0.181000
     23 CAS        -3.2340   -2.0220    1.3670 c3        1 SLD     -0.032000
     24 N5S        -3.4130   -1.6310    2.7400 n         1 SLD     -0.373000
     25 C0S        -4.6770   -1.0270    3.1710 c2        1 SLD      0.300000
     26 C9S        -5.0070   -0.9450    4.6480 c3        1 SLD     -0.190000
     27 O2S        -5.4820   -0.6690    2.3530 o         1 SLD     -0.380000
     28 C8S        -6.1840    0.0300    4.8640 c2        1 SLD      0.017000
     29 C1S        -4.4660    1.9160    5.1160 c1        1 SLD      0.348000
     30 O1S        -4.4160    3.1280    4.9800 o         1 SLD     -0.361000
     31 N2S        -4.0580    1.7350    6.0980 n2        1 SLD     -0.388000
     32 C3S        -4.9890    2.1640    7.1970 c2        1 SLD      0.346000
     33 O3S        -4.8240    1.7430    8.3430 o         1 SLD     -0.290000
     34 N4S        -6.5720    2.5490    6.6440 n2        1 SLD     -0.183000
     35 C5S        -6.7940    2.0520    5.2930 c1        1 SLD      0.103000
     36 C7S        -8.2270    1.7740    4.8010 c2        1 SLD     -0.200000
     37 C6S        -5.9430    1.3620    4.9890 c2        1 SLD     -0.233000
     38 H1          1.7720    0.4950   -2.7260 ha        1 SLD      0.160500
     39 H3          0.5010    0.3670   -0.7540 ha        1 SLD      0.160500
     40 H4          4.6150   -1.8860   -1.0400 ha        1 SLD      0.151000
     41 H5          5.9640   -0.7210   -2.8870 h1        1 SLD      0.111500
     42 H5A         5.3220    0.8480   -3.1470 h1        1 SLD      0.111500
     43 H7          6.4930   -0.8180   -4.9150 h1        1 SLD      0.135000
     44 H8          6.9740    1.4700   -4.8910 h1        1 SLD      0.117000
     45 H8A         5.4190    1.8280   -5.1090 h1        1 SLD      0.117000
     46 HN2         6.3420    0.3190   -7.1790 hn        1 SLD      0.231000
     47 H10         6.3600    3.2920   -9.3300 hc        1 SLD      0.109000
     48 H10A        7.0470    1.8400   -9.4440 hc        1 SLD      0.109000
     49 H10B        5.4660    1.9600   -9.2180 hc        1 SLD      0.109000
     50 H2B         1.5410   -0.2410    2.3660 ha        1 SLD      0.136000
     51 H3B        -0.5930   -1.1920    2.6830 ha        1 SLD      0.120000
     52 H4B        -1.1890   -1.3540    0.0460 ha        1 SLD      0.094500
     53 H4BA       -0.1590   -2.5750    0.2150 ha        1 SLD      0.094500
     54 H5B        -2.1090   -3.6100    0.6330 hc        1 SLD      0.096500
     55 H5BA       -1.6910   -3.2130    2.1050 hc        1 SLD      0.096500
     56 HAS        -4.0050   -2.5510    1.0760 h1        1 SLD      0.103500
     57 HASA       -3.1570   -1.2290    0.8130 h1        1 SLD      0.103500
     58 HN5S       -2.7140   -1.7170    3.3390 hn        1 SLD      0.228000
     59 H9S        -5.2540   -1.8270    4.9730 hc        1 SLD      0.152500
     60 H9SA       -4.2280   -0.6250    5.1360 hc        1 SLD      0.152500
     61 H8S        -7.0940   -0.2900    4.7880 ha        1 SLD      0.175000
     62 HN2S       -3.1560    1.7590    6.2290 hn        1 SLD      0.260000
     63 H7S        -8.6420    1.0920    5.3710 ha        1 SLD      0.111000
     64 H7SA       -8.7550    2.6040    4.8440 ha        1 SLD      0.111000
     65 H7SB       -8.1980    1.4530    3.8760 ha        1 SLD      0.111000
@<TRIPOS>BOND
     1    1    3 1   
     2    1   38 1   
     3    2    4 1   
     4    2    5 1   
     5    3   39 1   
     6    4    6 1   
     7    4    7 1   
     8    5   40 1   
     9    6    8 1   
    10    6   41 1   
    11    6   42 1   
    12    7   10 1   
    13    7   15 1   
    14    8    9 1   
    15    8   10 1   
    16    8   43 1   
    17    9   11 1   
    18    9   44 1   
    19    9   45 1   
    20   11   12 1   
    21   11   46 1   
    22   12   13 1   
    23   12   14 1   
    24   13   47 1   
    25   13   48 1   
    26   13   49 1   
    27   16   17 1   
    28   16   18 1   
    29   17   19 1   
    30   19   20 1   
    31   19   50 1   
    32   20   51 1   
    33   21   22 1   
    34   21   52 1   
    35   21   53 1   
    36   22   23 1   
    37   22   54 1   
    38   22   55 1   
    39   23   24 1   
    40   23   56 1   
    41   23   57 1   
    42   24   25 1   
    43   24   58 1   
    44   25   26 1   
    45   25   27 1   
    46   26   28 1   
    47   26   59 1   
    48   26   60 1   
    49   28   37 1   
    50   28   61 1   
    51   29   30 1   
    52   29   37 1   
    53   31   32 1   
    54   31   62 1   
    55   32   33 1   
    56   32   34 1   
    57   34   35 1   
    58   35   37 1   
    59   36   63 1   
    60   36   64 1   
    61   36   65 1   
@<TRIPOS>SUBSTRUCTURE
     1 SLD         1 TEMP              0 ****  ****    0 ROOT
