@<TRIPOS>MOLECULE
SLD
   67    69     1     0     0
SMALL
bcc


@<TRIPOS>ATOM
      1 C1         -1.8290   -1.1950   -0.2990 ca        1 SLD     -0.171000
      2 C2         -1.0580   -0.2040    0.3500 ca        1 SLD      0.095600
      3 C3         -3.0950   -1.5130    0.1730 ca        1 SLD     -0.061000
      4 N1          0.2510    0.0760   -0.0950 n         1 SLD     -0.378000
      5 C4         -1.5960    0.4590    1.4680 ca        1 SLD     -0.189000
      6 C5          0.7660   -0.4420   -1.3550 c3        1 SLD      0.068000
      7 C6          1.0290    1.1590    0.3370 c         1 SLD      0.833600
      8 C7          2.0530    0.3890   -1.6130 c3        1 SLD      0.098100
      9 C8          3.3120   -0.4830   -1.5570 c3        1 SLD      0.088800
     10 O1          2.1140    1.3480   -0.5390 os        1 SLD     -0.440900
     11 N2          4.5540    0.3360   -1.4630 n4        1 SLD     -0.685800
     12 C9          5.8230   -0.5000   -1.3070 c         1 SLD      0.558100
     13 C10         7.0620    0.2920   -1.0720 c3        1 SLD     -0.191100
     14 O2          5.6820   -1.7060   -1.3890 o         1 SLD     -0.388100
     15 O3          0.9970    1.9100    1.3030 o         1 SLD     -0.533500
     16 C11        -2.8840    0.1260    1.9250 ca        1 SLD      0.155900
     17 C12        -3.6560   -0.8660    1.2840 ca        1 SLD     -0.103800
     18 F1         -3.3640    0.7810    3.0120 f         1 SLD     -0.152900
     19 C2B        -4.9670   -1.2980    1.7510 ce        1 SLD     -0.096200
     20 C3B        -6.0750   -0.5600    1.8710 c2        1 SLD     -0.175200
     21 C4B        -6.2080    0.8750    1.5290 c3        1 SLD     -0.051200
     22 C5B        -7.0980    1.6240    2.5060 c3        1 SLD     -0.101400
     23 CAS        -6.4780    1.5790    3.8980 c3        1 SLD      0.100800
     24 N5S        -7.2540    2.3720    4.9000 n4        1 SLD     -0.684800
     25 C0S        -6.6540    2.2460    6.2910 c         1 SLD      0.551100
     26 C9S        -5.4780    3.1350    6.5560 c3        1 SLD     -0.134200
     27 O2S        -7.2040    1.4390    7.0200 o         1 SLD     -0.399100
     28 C8S        -4.9760    3.0100    7.9470 c2        1 SLD     -0.073200
     29 C1S        -3.1210    4.5840    7.4730 c         1 SLD      0.704700
     30 O1S        -3.4780    4.7790    6.2900 o         1 SLD     -0.661500
     31 N2S        -1.9930    5.1960    7.9760 n         1 SLD     -0.594500
     32 C3S        -1.5490    4.9990    9.3180 c         1 SLD      0.820900
     33 O3S        -0.5100    5.5640    9.6760 o         1 SLD     -0.506500
     34 N4S        -2.3100    4.1630   10.1990 nc        1 SLD     -0.563100
     35 C5S        -3.3810    3.5620    9.7770 cd        1 SLD      0.532600
     36 C7S        -4.1740    2.6990   10.7110 c3        1 SLD     -0.160400
     37 C6S        -3.8920    3.6770    8.3850 cd        1 SLD     -0.256800
     38 H1         -1.4400   -1.7390   -1.1740 ha        1 SLD      0.147000
     39 H3         -3.6790   -2.2970   -0.3380 ha        1 SLD      0.163000
     40 H4         -1.0290    1.2360    2.0100 ha        1 SLD      0.187000
     41 H5          0.9890   -1.5380   -1.2500 h1        1 SLD      0.092700
     42 H5A         0.0310   -0.2940   -2.1940 h1        1 SLD      0.092700
     43 H7          1.9920    0.9710   -2.5710 h1        1 SLD      0.109700
     44 H8          3.2800   -1.1590   -0.6530 hx        1 SLD      0.126200
     45 H8A         3.3700   -1.1270   -2.4810 hx        1 SLD      0.126200
     46 HN2         4.4660    0.9700   -0.6540 hn        1 SLD      0.469300
     47 H10         7.9350   -0.4170   -1.0510 hc        1 SLD      0.122367
     48 H10A        7.2300    1.0410   -1.8870 hc        1 SLD      0.122367
     49 H10B        7.0120    0.8230   -0.0860 hc        1 SLD      0.122367
     50 H2B        -5.0100   -2.3790    1.9930 ha        1 SLD      0.152000
     51 H3B        -7.0090   -1.0460    2.2090 ha        1 SLD      0.136000
     52 H4B        -5.2000    1.3690    1.4800 hc        1 SLD      0.078200
     53 H4BA       -6.6710    0.9590    0.5040 hc        1 SLD      0.078200
     54 H5B        -7.2040    2.6860    2.1560 hc        1 SLD      0.071200
     55 H5BA       -8.1190    1.1590    2.5190 hc        1 SLD      0.071200
     56 HAS        -5.4240    1.9840    3.8640 hx        1 SLD      0.115200
     57 HASA       -6.4400    0.5090    4.2600 hx        1 SLD      0.115200
     58 HN5S       -8.2240    2.0270    4.9180 hn        1 SLD      0.461800
     59 H9S        -5.7520    4.2160    6.3550 hc        1 SLD      0.141700
     60 H9SA       -4.6470    2.8860    5.8270 hc        1 SLD      0.141700
     61 H8S        -5.5430    2.3380    8.6180 ha        1 SLD      0.174000
     62 HN2S       -1.4680    5.8140    7.3900 hn        1 SLD      0.359500
     63 H7S        -4.1890    1.6500   10.3250 hc        1 SLD      0.079033
     64 H7SA       -3.7370    2.6860   11.7430 hc        1 SLD      0.079033
     65 H7SB       -5.2200    3.0900   10.7790 hc        1 SLD      0.079033
     66 H22         4.6450    0.9180   -2.3040 hn        1 SLD      0.469300
     67 H5S2       -7.2650    3.3580    4.6180 hn        1 SLD      0.461800
@<TRIPOS>BOND
     1    1    2 ar  
     2    1    3 ar  
     3    1   38 1   
     4    2    4 1   
     5    2    5 ar  
     6    3   17 ar  
     7    3   39 1   
     8    4    6 1   
     9    4    7 1   
    10    5   16 ar  
    11    5   40 1   
    12    6    8 1   
    13    6   41 1   
    14    6   42 1   
    15    7   10 1   
    16    7   15 2   
    17    8    9 1   
    18    8   10 1   
    19    8   43 1   
    20    9   11 1   
    21    9   44 1   
    22    9   45 1   
    23   11   12 1   
    24   11   46 1   
    25   11   66 1   
    26   12   13 1   
    27   12   14 2   
    28   13   47 1   
    29   13   48 1   
    30   13   49 1   
    31   16   17 ar  
    32   16   18 1   
    33   17   19 1   
    34   19   20 2   
    35   19   50 1   
    36   20   21 1   
    37   20   51 1   
    38   21   22 1   
    39   21   52 1   
    40   21   53 1   
    41   22   23 1   
    42   22   54 1   
    43   22   55 1   
    44   23   24 1   
    45   23   56 1   
    46   23   57 1   
    47   24   25 1   
    48   24   58 1   
    49   24   67 1   
    50   25   26 1   
    51   25   27 2   
    52   26   28 1   
    53   26   59 1   
    54   26   60 1   
    55   28   37 2   
    56   28   61 1   
    57   29   30 2   
    58   29   31 1   
    59   29   37 1   
    60   31   32 1   
    61   31   62 1   
    62   32   33 2   
    63   32   34 1   
    64   34   35 2   
    65   35   36 1   
    66   35   37 1   
    67   36   63 1   
    68   36   64 1   
    69   36   65 1   
@<TRIPOS>SUBSTRUCTURE
     1 SLD         1 TEMP              0 ****  ****    0 ROOT
