@<TRIPOS>MOLECULE
SLD
   67    69     1     0     0
SMALL
bcc


@<TRIPOS>ATOM
      1 C1         -1.6390   -1.5110   -0.0090 ca        1 SLD     -0.171000
      2 C2         -0.9850   -0.3600    0.4870 ca        1 SLD      0.095600
      3 C3         -2.8330   -1.9330    0.5600 ca        1 SLD     -0.061000
      4 N1          0.2570    0.0350   -0.0520 n         1 SLD     -0.378000
      5 C4         -1.5650    0.3510    1.5540 ca        1 SLD     -0.189000
      6 C5          0.7900   -0.5550   -1.2740 c3        1 SLD      0.068000
      7 C6          0.8970    1.2520    0.2170 c         1 SLD      0.833600
      8 C7          1.9440    0.4010   -1.6860 c3        1 SLD      0.098100
      9 C8          3.3110   -0.2880   -1.6000 c3        1 SLD      0.088800
     10 O1          1.9140    1.4770   -0.7290 os        1 SLD     -0.440900
     11 N2          4.4330    0.6910   -1.6600 n4        1 SLD     -0.685800
     12 C9          5.8080    0.0500   -1.4770 c         1 SLD      0.558100
     13 C10         6.9350    1.0180   -1.3870 c3        1 SLD     -0.191100
     14 O2          5.8280   -1.1660   -1.4230 o         1 SLD     -0.388100
     15 O3          0.8000    2.0980    1.0960 o         1 SLD     -0.533500
     16 C11        -2.7790   -0.0910    2.1100 ca        1 SLD      0.155900
     17 C12        -3.4330   -1.2420    1.6220 ca        1 SLD     -0.103800
     18 F1         -3.3020    0.6180    3.1430 f         1 SLD     -0.152900
     19 C2B        -4.6560   -1.7830    2.2010 ce        1 SLD     -0.096200
     20 C3B        -5.8480   -1.1860    2.2980 c2        1 SLD     -0.175200
     21 C4B        -6.1870    0.1700    1.8080 c3        1 SLD     -0.051200
     22 C5B        -7.1280    0.9070    2.7450 c3        1 SLD     -0.101400
     23 CAS        -6.4510    1.1050    4.0960 c3        1 SLD      0.100800
     24 N5S        -7.2820    1.9050    5.0470 n4        1 SLD     -0.684800
     25 C0S        -6.6120    2.0220    6.4060 c         1 SLD      0.551100
     26 C9S        -5.5470    3.0710    6.4990 c3        1 SLD     -0.134200
     27 O2S        -7.0260    1.2500    7.2540 o         1 SLD     -0.399100
     28 C8S        -4.9720    3.1750    7.8630 c2        1 SLD     -0.073200
     29 C1S        -3.3480    4.8850    7.1040 c         1 SLD      0.704700
     30 O1S        -3.7790    4.8940    5.9300 o         1 SLD     -0.661500
     31 N2S        -2.2800    5.6780    7.4650 n         1 SLD     -0.594500
     32 C3S        -1.7540    5.6970    8.7920 c         1 SLD      0.820900
     33 O3S        -0.7750    6.4150    9.0200 o         1 SLD     -0.506500
     34 N4S        -2.3680    4.8920    9.8070 nc        1 SLD     -0.563100
     35 C5S        -3.3760    4.1260    9.5210 cd        1 SLD      0.532600
     36 C7S        -4.0170    3.2970   10.5930 c3        1 SLD     -0.160400
     37 C6S        -3.9590    4.0110    8.1570 cd        1 SLD     -0.256800
     38 H1         -1.2140   -2.0960   -0.8390 ha        1 SLD      0.147000
     39 H3         -3.3240   -2.8400    0.1680 ha        1 SLD      0.163000
     40 H4         -1.0880    1.2530    1.9770 ha        1 SLD      0.187000
     41 H5          1.1630   -1.5930   -1.0600 h1        1 SLD      0.092700
     42 H5A         0.0120   -0.6000   -2.0840 h1        1 SLD      0.092700
     43 H7          1.7700    0.8560   -2.6980 h1        1 SLD      0.109700
     44 H8          3.4210   -1.0200   -2.4510 hx        1 SLD      0.126200
     45 H8A         3.4030   -0.8540   -0.6280 hx        1 SLD      0.126200
     46 HN2         4.2890    1.3970   -0.9220 hn        1 SLD      0.469300
     47 H10         6.8490    1.6420   -0.4590 hc        1 SLD      0.122367
     48 H10A        7.8970    0.4370   -1.3370 hc        1 SLD      0.122367
     49 H10B        6.9710    1.6900   -2.2810 hc        1 SLD      0.122367
     50 H2B        -4.5440   -2.8250    2.5620 ha        1 SLD      0.152000
     51 H3B        -6.6940   -1.7470    2.7360 ha        1 SLD      0.136000
     52 H4B        -6.6980    0.0740    0.8080 hc        1 SLD      0.078200
     53 H4BA       -5.2570    0.7810    1.6500 hc        1 SLD      0.078200
     54 H5B        -8.0760    0.3190    2.8680 hc        1 SLD      0.071200
     55 H5BA       -7.3910    1.8980    2.2870 hc        1 SLD      0.071200
     56 HAS        -6.2550    0.0990    4.5720 hx        1 SLD      0.115200
     57 HASA       -5.4620    1.6340    3.9580 hx        1 SLD      0.115200
     58 HN5S       -7.4370    2.8410    4.6580 hn        1 SLD      0.461800
     59 H9S        -4.7240    2.8370    5.7550 hc        1 SLD      0.141700
     60 H9SA       -5.9630    4.0790    6.1930 hc        1 SLD      0.141700
     61 H8S        -5.4220    2.5270    8.6390 ha        1 SLD      0.174000
     62 HN2S       -1.8610    6.2770    6.7820 hn        1 SLD      0.359500
     63 H7S        -3.9210    2.2140   10.3330 hc        1 SLD      0.079033
     64 H7SA       -3.5360    3.4620   11.5920 hc        1 SLD      0.079033
     65 H7SB       -5.0980    3.5710   10.6770 hc        1 SLD      0.079033
     66 H22         4.4150    1.1780   -2.5630 hn        1 SLD      0.469300
     67 H5S2       -8.1960    1.4440    5.1590 hn        1 SLD      0.461800
@<TRIPOS>BOND
     1    1    2 ar  
     2    1    3 ar  
     3    1   38 1   
     4    2    4 1   
     5    2    5 ar  
     6    3   17 ar  
     7    3   39 1   
     8    4    6 1   
     9    4    7 1   
    10    5   16 ar  
    11    5   40 1   
    12    6    8 1   
    13    6   41 1   
    14    6   42 1   
    15    7   10 1   
    16    7   15 2   
    17    8    9 1   
    18    8   10 1   
    19    8   43 1   
    20    9   11 1   
    21    9   44 1   
    22    9   45 1   
    23   11   12 1   
    24   11   46 1   
    25   11   66 1   
    26   12   13 1   
    27   12   14 2   
    28   13   47 1   
    29   13   48 1   
    30   13   49 1   
    31   16   17 ar  
    32   16   18 1   
    33   17   19 1   
    34   19   20 2   
    35   19   50 1   
    36   20   21 1   
    37   20   51 1   
    38   21   22 1   
    39   21   52 1   
    40   21   53 1   
    41   22   23 1   
    42   22   54 1   
    43   22   55 1   
    44   23   24 1   
    45   23   56 1   
    46   23   57 1   
    47   24   25 1   
    48   24   58 1   
    49   24   67 1   
    50   25   26 1   
    51   25   27 2   
    52   26   28 1   
    53   26   59 1   
    54   26   60 1   
    55   28   37 2   
    56   28   61 1   
    57   29   30 2   
    58   29   31 1   
    59   29   37 1   
    60   31   32 1   
    61   31   62 1   
    62   32   33 2   
    63   32   34 1   
    64   34   35 2   
    65   35   36 1   
    66   35   37 1   
    67   36   63 1   
    68   36   64 1   
    69   36   65 1   
@<TRIPOS>SUBSTRUCTURE
     1 SLD         1 TEMP              0 ****  ****    0 ROOT
