@<TRIPOS>MOLECULE
SLD
   67    69     1     0     0
SMALL
bcc


@<TRIPOS>ATOM
      1 C1         -0.2000   -0.7120   -0.1830 ca        1 SLD     -0.183000
      2 C2          0.8820    0.1430   -0.4880 ca        1 SLD      0.099600
      3 C3         -0.9600   -0.4960    0.9610 ca        1 SLD     -0.062000
      4 N1          1.6920   -0.1060   -1.6160 n         1 SLD     -0.377000
      5 C4          1.1720    1.2180    0.3740 ca        1 SLD     -0.194000
      6 C5          1.3490   -1.1160   -2.6080 c3        1 SLD      0.069000
      7 C6          2.6120    0.8050   -2.1520 c         1 SLD      0.831600
      8 C7          2.2860   -0.8050   -3.8080 c3        1 SLD      0.098100
      9 C8          3.3220   -1.9160   -4.0240 c3        1 SLD      0.088800
     10 O1          2.9830    0.4010   -3.4500 os        1 SLD     -0.444900
     11 N2          4.4450   -1.4680   -4.8960 ny        1 SLD     -0.684800
     12 C9          5.5440   -2.5150   -5.0510 c         1 SLD      0.558100
     13 C10         6.8270   -1.9930   -5.5970 c3        1 SLD     -0.191100
     14 O2          5.2550   -3.6480   -4.7130 o         1 SLD     -0.391100
     15 O3          3.1850    1.8020   -1.7330 o         1 SLD     -0.524500
     16 C11         0.3950    1.4160    1.5270 ca        1 SLD      0.180900
     17 C12        -0.6890    0.5570    1.8400 ca        1 SLD     -0.113800
     18 F1          0.7000    2.4500    2.3430 f         1 SLD     -0.118900
     19 C2B        -1.4450    0.7700    3.0610 ce        1 SLD     -0.076200
     20 C3B        -2.7090    0.3770    3.2660 c2        1 SLD     -0.182200
     21 C4B        -3.4040    0.5740    4.5630 c3        1 SLD     -0.041200
     22 C5B        -4.6880    1.3660    4.3770 c3        1 SLD     -0.106400
     23 CAS        -5.3620    1.5410    5.7330 c3        1 SLD      0.104800
     24 N5S        -6.6270    2.3350    5.6510 ny        1 SLD     -0.686800
     25 C0S        -7.2990    2.4460    7.0130 c         1 SLD      0.551100
     26 C9S        -6.7980    3.5650    7.8710 c3        1 SLD     -0.132200
     27 O2S        -8.1620    1.6130    7.2290 o         1 SLD     -0.397100
     28 C8S        -7.5030    3.6400    9.1760 c2        1 SLD     -0.080200
     29 C1S        -6.1020    5.5610    9.8760 c         1 SLD      0.704700
     30 O1S        -5.4470    5.5730    8.8090 o         1 SLD     -0.664500
     31 N2S        -5.8370    6.4710   10.8750 ns        1 SLD     -0.592500
     32 C3S        -6.5590    6.4870   12.1060 c         1 SLD      0.819900
     33 O3S        -6.2550    7.3380   12.9500 o         1 SLD     -0.499500
     34 N4S        -7.6030    5.5290   12.3260 nc        1 SLD     -0.559100
     35 C5S        -7.8940    4.6500   11.4180 cd        1 SLD      0.530600
     36 C7S        -8.9890    3.6540   11.6600 c3        1 SLD     -0.159400
     37 C6S        -7.1930    4.5590   10.1090 cd        1 SLD     -0.250800
     38 H1         -0.4520   -1.5650   -0.8310 ha        1 SLD      0.141000
     39 H3         -1.7910   -1.1850    1.1860 ha        1 SLD      0.150000
     40 H4          2.0040    1.9170    0.1740 ha        1 SLD      0.192000
     41 H5          1.5340   -2.1400   -2.1840 h1        1 SLD      0.090200
     42 H5A         0.2730   -1.0370   -2.9250 h1        1 SLD      0.090200
     43 H7          1.7100   -0.5880   -4.7470 h1        1 SLD      0.109700
     44 H8          3.7650   -2.2350   -3.0350 hx        1 SLD      0.124700
     45 H8A         2.8280   -2.8120   -4.4980 hx        1 SLD      0.124700
     46 HN2         4.8480   -0.6080   -4.4930 hn        1 SLD      0.469300
     47 H10         7.3370   -1.3450   -4.8370 hc        1 SLD      0.122367
     48 H10A        6.6720   -1.4060   -6.5370 hc        1 SLD      0.122367
     49 H10B        7.4970   -2.8680   -5.8240 hc        1 SLD      0.122367
     50 H2B        -0.8870    1.3080    3.8530 ha        1 SLD      0.146000
     51 H3B        -3.2950   -0.1380    2.4890 ha        1 SLD      0.131000
     52 H4B        -3.6440   -0.4350    4.9990 hc        1 SLD      0.064200
     53 H4BA       -2.7370    1.1060    5.2950 hc        1 SLD      0.064200
     54 H5B        -4.4460    2.3650    3.9250 hc        1 SLD      0.072200
     55 H5BA       -5.3650    0.8210    3.6680 hc        1 SLD      0.072200
     56 HAS        -4.6660    2.0750    6.4430 hx        1 SLD      0.110700
     57 HASA       -5.6220    0.5320    6.1680 hx        1 SLD      0.110700
     58 HN5S       -7.2680    1.8700    4.9940 hn        1 SLD      0.461300
     59 H9S        -5.6860    3.4400    8.0470 hc        1 SLD      0.141200
     60 H9SA       -6.9160    4.5520    7.3270 hc        1 SLD      0.141200
     61 H8S        -8.3060    2.8990    9.3460 ha        1 SLD      0.173000
     62 HN2S       -5.1170    7.1520   10.7410 hn        1 SLD      0.362500
     63 H7S        -9.4630    3.7910   12.6660 hc        1 SLD      0.078367
     64 H7SA       -8.5680    2.6200   11.6100 hc        1 SLD      0.078367
     65 H7SB       -9.7800    3.7770   10.8800 hc        1 SLD      0.078367
     66 H22         4.0810   -1.2330   -5.8260 hn        1 SLD      0.469300
     67 H5S2       -6.4170    3.2730    5.2930 hn        1 SLD      0.461300
@<TRIPOS>BOND
     1    1    2 ar  
     2    1    3 ar  
     3    1   38 1   
     4    2    4 1   
     5    2    5 ar  
     6    3   17 ar  
     7    3   39 1   
     8    4    6 1   
     9    4    7 1   
    10    5   16 ar  
    11    5   40 1   
    12    6    8 1   
    13    6   41 1   
    14    6   42 1   
    15    7   10 1   
    16    7   15 2   
    17    8    9 1   
    18    8   10 1   
    19    8   43 1   
    20    9   11 1   
    21    9   44 1   
    22    9   45 1   
    23   11   12 1   
    24   11   46 1   
    25   11   66 1   
    26   12   13 1   
    27   12   14 2   
    28   13   47 1   
    29   13   48 1   
    30   13   49 1   
    31   16   17 ar  
    32   16   18 1   
    33   17   19 1   
    34   19   20 2   
    35   19   50 1   
    36   20   21 1   
    37   20   51 1   
    38   21   22 1   
    39   21   52 1   
    40   21   53 1   
    41   22   23 1   
    42   22   54 1   
    43   22   55 1   
    44   23   24 1   
    45   23   56 1   
    46   23   57 1   
    47   24   25 1   
    48   24   58 1   
    49   24   67 1   
    50   25   26 1   
    51   25   27 2   
    52   26   28 1   
    53   26   59 1   
    54   26   60 1   
    55   28   37 2   
    56   28   61 1   
    57   29   30 2   
    58   29   31 1   
    59   29   37 1   
    60   31   32 1   
    61   31   62 1   
    62   32   33 2   
    63   32   34 1   
    64   34   35 2   
    65   35   36 1   
    66   35   37 1   
    67   36   63 1   
    68   36   64 1   
    69   36   65 1   
@<TRIPOS>SUBSTRUCTURE
     1 SLD         1 TEMP              0 ****  ****    0 ROOT
