@<TRIPOS>MOLECULE
SLD
   65    67     1     0     0
SMALL
bcc


@<TRIPOS>ATOM
      1 C1         -4.1470    0.5860   -0.4060 ca        1 SLD     -0.196000
      2 C2         -5.1190    0.4110    0.6080 ca        1 SLD      0.119600
      3 C3         -2.8840    1.0660   -0.0910 ca        1 SLD     -0.071000
      4 N1         -6.3960   -0.0600    0.2840 n         1 SLD     -0.398000
      5 C4         -4.7800    0.7360    1.9370 ca        1 SLD     -0.207000
      6 C5         -6.7660   -0.4800   -1.0590 c3        1 SLD      0.067000
      7 C6         -7.4340   -0.3510    1.1840 c         1 SLD      0.834600
      8 C7         -8.2010   -1.0440   -0.9020 c3        1 SLD      0.089100
      9 C8         -9.2260   -0.2300   -1.7050 c3        1 SLD      0.080000
     10 O1         -8.5060   -0.9250    0.5130 os        1 SLD     -0.401900
     11 N2        -10.5800   -0.6670   -1.5540 n         1 SLD     -0.560900
     12 C9        -11.1740   -1.5380   -2.4580 c         1 SLD      0.653100
     13 C10       -12.5590   -2.0340   -2.1300 c3        1 SLD     -0.174100
     14 O2        -10.5950   -1.8510   -3.5170 o         1 SLD     -0.607100
     15 O3         -7.5600   -0.1820    2.3960 o         1 SLD     -0.581500
     16 C11        -3.4970    1.2210    2.2320 ca        1 SLD      0.166900
     17 C12        -2.5190    1.3900    1.2210 ca        1 SLD     -0.110800
     18 F1         -3.2040    1.5280    3.5190 f         1 SLD     -0.132900
     19 C2B        -1.2020    1.8960    1.5600 ce        1 SLD     -0.111200
     20 C3B        -0.1100    1.7700    0.7950 c2        1 SLD     -0.157200
     21 C4B         1.2110    2.3280    1.1750 c3        1 SLD     -0.047200
     22 C5B         2.3160    1.3080    0.9770 c3        1 SLD     -0.102400
     23 CAS         3.6630    1.9280    1.3550 c3        1 SLD      0.084000
     24 N5S         4.7790    1.0290    1.2530 n         1 SLD     -0.560900
     25 C0S         5.7340    1.1380    0.2650 c         1 SLD      0.656100
     26 C9S         6.7950    0.0480    0.2270 c3        1 SLD     -0.157200
     27 O2S         5.7470    2.0970   -0.5340 o         1 SLD     -0.617100
     28 C8S         7.8240    0.3070   -0.8000 c2        1 SLD      0.011800
     29 C1S         9.0610   -1.7760   -0.2870 c         1 SLD      0.709700
     30 O1S         8.2850   -2.1510    0.6150 o         1 SLD     -0.636500
     31 N2S        10.1610   -2.5620   -0.6090 n         1 SLD     -0.608500
     32 C3S        11.0840   -2.2000   -1.6230 c         1 SLD      0.827900
     33 O3S        12.0400   -2.9600   -1.8470 o         1 SLD     -0.564500
     34 N4S        10.8970   -0.9840   -2.3550 nc        1 SLD     -0.610100
     35 C5S         9.8810   -0.2150   -2.0880 cd        1 SLD      0.552600
     36 C7S         9.6950    1.0570   -2.8620 c3        1 SLD     -0.157400
     37 C6S         8.8680   -0.5110   -1.0510 cd        1 SLD     -0.337800
     38 H1         -4.3790    0.3510   -1.4560 ha        1 SLD      0.138000
     39 H3         -2.1500    1.2000   -0.9020 ha        1 SLD      0.141000
     40 H4         -5.5060    0.6180    2.7600 ha        1 SLD      0.187000
     41 H5         -6.7430    0.3990   -1.7600 h1        1 SLD      0.071700
     42 H5A        -6.0640   -1.2700   -1.4390 h1        1 SLD      0.071700
     43 H7         -8.2510   -2.1380   -1.1430 h1        1 SLD      0.095700
     44 H8         -9.1670    0.8450   -1.3700 h1        1 SLD      0.077700
     45 H8A        -8.9350   -0.2940   -2.7940 h1        1 SLD      0.077700
     46 HN2       -10.9660   -0.5970   -0.6400 hn        1 SLD      0.317500
     47 H10       -13.2680   -1.1770   -2.0340 hc        1 SLD      0.069700
     48 H10A      -12.9060   -2.7020   -2.9570 hc        1 SLD      0.069700
     49 H10B      -12.5530   -2.6120   -1.1750 hc        1 SLD      0.069700
     50 H2B        -1.1430    2.4080    2.5390 ha        1 SLD      0.138000
     51 H3B        -0.1340    1.2440   -0.1730 ha        1 SLD      0.122000
     52 H4B         1.4170    3.2300    0.5340 hc        1 SLD      0.053200
     53 H4BA        1.2060    2.6750    2.2430 hc        1 SLD      0.053200
     54 H5B         2.1110    0.4060    1.6090 hc        1 SLD      0.048700
     55 H5BA        2.3340    0.9730   -0.0930 hc        1 SLD      0.048700
     56 HAS         3.8550    2.8230    0.6940 h1        1 SLD      0.065700
     57 HASA        3.6070    2.2870    2.4240 h1        1 SLD      0.065700
     58 HN5S        4.7420    0.1980    1.7930 hn        1 SLD      0.312500
     59 H9S         7.2890   -0.0470    1.2360 hc        1 SLD      0.113200
     60 H9SA        6.3060   -0.9490    0.0270 hc        1 SLD      0.113200
     61 H8S         7.6890    1.2460   -1.3770 ha        1 SLD      0.174000
     62 HN2S       10.3120   -3.4130   -0.1110 hn        1 SLD      0.347500
     63 H7S        10.5010    1.2080   -3.6240 hc        1 SLD      0.071700
     64 H7SA        8.7100    1.0270   -3.3900 hc        1 SLD      0.071700
     65 H7SB        9.7110    1.9240   -2.1550 hc        1 SLD      0.071700
@<TRIPOS>BOND
     1    1    2 ar  
     2    1    3 ar  
     3    1   38 1   
     4    2    4 1   
     5    2    5 ar  
     6    3   17 ar  
     7    3   39 1   
     8    4    6 1   
     9    4    7 1   
    10    5   16 ar  
    11    5   40 1   
    12    6    8 1   
    13    6   41 1   
    14    6   42 1   
    15    7   10 1   
    16    7   15 2   
    17    8    9 1   
    18    8   10 1   
    19    8   43 1   
    20    9   11 1   
    21    9   44 1   
    22    9   45 1   
    23   11   12 1   
    24   11   46 1   
    25   12   13 1   
    26   12   14 2   
    27   13   47 1   
    28   13   48 1   
    29   13   49 1   
    30   16   17 ar  
    31   16   18 1   
    32   17   19 1   
    33   19   20 2   
    34   19   50 1   
    35   20   21 1   
    36   20   51 1   
    37   21   22 1   
    38   21   52 1   
    39   21   53 1   
    40   22   23 1   
    41   22   54 1   
    42   22   55 1   
    43   23   24 1   
    44   23   56 1   
    45   23   57 1   
    46   24   25 1   
    47   24   58 1   
    48   25   26 1   
    49   25   27 2   
    50   26   28 1   
    51   26   59 1   
    52   26   60 1   
    53   28   37 2   
    54   28   61 1   
    55   29   30 2   
    56   29   31 1   
    57   29   37 1   
    58   31   32 1   
    59   31   62 1   
    60   32   33 2   
    61   32   34 1   
    62   34   35 2   
    63   35   36 1   
    64   35   37 1   
    65   36   63 1   
    66   36   64 1   
    67   36   65 1   
@<TRIPOS>SUBSTRUCTURE
     1 SLD         1 TEMP              0 ****  ****    0 ROOT
