@<TRIPOS>MOLECULE
SLE
   23    22     1     0     0
SMALL
bcc


@<TRIPOS>ATOM
      1 C1          0.1270    0.1790    0.2450 c         1 SLE      0.912600
      2 O1         -0.5370    0.3660    1.3060 o         1 SLE     -0.844300
      3 O2         -0.3740    0.2420   -0.9120 o         1 SLE     -0.844300
      4 C2          1.6510   -0.1010    0.3690 c3        1 SLE     -0.197700
      5 CH          2.0140   -0.6350    1.7340 c3        1 SLE      0.083700
      6 S           2.1050    0.6230    2.9970 sh        1 SLE     -0.546900
      7 C3          2.0960   -1.0650   -0.7180 c3        1 SLE     -0.063400
      8 C4          3.5760   -0.9500   -1.0600 c3        1 SLE     -0.071700
      9 CM          4.0670   -2.2250   -1.7160 c3        1 SLE     -0.083100
     10 C5          3.8360    0.2330   -1.9690 c3        1 SLE     -0.083100
     11 H2          2.1580    0.8910    0.2120 hc        1 SLE      0.051700
     12 HH1         3.0280   -1.1020    1.7330 h1        1 SLE      0.050200
     13 HH2         1.2590   -1.3950    2.0480 h1        1 SLE      0.050200
     14 HS          0.8640    1.1240    2.8400 hs        1 SLE      0.303800
     15 H31         1.8740   -2.1150   -0.3890 hc        1 SLE      0.051700
     16 H32         1.4820   -0.8660   -1.6390 hc        1 SLE      0.051700
     17 H4          4.1580   -0.7980   -0.1070 hc        1 SLE      0.038700
     18 HM1         3.9600   -3.0900   -1.0170 hc        1 SLE      0.023867
     19 HM2         5.1420   -2.1310   -2.0010 hc        1 SLE      0.023867
     20 HM3         3.4740   -2.4420   -2.6370 hc        1 SLE      0.023867
     21 H51         4.9300    0.3410   -2.1670 hc        1 SLE      0.023867
     22 H52         3.4630    1.1730   -1.4960 hc        1 SLE      0.023867
     23 H53         3.3100    0.1000   -2.9440 hc        1 SLE      0.023867
@<TRIPOS>BOND
     1    1    2 1   
     2    1    3 1   
     3    1    4 1   
     4    4    5 1   
     5    4    7 1   
     6    4   11 1   
     7    5    6 1   
     8    5   12 1   
     9    5   13 1   
    10    6   14 1   
    11    7    8 1   
    12    7   15 1   
    13    7   16 1   
    14    8    9 1   
    15    8   10 1   
    16    8   17 1   
    17    9   18 1   
    18    9   19 1   
    19    9   20 1   
    20   10   21 1   
    21   10   22 1   
    22   10   23 1   
@<TRIPOS>SUBSTRUCTURE
     1 SLE         1 TEMP              0 ****  ****    0 ROOT
