@<TRIPOS>MOLECULE
SLE
   23    22     1     0     0
SMALL
bcc


@<TRIPOS>ATOM
      1 C1          1.0300    0.1840   -1.1790 c         1 SLE      0.912600
      2 O1          0.8650   -0.2890   -2.3420 o         1 SLE     -0.844300
      3 O2          2.0360    0.8670   -0.8400 o         1 SLE     -0.844300
      4 C2         -0.0850   -0.0510   -0.1220 c3        1 SLE     -0.197700
      5 CH         -0.9380   -1.2500   -0.4650 c3        1 SLE      0.083700
      6 S          -2.1550   -0.9270   -1.7300 sh        1 SLE     -0.546900
      7 C3          0.5280   -0.2090    1.2590 c3        1 SLE     -0.063400
      8 C4         -0.4310    0.1420    2.3900 c3        1 SLE     -0.071700
      9 CM          0.0140   -0.5130    3.6820 c3        1 SLE     -0.083100
     10 C5         -0.5280    1.6420    2.5770 c3        1 SLE     -0.083100
     11 H2         -0.7230    0.8750   -0.1390 hc        1 SLE      0.051700
     12 HH1        -0.2830   -2.0840   -0.8120 h1        1 SLE      0.050200
     13 HH2        -1.5350   -1.5900    0.4150 h1        1 SLE      0.050200
     14 HS         -1.3110   -0.4770   -2.6800 hs        1 SLE      0.303800
     15 H31         1.4360    0.4510    1.3190 hc        1 SLE      0.051700
     16 H32         0.8750   -1.2680    1.3870 hc        1 SLE      0.051700
     17 H4         -1.4560   -0.2480    2.1310 hc        1 SLE      0.038700
     18 HM1        -0.6660   -0.2280    4.5210 hc        1 SLE      0.023867
     19 HM2         0.0030   -1.6250    3.5790 hc        1 SLE      0.023867
     20 HM3         1.0520   -0.1940    3.9420 hc        1 SLE      0.023867
     21 H51         0.4620    2.0630    2.8770 hc        1 SLE      0.023867
     22 H52        -0.8420    2.1310    1.6230 hc        1 SLE      0.023867
     23 H53        -1.2750    1.8900    3.3690 hc        1 SLE      0.023867
@<TRIPOS>BOND
     1    1    2 1   
     2    1    3 1   
     3    1    4 1   
     4    4    5 1   
     5    4    7 1   
     6    4   11 1   
     7    5    6 1   
     8    5   12 1   
     9    5   13 1   
    10    6   14 1   
    11    7    8 1   
    12    7   15 1   
    13    7   16 1   
    14    8    9 1   
    15    8   10 1   
    16    8   17 1   
    17    9   18 1   
    18    9   19 1   
    19    9   20 1   
    20   10   21 1   
    21   10   22 1   
    22   10   23 1   
@<TRIPOS>SUBSTRUCTURE
     1 SLE         1 TEMP              0 ****  ****    0 ROOT
