@<TRIPOS>MOLECULE
SLE
   23    22     1     0     0
SMALL
bcc


@<TRIPOS>ATOM
      1 C1         -0.1360   -0.0540    0.0200 c         1 SLE      0.914600
      2 O1         -0.8840    0.1100    1.0250 o         1 SLE     -0.837300
      3 O2         -0.5540   -0.1010   -1.1700 o         1 SLE     -0.837300
      4 C2          1.4040   -0.1500    0.2510 c3        1 SLE     -0.195700
      5 CH          1.7140   -0.5410    1.6740 c3        1 SLE      0.064700
      6 S           3.1220    0.3010    2.4010 sh        1 SLE     -0.507900
      7 C3          2.0250   -1.0960   -0.7590 c3        1 SLE     -0.059400
      8 C4          3.5310   -0.9130   -0.9070 c3        1 SLE     -0.086700
      9 CM          4.1760   -2.1880   -1.4070 c3        1 SLE     -0.079100
     10 C5          3.8500    0.2320   -1.8460 c3        1 SLE     -0.079100
     11 H2          1.7890    0.8900    0.0590 hc        1 SLE      0.039700
     12 HH1         0.8180   -0.3420    2.3180 h1        1 SLE      0.080200
     13 HH2         1.9860   -1.6200    1.7560 h1        1 SLE      0.080200
     14 HS          2.7220    1.5520    2.2590 hs        1 SLE      0.213800
     15 H31         1.5220   -0.9290   -1.7510 hc        1 SLE      0.049700
     16 H32         1.8080   -2.1540   -0.4540 hc        1 SLE      0.049700
     17 H4          3.9560   -0.6670    0.1110 hc        1 SLE      0.064700
     18 HM1         4.0210   -3.0160   -0.6740 hc        1 SLE      0.021033
     19 HM2         3.7310   -2.4950   -2.3840 hc        1 SLE      0.021033
     20 HM3         5.2740   -2.0420   -1.5480 hc        1 SLE      0.021033
     21 H51         3.4820    0.0080   -2.8770 hc        1 SLE      0.021033
     22 H52         4.9520    0.4040   -1.8920 hc        1 SLE      0.021033
     23 H53         3.3560    1.1690   -1.4930 hc        1 SLE      0.021033
@<TRIPOS>BOND
     1    1    2 1   
     2    1    3 1   
     3    1    4 1   
     4    4    5 1   
     5    4    7 1   
     6    4   11 1   
     7    5    6 1   
     8    5   12 1   
     9    5   13 1   
    10    6   14 1   
    11    7    8 1   
    12    7   15 1   
    13    7   16 1   
    14    8    9 1   
    15    8   10 1   
    16    8   17 1   
    17    9   18 1   
    18    9   19 1   
    19    9   20 1   
    20   10   21 1   
    21   10   22 1   
    22   10   23 1   
@<TRIPOS>SUBSTRUCTURE
     1 SLE         1 TEMP              0 ****  ****    0 ROOT
