@<TRIPOS>MOLECULE
SLI
   27    28     1     0     0
SMALL
bcc


@<TRIPOS>ATOM
      1 N           0.3760    0.1330    0.2860 ns        1 SLI     -0.453100
      2 C1          2.6330    0.6250   -1.6960 ca        1 SLI      0.152100
      3 O1          2.4980    1.6600   -0.7980 oh        1 SLI     -0.510100
      4 C2          2.0010   -0.5970   -1.4060 ca        1 SLI     -0.172600
      5 O2          1.2840   -1.9970    0.3750 o         1 SLI     -0.594100
      6 C3          2.1410   -1.6550   -2.3150 ca        1 SLI     -0.046000
      7 C4          2.8750   -1.4990   -3.4880 ca        1 SLI     -0.171000
      8 C5          3.4950   -0.2800   -3.7660 ca        1 SLI     -0.069000
      9 C6          3.3820    0.7820   -2.8750 ca        1 SLI     -0.220000
     10 C7          1.2150   -0.8750   -0.1650 c         1 SLI      0.690700
     11 C8         -0.4070    0.1160    1.4530 ca        1 SLI      0.069600
     12 C9         -0.9370    1.3430    1.9240 ca        1 SLI     -0.167500
     13 C10        -1.7490    1.3710    3.0510 ca        1 SLI     -0.106500
     14 C11        -2.0520    0.1970    3.7390 ca        1 SLI     -0.158000
     15 C12        -1.5340   -1.0140    3.2840 ca        1 SLI     -0.106500
     16 C13        -0.7210   -1.0680    2.1550 ca        1 SLI     -0.167500
     17 HN          0.4840    1.0300   -0.1400 hn        1 SLI      0.328500
     18 HO1         3.0670    2.3880   -1.0880 ho        1 SLI      0.431000
     19 H3          1.6660   -2.6220   -2.0760 ha        1 SLI      0.161000
     20 H4          2.9700   -2.3390   -4.1910 ha        1 SLI      0.143000
     21 H5          4.0790   -0.1570   -4.6910 ha        1 SLI      0.139000
     22 H6          3.8770    1.7410   -3.0860 ha        1 SLI      0.138000
     23 H9         -0.7110    2.2850    1.4020 ha        1 SLI      0.149500
     24 H10        -2.1520    2.3330    3.4030 ha        1 SLI      0.131000
     25 H11        -2.6930    0.2270    4.6300 ha        1 SLI      0.131000
     26 H12        -1.7660   -1.9460    3.8210 ha        1 SLI      0.131000
     27 H13        -0.3230   -2.0410    1.8230 ha        1 SLI      0.149500
@<TRIPOS>BOND
     1    1   10 1   
     2    1   11 1   
     3    1   17 1   
     4    2    3 1   
     5    2    4 ar  
     6    2    9 ar  
     7    3   18 1   
     8    4    6 ar  
     9    4   10 1   
    10    5   10 2   
    11    6    7 ar  
    12    6   19 1   
    13    7    8 ar  
    14    7   20 1   
    15    8    9 ar  
    16    8   21 1   
    17    9   22 1   
    18   11   12 ar  
    19   11   16 ar  
    20   12   13 ar  
    21   12   23 1   
    22   13   14 ar  
    23   13   24 1   
    24   14   15 ar  
    25   14   25 1   
    26   15   16 ar  
    27   15   26 1   
    28   16   27 1   
@<TRIPOS>SUBSTRUCTURE
     1 SLI         1 TEMP              0 ****  ****    0 ROOT
