@<TRIPOS>MOLECULE
SLI
   27    28     1     0     0
SMALL
bcc


@<TRIPOS>ATOM
      1 N           0.6440   -0.4750    0.0090 n         1 SLI     -0.460100
      2 C1         -2.7740    0.8060    0.1840 ca        1 SLI      0.197100
      3 O1         -2.5880    2.1200    0.5110 oh        1 SLI     -0.500100
      4 C2         -1.7540   -0.0710   -0.2330 ca        1 SLI     -0.240600
      5 O2         -0.1070    1.5730   -0.7600 o         1 SLI     -0.617100
      6 C3         -2.0910   -1.3940   -0.5580 ca        1 SLI     -0.070000
      7 C4         -3.3990   -1.8440   -0.4380 ca        1 SLI     -0.176000
      8 C5         -4.4010   -0.9760    0.0110 ca        1 SLI     -0.072000
      9 C6         -4.1010    0.3410    0.3200 ca        1 SLI     -0.171000
     10 C7         -0.3520    0.4150   -0.3590 c         1 SLI      0.689700
     11 C8          2.0330   -0.2580   -0.0180 ca        1 SLI      0.063600
     12 C9          2.8690   -1.1920    0.6440 ca        1 SLI     -0.165500
     13 C10         4.2490   -1.0310    0.6300 ca        1 SLI     -0.105500
     14 C11         4.8310    0.0490   -0.0330 ca        1 SLI     -0.154000
     15 C12         4.0170    0.9700   -0.6860 ca        1 SLI     -0.105500
     16 C13         2.6320    0.8290   -0.6880 ca        1 SLI     -0.165500
     17 HN          0.3530   -1.3430    0.4030 hn        1 SLI      0.321500
     18 HO1        -1.7000    2.4060    0.2370 ho        1 SLI      0.458000
     19 H3         -1.3190   -2.0840   -0.9340 ha        1 SLI      0.135000
     20 H4         -3.6500   -2.8820   -0.6990 ha        1 SLI      0.139000
     21 H5         -5.4350   -1.3400    0.1120 ha        1 SLI      0.139000
     22 H6         -4.8750    1.0420    0.6640 ha        1 SLI      0.157000
     23 H9          2.4350   -2.0520    1.1770 ha        1 SLI      0.149500
     24 H10         4.8840   -1.7650    1.1490 ha        1 SLI      0.133500
     25 H11         5.9240    0.1700   -0.0390 ha        1 SLI      0.134000
     26 H12         4.4680    1.8260   -1.2120 ha        1 SLI      0.133500
     27 H13         2.0140    1.5760   -1.2130 ha        1 SLI      0.149500
@<TRIPOS>BOND
     1    1   10 1   
     2    1   11 1   
     3    1   17 1   
     4    2    3 1   
     5    2    4 ar  
     6    2    9 ar  
     7    3   18 1   
     8    4    6 ar  
     9    4   10 1   
    10    5   10 2   
    11    6    7 ar  
    12    6   19 1   
    13    7    8 ar  
    14    7   20 1   
    15    8    9 ar  
    16    8   21 1   
    17    9   22 1   
    18   11   12 ar  
    19   11   16 ar  
    20   12   13 ar  
    21   12   23 1   
    22   13   14 ar  
    23   13   24 1   
    24   14   15 ar  
    25   14   25 1   
    26   15   16 ar  
    27   15   26 1   
    28   16   27 1   
@<TRIPOS>SUBSTRUCTURE
     1 SLI         1 TEMP              0 ****  ****    0 ROOT
