@<TRIPOS>MOLECULE
SLI
   28    29     1     0     0
SMALL
bcc


@<TRIPOS>ATOM
      1 N          -0.0930   -1.5100    0.1200 n4        1 SLI     -0.543200
      2 C1          2.5080   -0.9830   -1.4850 ca        1 SLI      0.178100
      3 O1          2.4560   -2.2150   -0.8760 oh        1 SLI     -0.549100
      4 C2          1.3000   -0.2690   -1.6220 ca        1 SLI     -0.226600
      5 O2         -1.0770   -0.6560   -1.7930 o         1 SLI     -0.430100
      6 C3          1.3260    0.9870   -2.2640 ca        1 SLI     -0.024000
      7 C4          2.5210    1.5160   -2.7300 ca        1 SLI     -0.152000
      8 C5          3.7140    0.7980   -2.5830 ca        1 SLI     -0.020000
      9 C6          3.7120   -0.4500   -1.9690 ca        1 SLI     -0.205000
     10 C7         -0.0070   -0.7720   -1.2100 c         1 SLI      0.599700
     11 C8         -0.4300   -0.5990    1.2170 ca        1 SLI     -0.055400
     12 C9         -1.7120   -0.0220    1.2680 ca        1 SLI     -0.100500
     13 C10        -2.0320    0.8250    2.3260 ca        1 SLI     -0.105500
     14 C11        -1.0930    1.1000    3.3220 ca        1 SLI     -0.073000
     15 C12         0.1790    0.5270    3.2620 ca        1 SLI     -0.105500
     16 C13         0.5230   -0.3230    2.2140 ca        1 SLI     -0.100500
     17 HN          0.7990   -1.9790    0.3260 hn        1 SLI      0.469300
     18 HO1         3.3220   -2.6480   -0.9620 ho        1 SLI      0.469000
     19 H3          0.3810    1.5410   -2.3980 ha        1 SLI      0.168000
     20 H4          2.5300    2.5010   -3.2250 ha        1 SLI      0.172000
     21 H5          4.6610    1.2200   -2.9620 ha        1 SLI      0.170000
     22 H6          4.6470   -1.0230   -1.8660 ha        1 SLI      0.165000
     23 H9         -2.4600   -0.2270    0.4830 ha        1 SLI      0.160500
     24 H10        -3.0370    1.2780    2.3730 ha        1 SLI      0.170000
     25 H11        -1.3560    1.7710    4.1570 ha        1 SLI      0.170000
     26 H12         0.9200    0.7450    4.0490 ha        1 SLI      0.170000
     27 H13         1.5310   -0.7680    2.1840 ha        1 SLI      0.160500
     28 HN3        -0.8360   -2.2200    0.0520 hn        1 SLI      0.469300
@<TRIPOS>BOND
     1    1   10 1   
     2    1   11 1   
     3    1   17 1   
     4    1   28 1   
     5    2    3 1   
     6    2    4 ar  
     7    2    9 ar  
     8    3   18 1   
     9    4    6 ar  
    10    4   10 1   
    11    5   10 2   
    12    6    7 ar  
    13    6   19 1   
    14    7    8 ar  
    15    7   20 1   
    16    8    9 ar  
    17    8   21 1   
    18    9   22 1   
    19   11   12 ar  
    20   11   16 ar  
    21   12   13 ar  
    22   12   23 1   
    23   13   14 ar  
    24   13   24 1   
    25   14   15 ar  
    26   14   25 1   
    27   15   16 ar  
    28   15   26 1   
    29   16   27 1   
@<TRIPOS>SUBSTRUCTURE
     1 SLI         1 TEMP              0 ****  ****    0 ROOT
