@<TRIPOS>MOLECULE
SLM
   43    41     1     0     0
SMALL
bcc


@<TRIPOS>ATOM
      1 C1          0.9680   -1.3830    1.1700 c2        1 SLM      0.249000
      2 C2          0.0710   -0.1140    1.2040 c3        1 SLM      0.230000
      3 C3         -0.9530   -0.1950    2.3440 c3        1 SLM     -0.223000
      4 C4         -2.3640   -0.0790    1.8890 c2        1 SLM      0.153000
      5 C5         -2.7290   -0.2420    0.5800 c2        1 SLM     -0.279000
      6 C6         -1.6630   -0.5200   -0.4500 c3        1 SLM      0.056000
      7 C7         -1.4320   -2.0310   -0.6440 c3        1 SLM     -0.029000
      8 C8         -1.1320   -3.0850   -3.7370 c1        1 SLM     -0.030000
      9 C9         -0.5240   -3.8150   -4.8800 c3        1 SLM     -0.124000
     10 C11        -5.7450   -1.6450    1.3360 c3        1 SLM     -0.257000
     11 N5         -4.1060   -0.1000    0.1340 n4        1 SLM     -0.048000
     12 O1A         0.8790   -2.3610    1.8900 o         1 SLM     -0.142000
     13 O2          0.9730    0.9520    1.3760 oh        1 SLM     -0.319000
     14 O4         -3.3360    0.1940    2.8030 oh        1 SLM     -0.247000
     15 O6         -0.4530    0.1470   -0.0790 os        1 SLM     -0.272000
     16 O7         -0.2240   -2.2260   -1.3250 oh        1 SLM     -0.453000
     17 O8         -2.3940   -2.8210   -3.7040 oh        1 SLM     -0.165000
     18 O9         -1.5420   -4.0900   -5.8270 oh        1 SLM     -0.361000
     19 N1          2.0350   -1.3540    0.1290 n4        1 SLM     -0.122000
     20 O10        -4.6740   -2.1500   -0.8130 o         1 SLM     -0.161000
     21 H11N        1.5720   -1.3860   -0.8000 hn        1 SLM      0.287333
     22 H12N        2.6650   -2.1600    0.2240 hn        1 SLM      0.287333
     23 H31C       -0.7180    0.6340    3.0750 hc        1 SLM      0.178000
     24 H32C       -0.8370   -1.1680    2.9070 hc        1 SLM      0.178000
     25 H2          0.5790    1.7660    1.0160 ho        1 SLM      0.278000
     26 H4         -5.4530    1.2680    3.1130 ha        1 SLM      0.004000
     27 H5         -5.5740    0.8620    2.5820 ha        1 SLM      0.004000
     28 HA         -2.9470    0.3290    3.6870 ho        1 SLM      0.283000
     29 H6         -1.8900   -0.0350   -1.4480 h1        1 SLM      0.165000
     30 HB         -4.1010    0.2730   -0.8250 hn        1 SLM      0.266000
     31 H7         -1.3350   -2.5340    0.3570 h1        1 SLM      0.108000
     32 H8         -2.3040   -2.4630   -1.2080 h1        1 SLM      0.108000
     33 HC         -0.4310   -2.5270   -2.2730 ho        1 SLM      0.311000
     34 H91C       -0.0590   -4.7680   -4.4980 h1        1 SLM      0.131000
     35 H92C        0.2830   -3.1760   -5.3360 h1        1 SLM      0.131000
     36 HD         -2.9270   -3.1300   -4.4740 ho        1 SLM      0.244000
     37 H9         -1.1530   -4.6030   -6.5470 ho        1 SLM      0.251000
     38 H111       -6.0390   -2.7290    1.3780 hc        1 SLM      0.164000
     39 H112       -6.6780   -1.0300    1.2290 hc        1 SLM      0.164000
     40 H113       -5.2320   -1.3630    2.2910 hc        1 SLM      0.164000
     41 C10        -4.8670   -1.4380    0.1540 c2        1 SLM      0.280000
     42 H52        -4.5910    0.5660    0.7560 hn        1 SLM      0.266000
     43 H13         2.5650   -0.4760    0.2130 hn        1 SLM      0.287333
@<TRIPOS>BOND
     1    1    2 1   
     2    1   12 1   
     3    1   19 1   
     4    2    3 1   
     5    2   13 1   
     6    2   15 1   
     7    3    4 1   
     8    3   23 1   
     9    3   24 1   
    10    4    5 1   
    11    4   14 1   
    12    5    6 1   
    13    5   11 1   
    14    6    7 1   
    15    6   15 1   
    16    6   29 1   
    17    7   16 1   
    18    7   31 1   
    19    7   32 1   
    20    8    9 1   
    21    8   17 1   
    22    9   18 1   
    23    9   34 1   
    24    9   35 1   
    25   10   38 1   
    26   10   39 1   
    27   10   40 1   
    28   10   41 1   
    29   11   30 1   
    30   11   41 1   
    31   11   42 1   
    32   13   25 1   
    33   14   28 1   
    34   16   33 1   
    35   17   36 1   
    36   18   37 1   
    37   19   21 1   
    38   19   22 1   
    39   19   43 1   
    40   20   41 1   
    41   26   27 1   
@<TRIPOS>SUBSTRUCTURE
     1 SLM         1 TEMP              0 ****  ****    0 ROOT
