@<TRIPOS>MOLECULE
SLM
   43    42     1     0     0
SMALL
bcc


@<TRIPOS>ATOM
      1 C1          0.8380    0.6990    2.4300 c2        1 SLM      0.246000
      2 C2          0.4280    0.7350    0.9340 c3        1 SLM      0.232000
      3 C3         -0.9770    1.3010    0.7670 c3        1 SLM     -0.235000
      4 C4         -2.0530    0.2640    1.0570 c3        1 SLM      0.008000
      5 C5         -1.7800   -1.0260    0.2330 c3        1 SLM      0.009000
      6 C6         -0.3410   -1.5460    0.4840 c3        1 SLM     -0.010000
      7 C7         -0.1520   -2.2460    1.8340 c3        1 SLM     -0.059000
      8 C8         -5.0430   -2.2590   -4.4470 c2        1 SLM      0.276000
      9 C9         -4.7680   -3.1640   -5.5920 c3        1 SLM     -0.107000
     10 C11        -4.6970   -3.4880   -0.0410 c3        1 SLM     -0.248000
     11 N5         -2.7650   -2.0460    0.4740 n         1 SLM     -0.361000
     12 O1A         0.1650    1.0140    3.3930 o         1 SLM     -0.145000
     13 O2          1.4220    1.5230    0.3190 oh        1 SLM     -0.329000
     14 O4         -2.0730   -0.0970    2.4270 oh        1 SLM     -0.345000
     15 O6          0.6400   -0.5170    0.3210 os        1 SLM     -0.294000
     16 O7          1.2260   -2.4140    2.1120 oh        1 SLM     -0.369000
     17 O8         -5.8320   -1.2390   -4.5320 oh        1 SLM     -0.085000
     18 O9         -5.5040   -2.6500   -6.6830 oh        1 SLM     -0.354000
     19 N1          2.2400    0.2310    2.6730 n4        1 SLM     -0.134000
     20 O10        -3.5420   -2.1490   -1.6850 o         1 SLM     -0.459000
     21 H11N        2.8830    0.8400    2.1510 hn        1 SLM      0.280667
     22 H12N        2.4720    0.2480    3.6720 hn        1 SLM      0.280667
     23 H31C       -1.1030    2.1860    1.4470 hc        1 SLM      0.143000
     24 H32C       -1.0810    1.6650   -0.2910 hc        1 SLM      0.143000
     25 H2          1.3860    1.3750   -0.6400 ho        1 SLM      0.271000
     26 H4         -3.0540    0.6920    0.7610 h1        1 SLM      0.120000
     27 H5         -1.8340   -0.7240   -0.8590 h1        1 SLM      0.144000
     28 HA         -2.3520    0.6780    2.9350 ho        1 SLM      0.241000
     29 H6         -0.0550   -2.2580   -0.3490 h1        1 SLM      0.146000
     30 HB         -4.5780   -2.4000   -3.4280 h4        1 SLM      0.280000
     31 H7         -0.5430   -1.6200    2.6840 h1        1 SLM      0.127000
     32 H8         -0.6780   -3.2370    1.8260 h1        1 SLM      0.127000
     33 HC          1.5600   -3.1340    1.5620 ho        1 SLM      0.237000
     34 H91C       -3.6570   -3.1640   -5.8100 h1        1 SLM      0.177500
     35 H92C       -5.0850   -4.2160   -5.3270 h1        1 SLM      0.177500
     36 HD         -6.2470   -1.1050   -5.4300 ho        1 SLM      0.337000
     37 H9         -5.4240   -3.2650   -7.4300 ho        1 SLM      0.287000
     38 H111       -5.3030   -3.7990   -0.9260 hc        1 SLM      0.123333
     39 H112       -5.3750   -3.0180    0.7140 hc        1 SLM      0.123333
     40 H113       -4.2290   -4.3970    0.4120 hc        1 SLM      0.123333
     41 C10        -3.6400   -2.5090   -0.4860 c2        1 SLM      0.338000
     42 H52        -2.9410   -2.2630    1.4320 hn        1 SLM      0.253000
     43 H13         2.3290   -0.7350    2.3120 hn        1 SLM      0.280667
@<TRIPOS>BOND
     1    1    2 1   
     2    1   12 1   
     3    1   19 1   
     4    2    3 1   
     5    2   13 1   
     6    2   15 1   
     7    3    4 1   
     8    3   23 1   
     9    3   24 1   
    10    4    5 1   
    11    4   14 1   
    12    4   26 1   
    13    5    6 1   
    14    5   11 1   
    15    5   27 1   
    16    6    7 1   
    17    6   15 1   
    18    6   29 1   
    19    7   16 1   
    20    7   31 1   
    21    7   32 1   
    22    8    9 1   
    23    8   17 1   
    24    8   30 1   
    25    9   18 1   
    26    9   34 1   
    27    9   35 1   
    28   10   38 1   
    29   10   39 1   
    30   10   40 1   
    31   10   41 1   
    32   11   41 1   
    33   11   42 1   
    34   13   25 1   
    35   14   28 1   
    36   16   33 1   
    37   17   36 1   
    38   18   37 1   
    39   19   21 1   
    40   19   22 1   
    41   19   43 1   
    42   20   41 1   
@<TRIPOS>SUBSTRUCTURE
     1 SLM         1 TEMP              0 ****  ****    0 ROOT
