@<TRIPOS>MOLECULE
SLM
   41    41     1     0     0
SMALL
bcc


@<TRIPOS>ATOM
      1 C1          1.0220    3.1270    0.7870 c         1 SLM      0.645100
      2 C2          0.2560    2.1490   -0.1460 c3        1 SLM      0.295600
      3 C3         -1.2460    2.3330    0.0550 c3        1 SLM     -0.128400
      4 C4         -2.0130    1.1790   -0.5750 c3        1 SLM      0.117100
      5 C5         -1.4880   -0.1690   -0.0060 c3        1 SLM      0.074700
      6 C6          0.0190   -0.2430   -0.3680 c3        1 SLM      0.109100
      7 C7          0.7090   -1.4820    0.2300 c3        1 SLM      0.160100
      8 C8          2.1460   -1.5980   -0.3180 c3        1 SLM      0.109100
      9 C9          2.8210   -2.8470    0.2540 c3        1 SLM      0.093400
     10 C11        -3.9930   -3.0190   -0.3870 c3        1 SLM     -0.176100
     11 N5         -2.2100   -1.3110   -0.5070 n         1 SLM     -0.547900
     12 O1A         0.8500    3.0770    2.0180 o         1 SLM     -0.587100
     13 O2          0.5600    2.3180   -1.5140 oh        1 SLM     -0.629800
     14 O4         -3.3960    1.2620   -0.2740 oh        1 SLM     -0.588800
     15 O6          0.7380    0.8640    0.1960 os        1 SLM     -0.444600
     16 O7          0.7330   -1.4510    1.6400 oh        1 SLM     -0.585800
     17 O8          2.0520   -1.6710   -1.7330 oh        1 SLM     -0.611800
     18 O9          4.1380   -2.8650   -0.2750 oh        1 SLM     -0.618800
     19 N1          1.8700    4.0360    0.2190 n         1 SLM     -0.663000
     20 O10        -3.0880   -1.8990    1.5430 o         1 SLM     -0.580100
     21 H11N        1.9290    4.1240   -0.7640 hn        1 SLM      0.320000
     22 H12N        2.3300    4.7000    0.7910 hn        1 SLM      0.320000
     23 H31C       -1.4520    2.3760    1.1580 hc        1 SLM      0.085200
     24 H32C       -1.5620    3.3010   -0.4100 hc        1 SLM      0.085200
     25 H2          1.4080    1.8840   -1.6860 ho        1 SLM      0.431000
     26 H4         -1.8740    1.2030   -1.6940 h1        1 SLM      0.045700
     27 H5         -1.5810   -0.1510    1.1230 h1        1 SLM      0.125700
     28 HA         -3.6780    2.1590   -0.4930 ho        1 SLM      0.406000
     29 H6          0.1610   -0.2320   -1.4840 h1        1 SLM      0.075700
     30 HB         -2.4070   -1.2970   -1.4810 hn        1 SLM      0.297500
     31 H7          0.1260   -2.4080   -0.0360 h1        1 SLM      0.101700
     32 H8          2.7380   -0.6840   -0.0330 h1        1 SLM      0.057700
     33 HC          1.0720   -0.5870    1.9120 ho        1 SLM      0.422000
     34 H91C        2.8400   -2.7870    1.3740 h1        1 SLM      0.047200
     35 H92C        2.2690   -3.7700   -0.0670 h1        1 SLM      0.047200
     36 HD          2.9290   -1.9270   -2.0510 ho        1 SLM      0.423000
     37 H9          4.5860   -3.6200    0.1200 ho        1 SLM      0.410000
     38 H111       -3.3990   -3.7380   -1.0000 hc        1 SLM      0.065700
     39 H112       -4.5620   -3.5860    0.3890 hc        1 SLM      0.065700
     40 H113       -4.7150   -2.4820   -1.0480 hc        1 SLM      0.065700
     41 C10        -3.0880   -2.0280    0.3060 c         1 SLM      0.658100
@<TRIPOS>BOND
     1    1    2 1   
     2    1   12 2   
     3    1   19 1   
     4    2    3 1   
     5    2   13 1   
     6    2   15 1   
     7    3    4 1   
     8    3   23 1   
     9    3   24 1   
    10    4    5 1   
    11    4   14 1   
    12    4   26 1   
    13    5    6 1   
    14    5   11 1   
    15    5   27 1   
    16    6    7 1   
    17    6   15 1   
    18    6   29 1   
    19    7    8 1   
    20    7   16 1   
    21    7   31 1   
    22    8    9 1   
    23    8   17 1   
    24    8   32 1   
    25    9   18 1   
    26    9   34 1   
    27    9   35 1   
    28   10   38 1   
    29   10   39 1   
    30   10   40 1   
    31   10   41 1   
    32   11   30 1   
    33   11   41 1   
    34   13   25 1   
    35   14   28 1   
    36   16   33 1   
    37   17   36 1   
    38   18   37 1   
    39   19   21 1   
    40   19   22 1   
    41   20   41 2   
@<TRIPOS>SUBSTRUCTURE
     1 SLM         1 TEMP              0 ****  ****    0 ROOT
