@<TRIPOS>MOLECULE
SLM
   43    42     1     0     0
SMALL
bcc


@<TRIPOS>ATOM
      1 C1          1.1290   -0.3390    0.1990 c         1 SLM      0.529100
      2 C2         -0.3890   -0.1860   -0.0950 c3        1 SLM      0.319600
      3 C3         -1.0840    0.2620    1.2020 c3        1 SLM     -0.149400
      4 C4         -2.6000    0.1240    1.1210 c3        1 SLM      0.135100
      5 C5         -3.0540   -1.2300    1.7080 c3        1 SLM      0.077800
      6 C6         -1.1630   -1.7310   -1.7980 c2        1 SLM     -0.111100
      7 C7         -2.5960   -1.5200   -2.1740 c3        1 SLM      0.189600
      8 C8         -0.2180   -2.2780   -2.6070 c2        1 SLM      0.145900
      9 C9         -0.4980   -2.7890   -3.9920 c3        1 SLM      0.134600
     10 C11        -5.8360   -3.0830    2.9590 c3        1 SLM     -0.191100
     11 N5         -4.5190   -1.4340    1.5250 ny        1 SLM     -0.682800
     12 O1A         1.6070   -0.7800    1.2280 o         1 SLM     -0.375100
     13 O2         -0.5200    0.7000   -1.1690 oh        1 SLM     -0.618800
     14 O4         -3.2880    1.1740    1.7610 oh        1 SLM     -0.587800
     15 O6         -0.8840   -1.4660   -0.4590 os        1 SLM     -0.342900
     16 O7         -3.4640   -1.9180   -1.1260 oh        1 SLM     -0.651800
     17 O8          1.0710   -2.3440   -2.1450 oh        1 SLM     -0.555100
     18 O9          0.7590   -3.0640   -4.5830 oh        1 SLM     -0.618800
     19 N1          2.0860    0.0640   -0.8800 nz        1 SLM     -0.742400
     20 O10        -4.4590   -3.6950    1.0270 o         1 SLM     -0.414100
     21 H11N        1.9630   -0.5680   -1.6890 hn        1 SLM      0.485467
     22 H12N        3.0570    0.0080   -0.5480 hn        1 SLM      0.485467
     23 H31C       -0.8220    1.3420    1.3790 hc        1 SLM      0.110200
     24 H32C       -0.6790   -0.3430    2.0580 hc        1 SLM      0.110200
     25 H2         -1.4190    1.0640   -1.1780 ho        1 SLM      0.470000
     26 H4         -2.9370    0.1830    0.0390 h1        1 SLM      0.098700
     27 H5         -2.8220   -1.2840    2.8080 hx        1 SLM      0.122700
     28 HA         -2.8390    1.3930    2.5900 ho        1 SLM      0.436000
     29 H6         -2.5110   -2.0550    1.1540 hx        1 SLM      0.122700
     30 HB         -4.7460   -1.2190    0.5380 hn        1 SLM      0.472800
     31 H7         -2.8080   -0.4240   -2.3170 h1        1 SLM      0.074700
     32 H8         -2.8420   -2.0770   -3.1180 h1        1 SLM      0.074700
     33 HC         -3.4180   -2.8820   -1.0540 ho        1 SLM      0.437000
     34 H91C       -1.0250   -1.9990   -4.5960 h1        1 SLM      0.080700
     35 H92C       -1.1380   -3.7120   -3.9350 h1        1 SLM      0.080700
     36 HD          1.5880   -2.9500   -2.7140 ho        1 SLM      0.491000
     37 H9          0.6190   -3.7070   -5.2920 ho        1 SLM      0.459000
     38 H111       -6.8350   -2.6130    2.7590 hc        1 SLM      0.124033
     39 H112       -5.9870   -4.1880    3.1030 hc        1 SLM      0.124033
     40 H113       -5.4100   -2.6530    3.9010 hc        1 SLM      0.124033
     41 C10        -4.9230   -2.8770    1.8040 c         1 SLM      0.569100
     42 H52        -5.0350   -0.7830    2.1270 hn        1 SLM      0.472800
     43 H13         1.8740    1.0210   -1.1870 hn        1 SLM      0.485467
@<TRIPOS>BOND
     1    1    2 1   
     2    1   12 2   
     3    1   19 1   
     4    2    3 1   
     5    2   13 1   
     6    2   15 1   
     7    3    4 1   
     8    3   23 1   
     9    3   24 1   
    10    4    5 1   
    11    4   14 1   
    12    4   26 1   
    13    5   11 1   
    14    5   27 1   
    15    5   29 1   
    16    6    7 1   
    17    6    8 2   
    18    6   15 1   
    19    7   16 1   
    20    7   31 1   
    21    7   32 1   
    22    8    9 1   
    23    8   17 1   
    24    9   18 1   
    25    9   34 1   
    26    9   35 1   
    27   10   38 1   
    28   10   39 1   
    29   10   40 1   
    30   10   41 1   
    31   11   30 1   
    32   11   41 1   
    33   11   42 1   
    34   13   25 1   
    35   14   28 1   
    36   16   33 1   
    37   17   36 1   
    38   18   37 1   
    39   19   21 1   
    40   19   22 1   
    41   19   43 1   
    42   20   41 2   
@<TRIPOS>SUBSTRUCTURE
     1 SLM         1 TEMP              0 ****  ****    0 ROOT
