@<TRIPOS>MOLECULE
SLN
   65    67     1     0     0
SMALL
bcc


@<TRIPOS>ATOM
      1 O1B         0.0000    0.0000    0.0000 o         1 SLN     -0.569833
      2 PB          1.6100    0.0000    0.0000 p5        1 SLN      1.037500
      3 O2B         2.1480    0.0000    1.5170 o         1 SLN     -0.569833
      4 O3B         2.1020    1.2090   -0.6980 o         1 SLN     -0.569833
      5 O3A         2.1470   -1.3140   -0.7590 os        1 SLN     -0.915000
      6 PA          3.7050   -1.0650   -1.0770 p5        1 SLN      1.397000
      7 O1A         3.8440   -0.0290   -2.3020 o         1 SLN     -0.637000
      8 O2A         4.3680   -0.5030    0.1210 o         1 SLN     -0.637000
      9 O2          4.4020   -2.4610   -1.4730 os        1 SLN     -0.629000
     10 C2'         5.7980   -2.1960   -1.6260 c3        1 SLN      0.085000
     11 C1A         6.2300   -2.5430   -3.0530 c3        1 SLN     -0.188000
     12 NB          5.5590   -1.6460   -3.9970 ny        1 SLN      0.156000
     13 C1B         5.7880   -1.7670   -5.3190 c3        1 SLN      0.050000
     14 OC          6.5490   -2.6180   -5.7270 o         1 SLN     -0.523000
     15 CA          5.0980   -0.8450   -6.2910 c3        1 SLN     -0.117000
     16 CB          4.8100   -1.5820   -7.6190 c3        1 SLN     -0.129000
     17 CC          5.0990   -0.4980   -8.6870 c3        1 SLN     -0.092000
     18 CC1         5.4520   -1.1430  -10.0290 c3        1 SLN     -0.170500
     19 CC2         3.9010    0.4420   -8.8410 c3        1 SLN     -0.170500
     20 ND          6.2680    0.2300   -8.1310 n3        1 SLN      0.047000
     21 OR          6.2100    1.5940   -8.6550 oh        1 SLN     -0.308000
     22 CE          6.0260    0.3230   -6.6740 c3        1 SLN     -0.047000
     23 CE1         5.3500    1.6560   -6.3450 c3        1 SLN     -0.147000
     24 CE2         7.3480    0.2090   -5.9120 c3        1 SLN     -0.147000
     25 C1'         6.5900   -3.0480   -0.6330 c3        1 SLN     -0.181000
     26 N1          6.1780   -2.7160    0.7340 nu        1 SLN      0.164000
     27 CB1         6.7520   -3.3540    1.7940 ca        1 SLN      0.020000
     28 CB2         6.2420   -3.1320    3.0870 ca        1 SLN     -0.436000
     29 NN1         5.0900   -2.2200    3.2710 no        1 SLN      1.130000
     30 ON1         5.0450   -1.4200    4.3160 o         1 SLN     -0.512500
     31 ON2         4.1120   -2.2080    2.3900 o         1 SLN     -0.512500
     32 CB3         6.7810   -3.7510    4.1610 ca        1 SLN      0.083000
     33 CB4         7.9290   -4.6590    3.9640 ca        1 SLN     -0.254000
     34 NA1         8.4790   -5.2690    4.9790 n2        1 SLN     -0.262000
     35 NA2         9.3520   -5.9580    4.8150 n2        1 SLN      0.771000
     36 NA3        10.2280   -6.6470    4.6700 n1        1 SLN     -0.563000
     37 CB5         8.4410   -4.8600    2.5930 ca        1 SLN     -0.033000
     38 CB6         7.8470   -4.2120    1.5680 ca        1 SLN     -0.217000
     39 H21         5.9900   -1.1470   -1.4350 h1        1 SLN      0.104000
     40 H1AA        6.2960   -3.5990   -3.2860 hx        1 SLN      0.050500
     41 H2AA        7.3060   -2.4270   -3.0800 hx        1 SLN      0.050500
     42 HNB         5.3430   -0.8330   -3.4540 hn        1 SLN      0.143000
     43 HCA         4.1760   -0.4650   -5.8670 hc        1 SLN      0.110000
     44 HCB1        3.7520   -1.3500   -7.6090 hc        1 SLN      0.103500
     45 HCB2        5.3610   -2.5060   -7.7420 hc        1 SLN      0.103500
     46 H1CC        5.5600   -0.3720  -10.7820 hc        1 SLN      0.063833
     47 H2CC        6.2350   -1.7760   -9.6290 hc        1 SLN      0.063833
     48 H3CC        4.7530   -1.9540  -10.1930 hc        1 SLN      0.063833
     49 H4CC        3.0430    0.0490   -9.3730 hc        1 SLN      0.063833
     50 H5CC        3.7690    1.1650   -8.0450 hc        1 SLN      0.063833
     51 H6CC        4.4530    1.1090   -9.4910 hc        1 SLN      0.063833
     52 HOR         6.5320    1.3390   -9.5040 ho        1 SLN      0.187000
     53 H1CE        5.4660    1.8130   -5.2800 hc        1 SLN      0.066000
     54 H2CE        6.1060    2.3790   -6.6280 hc        1 SLN      0.066000
     55 H3CE        4.3130    1.6500   -6.6580 hc        1 SLN      0.066000
     56 H4CE        8.0230   -0.6290   -6.0390 hc        1 SLN      0.066000
     57 H5CE        7.7550    1.1680   -6.2100 hc        1 SLN      0.066000
     58 H6CE        7.0350    0.4070   -4.8940 hc        1 SLN      0.066000
     59 H11         6.3230   -3.8630   -1.2940 h1        1 SLN      0.082500
     60 H12         7.6540   -2.8580   -0.5460 h1        1 SLN      0.082500
     61 HN1         5.3450   -2.2250    0.9900 hn        1 SLN      0.191000
     62 HB3         6.3780   -3.4860    5.1310 ha        1 SLN      0.123000
     63 HB5         9.1970   -5.6330    2.6560 ha        1 SLN      0.088000
     64 HB6         7.8000   -4.4560    0.5130 ha        1 SLN      0.133000
     65 HB2         5.3760   -2.4730   -4.5290 DU        1 SLN      0.266000
@<TRIPOS>BOND
     1    1    2 1   
     2    2    3 1   
     3    2    4 1   
     4    2    5 1   
     5    5    6 1   
     6    6    7 1   
     7    6    8 1   
     8    6    9 1   
     9    9   10 1   
    10   10   11 1   
    11   10   25 1   
    12   10   39 1   
    13   11   12 1   
    14   11   40 1   
    15   11   41 1   
    16   12   13 1   
    17   12   42 1   
    18   12   65 1   
    19   13   14 1   
    20   13   15 1   
    21   13   65 1   
    22   15   16 1   
    23   15   22 1   
    24   15   43 1   
    25   16   17 1   
    26   16   44 1   
    27   16   45 1   
    28   17   18 1   
    29   17   19 1   
    30   17   20 1   
    31   18   46 1   
    32   18   47 1   
    33   18   48 1   
    34   19   49 1   
    35   19   50 1   
    36   19   51 1   
    37   20   21 1   
    38   20   22 1   
    39   21   52 1   
    40   22   23 1   
    41   22   24 1   
    42   23   53 1   
    43   23   54 1   
    44   23   55 1   
    45   24   56 1   
    46   24   57 1   
    47   24   58 1   
    48   25   26 1   
    49   25   59 1   
    50   25   60 1   
    51   26   27 1   
    52   26   61 1   
    53   27   28 1   
    54   27   38 1   
    55   28   29 1   
    56   28   32 1   
    57   29   30 1   
    58   29   31 1   
    59   32   33 1   
    60   32   62 1   
    61   33   34 1   
    62   33   37 1   
    63   34   35 1   
    64   35   36 1   
    65   37   38 1   
    66   37   63 1   
    67   38   64 1   
@<TRIPOS>SUBSTRUCTURE
     1 SLN         1 TEMP              0 ****  ****    0 ROOT
