@<TRIPOS>MOLECULE
SLO
   42    44     1     0     0
SMALL
bcc


@<TRIPOS>ATOM
      1 F          -0.1070    0.0140    0.6960 f         1 SLO     -0.152900
      2 S           3.7320   -0.9880   -8.0790 sy        1 SLO      1.403300
      3 C1          4.8650    0.0230    0.9560 cc        1 SLO      0.036600
      4 O1          4.7090    2.1610    3.4310 o         1 SLO     -0.823800
      5 C2          5.0840   -0.0620   -1.3790 cd        1 SLO      0.061800
      6 O2          6.8190    1.6730    2.8570 o         1 SLO     -0.823800
      7 C3          5.7790    0.0350   -0.0700 cd        1 SLO     -0.146200
      8 O3          2.5120   -1.6850   -8.0930 o         1 SLO     -0.667800
      9 C4          3.5100   -0.0170    0.3670 ca        1 SLO     -0.013800
     10 O4          3.7950    0.1930   -8.8380 o         1 SLO     -0.667800
     11 C5          3.6410   -0.0760   -1.0630 ca        1 SLO     -0.107800
     12 C6          5.1210    0.0230    2.3950 c3        1 SLO     -0.188200
     13 C7          5.7220   -0.1120   -2.5590 ce        1 SLO     -0.174200
     14 C8          2.2700    0.0210    0.9680 ca        1 SLO     -0.134000
     15 C9          2.5160   -0.0850   -1.8610 ca        1 SLO     -0.086000
     16 C10         7.2350    0.1380    0.0660 c3        1 SLO     -0.055900
     17 C11         5.1650   -0.2990   -3.8840 ca        1 SLO      0.057200
     18 C12         1.1260   -0.0100    0.1310 ca        1 SLO      0.123900
     19 C13         1.2470   -0.0600   -1.2640 ca        1 SLO     -0.193000
     20 C14         5.5580    0.5590   -4.9270 ca        1 SLO     -0.161500
     21 C15         4.3010   -1.3660   -4.1790 ca        1 SLO     -0.161500
     22 C16         4.2580   -0.7300   -6.5280 ca        1 SLO     -0.426500
     23 C17         5.5870    1.4140    2.9280 c         1 SLO      0.928600
     24 C18         5.1030    0.3470   -6.2200 ca        1 SLO     -0.016500
     25 C19         3.8580   -1.5730   -5.4790 ca        1 SLO     -0.016500
     26 C20         4.9490   -2.0390   -8.6330 c3        1 SLO     -0.347300
     27 H6          5.9370   -0.7090    2.6330 hc        1 SLO      0.045700
     28 H6A         4.1980   -0.2700    2.9580 hc        1 SLO      0.045700
     29 H7          6.8250    0.0000   -2.5580 ha        1 SLO      0.143000
     30 H8          2.1600    0.1000    2.0600 ha        1 SLO      0.172000
     31 H9          2.5930   -0.0990   -2.9580 ha        1 SLO      0.135000
     32 H10         7.6530    0.8600   -0.6800 hc        1 SLO      0.053033
     33 H10A        7.4930    0.5100    1.0980 hc        1 SLO      0.053033
     34 H10B        7.7210   -0.8560   -0.1010 hc        1 SLO      0.053033
     35 H13         0.3440   -0.0700   -1.8890 ha        1 SLO      0.136000
     36 H14         6.2240    1.4070   -4.7060 ha        1 SLO      0.151500
     37 H15         3.9780   -2.0390   -3.3690 ha        1 SLO      0.151500
     38 H18         5.3990    1.0400   -7.0280 ha        1 SLO      0.147000
     39 H19         3.1700   -2.4090   -5.6980 ha        1 SLO      0.147000
     40 H20         4.7560   -2.3540   -9.6880 h1        1 SLO      0.107367
     41 H20A        5.9630   -1.5710   -8.6210 h1        1 SLO      0.107367
     42 H20B        5.0200   -2.9750   -8.0290 h1        1 SLO      0.107367
@<TRIPOS>BOND
     1    1   18 1   
     2    2    8 2   
     3    2   10 2   
     4    2   22 1   
     5    2   26 1   
     6    3    7 2   
     7    3    9 1   
     8    3   12 1   
     9    4   23 1   
    10    5    7 1   
    11    5   11 1   
    12    5   13 2   
    13    6   23 1   
    14    7   16 1   
    15    9   11 ar  
    16    9   14 ar  
    17   11   15 ar  
    18   12   23 1   
    19   12   27 1   
    20   12   28 1   
    21   13   17 1   
    22   13   29 1   
    23   14   18 ar  
    24   14   30 1   
    25   15   19 ar  
    26   15   31 1   
    27   16   32 1   
    28   16   33 1   
    29   16   34 1   
    30   17   20 ar  
    31   17   21 ar  
    32   18   19 ar  
    33   19   35 1   
    34   20   24 ar  
    35   20   36 1   
    36   21   25 ar  
    37   21   37 1   
    38   22   24 ar  
    39   22   25 ar  
    40   24   38 1   
    41   25   39 1   
    42   26   40 1   
    43   26   41 1   
    44   26   42 1   
@<TRIPOS>SUBSTRUCTURE
     1 SLO         1 TEMP              0 ****  ****    0 ROOT
