@<TRIPOS>MOLECULE
SLO
   42    44     1     0     0
SMALL
bcc


@<TRIPOS>ATOM
      1 F          -2.8660   -4.4100    0.0650 f         1 SLO     -0.152900
      2 S           5.6370    0.1070   -0.1100 sy        1 SLO      1.403300
      3 C1         -3.4930    0.5070    0.5340 cc        1 SLO      0.036600
      4 O1         -6.2880    0.2900   -1.1560 o         1 SLO     -0.823800
      5 C2         -1.2030    0.9250    0.2400 cd        1 SLO      0.061800
      6 O2         -5.7950    2.4020   -0.5900 o         1 SLO     -0.823800
      7 C3         -2.5560    1.5070    0.4280 cd        1 SLO     -0.146200
      8 O3          5.8650   -1.1550    0.4660 o         1 SLO     -0.667800
      9 C4         -2.8070   -0.7900    0.3560 ca        1 SLO     -0.013800
     10 O4          6.1690    0.3220   -1.3930 o         1 SLO     -0.667800
     11 C5         -1.4030   -0.5370    0.1810 ca        1 SLO     -0.107800
     12 C6         -4.9240    0.6340    0.8030 c3        1 SLO     -0.188200
     13 C7         -0.0830    1.6600    0.1440 ce        1 SLO     -0.174200
     14 C8         -3.3120   -2.0720    0.3130 ca        1 SLO     -0.134000
     15 C9         -0.5350   -1.5850   -0.0440 ca        1 SLO     -0.086000
     16 C10        -2.8160    2.9500    0.4770 c3        1 SLO     -0.055900
     17 C11         1.2920    1.2100    0.0530 ca        1 SLO      0.057200
     18 C12        -2.4000   -3.1360    0.1000 ca        1 SLO      0.123900
     19 C13        -1.0310   -2.8960   -0.0780 ca        1 SLO     -0.193000
     20 C14         2.1340    1.7550   -0.9320 ca        1 SLO     -0.161500
     21 C15         1.8350    0.2990    0.9750 ca        1 SLO     -0.161500
     22 C16         4.0300    0.5110   -0.0530 ca        1 SLO     -0.426500
     23 C17        -5.7280    1.1520   -0.4310 c         1 SLO      0.928600
     24 C18         3.4750    1.4020   -0.9840 ca        1 SLO     -0.016500
     25 C19         3.1800   -0.0400    0.9180 ca        1 SLO     -0.016500
     26 C20         6.2760    1.2880    0.9330 c3        1 SLO     -0.347300
     27 H6         -5.3560   -0.3530    1.1050 hc        1 SLO      0.045700
     28 H6A        -5.0890    1.3710    1.6330 hc        1 SLO      0.045700
     29 H7         -0.1860    2.7630    0.1310 ha        1 SLO      0.143000
     30 H8         -4.3890   -2.2710    0.4110 ha        1 SLO      0.172000
     31 H9          0.5390   -1.4120   -0.2100 ha        1 SLO      0.135000
     32 H10        -2.5120    3.3730    1.4680 hc        1 SLO      0.053033
     33 H10A       -2.2430    3.4830   -0.3220 hc        1 SLO      0.053033
     34 H10B       -3.9130    3.1410    0.3110 hc        1 SLO      0.053033
     35 H13        -0.3480   -3.7390   -0.2530 ha        1 SLO      0.136000
     36 H14         1.7180    2.4590   -1.6690 ha        1 SLO      0.151500
     37 H15         1.1820   -0.1420    1.7450 ha        1 SLO      0.151500
     38 H18         4.1230    1.8180   -1.7760 ha        1 SLO      0.147000
     39 H19         3.5930   -0.7650    1.6410 ha        1 SLO      0.147000
     40 H20         7.3820    1.1670    1.0450 h1        1 SLO      0.107367
     41 H20A        6.1060    2.3280    0.5640 h1        1 SLO      0.107367
     42 H20B        5.8450    1.2370    1.9610 h1        1 SLO      0.107367
@<TRIPOS>BOND
     1    1   18 1   
     2    2    8 2   
     3    2   10 2   
     4    2   22 1   
     5    2   26 1   
     6    3    7 2   
     7    3    9 1   
     8    3   12 1   
     9    4   23 1   
    10    5    7 1   
    11    5   11 1   
    12    5   13 2   
    13    6   23 1   
    14    7   16 1   
    15    9   11 ar  
    16    9   14 ar  
    17   11   15 ar  
    18   12   23 1   
    19   12   27 1   
    20   12   28 1   
    21   13   17 1   
    22   13   29 1   
    23   14   18 ar  
    24   14   30 1   
    25   15   19 ar  
    26   15   31 1   
    27   16   32 1   
    28   16   33 1   
    29   16   34 1   
    30   17   20 ar  
    31   17   21 ar  
    32   18   19 ar  
    33   19   35 1   
    34   20   24 ar  
    35   20   36 1   
    36   21   25 ar  
    37   21   37 1   
    38   22   24 ar  
    39   22   25 ar  
    40   24   38 1   
    41   25   39 1   
    42   26   40 1   
    43   26   41 1   
    44   26   42 1   
@<TRIPOS>SUBSTRUCTURE
     1 SLO         1 TEMP              0 ****  ****    0 ROOT
