@<TRIPOS>MOLECULE
SLO
   42    44     1     0     0
SMALL
bcc


@<TRIPOS>ATOM
      1 F          -0.1220    0.0200    0.6750 f         1 SLO     -0.152900
      2 S           3.7570   -1.0210   -8.0780 sy        1 SLO      1.403300
      3 C1          4.8500    0.0440    0.9560 cc        1 SLO      0.036600
      4 O1          4.6780    2.1950    3.4180 o         1 SLO     -0.823800
      5 C2          5.0780   -0.0540   -1.3770 cd        1 SLO      0.061800
      6 O2          6.7920    1.7090    2.8550 o         1 SLO     -0.823800
      7 C3          5.7680    0.0520   -0.0660 cd        1 SLO     -0.146200
      8 O3          2.5390   -1.7220   -8.0930 o         1 SLO     -0.667800
      9 C4          3.4970   -0.0040    0.3620 ca        1 SLO     -0.013800
     10 O4          3.8190    0.1560   -8.8430 o         1 SLO     -0.667800
     11 C5          3.6350   -0.0700   -1.0670 ca        1 SLO     -0.107800
     12 C6          5.0990    0.0520    2.3960 c3        1 SLO     -0.188200
     13 C7          5.7220   -0.1090   -2.5550 ce        1 SLO     -0.174200
     14 C8          2.2550    0.0340    0.9570 ca        1 SLO     -0.134000
     15 C9          2.5130   -0.0860   -1.8700 ca        1 SLO     -0.086000
     16 C10         7.2230    0.1600    0.0750 c3        1 SLO     -0.055900
     17 C11         5.1700   -0.3050   -3.8810 ca        1 SLO      0.057200
     18 C12         1.1150   -0.0040    0.1160 ca        1 SLO      0.123900
     19 C13         1.2420   -0.0620   -1.2780 ca        1 SLO     -0.193000
     20 C14         5.5660    0.5480   -4.9270 ca        1 SLO     -0.161500
     21 C15         4.3110   -1.3770   -4.1740 ca        1 SLO     -0.161500
     22 C16         4.2760   -0.7530   -6.5260 ca        1 SLO     -0.426500
     23 C17         5.5600    1.4470    2.9230 c         1 SLO      0.928600
     24 C18         5.1170    0.3280   -6.2210 ca        1 SLO     -0.016500
     25 C19         3.8740   -1.5910   -5.4740 ca        1 SLO     -0.016500
     26 C20         4.9800   -2.0710   -8.6210 c3        1 SLO     -0.347300
     27 H6          5.9160   -0.6770    2.6420 hc        1 SLO      0.045700
     28 H6A         4.1750   -0.2400    2.9570 hc        1 SLO      0.045700
     29 H7          6.8240    0.0060   -2.5490 ha        1 SLO      0.143000
     30 H8          2.1400    0.1190    2.0480 ha        1 SLO      0.172000
     31 H9          2.5950   -0.1070   -2.9670 ha        1 SLO      0.135000
     32 H10         7.6420    0.8780   -0.6730 hc        1 SLO      0.053033
     33 H10A        7.4760    0.5370    1.1060 hc        1 SLO      0.053033
     34 H10B        7.7120   -0.8350   -0.0840 hc        1 SLO      0.053033
     35 H13         0.3410   -0.0770   -1.9070 ha        1 SLO      0.136000
     36 H14         6.2290    1.3990   -4.7080 ha        1 SLO      0.151500
     37 H15         3.9860   -2.0460   -3.3610 ha        1 SLO      0.151500
     38 H18         5.4150    1.0170   -7.0310 ha        1 SLO      0.147000
     39 H19         3.1890   -2.4300   -5.6910 ha        1 SLO      0.147000
     40 H20         4.7920   -2.3920   -9.6760 h1        1 SLO      0.107367
     41 H20A        5.9920   -1.6000   -8.6070 h1        1 SLO      0.107367
     42 H20B        5.0510   -3.0040   -8.0130 h1        1 SLO      0.107367
@<TRIPOS>BOND
     1    1   18 1   
     2    2    8 2   
     3    2   10 2   
     4    2   22 1   
     5    2   26 1   
     6    3    7 2   
     7    3    9 1   
     8    3   12 1   
     9    4   23 1   
    10    5    7 1   
    11    5   11 1   
    12    5   13 2   
    13    6   23 1   
    14    7   16 1   
    15    9   11 ar  
    16    9   14 ar  
    17   11   15 ar  
    18   12   23 1   
    19   12   27 1   
    20   12   28 1   
    21   13   17 1   
    22   13   29 1   
    23   14   18 ar  
    24   14   30 1   
    25   15   19 ar  
    26   15   31 1   
    27   16   32 1   
    28   16   33 1   
    29   16   34 1   
    30   17   20 ar  
    31   17   21 ar  
    32   18   19 ar  
    33   19   35 1   
    34   20   24 ar  
    35   20   36 1   
    36   21   25 ar  
    37   21   37 1   
    38   22   24 ar  
    39   22   25 ar  
    40   24   38 1   
    41   25   39 1   
    42   26   40 1   
    43   26   41 1   
    44   26   42 1   
@<TRIPOS>SUBSTRUCTURE
     1 SLO         1 TEMP              0 ****  ****    0 ROOT
