@<TRIPOS>MOLECULE
SLO
   42    38     1     0     0
SMALL
bcc


@<TRIPOS>ATOM
      1 F          -4.5960   -0.2520    2.5700 f         1 SLO     -0.116000
      2 S           0.1320   -0.0840   -5.7310 ss        1 SLO      2.866000
      3 C1          0.4490   -0.0740    3.3660 c1        1 SLO      0.055000
      4 O1         -0.7010    0.0050    6.5980 o         1 SLO     -0.559000
      5 C2          0.9780   -0.0880    1.1530 c1        1 SLO      0.055000
      6 O2          0.7930    1.4270    5.8890 o         1 SLO     -0.559000
      7 C3          1.4220   -0.1020    2.4760 c1        1 SLO     -0.178000
      8 O3          0.4200    1.1250   -6.4510 o         1 SLO     -0.948000
      9 C4         -0.9150   -0.0340    2.7730 c1        1 SLO     -0.017000
     10 O4          1.0400   -1.0040   -6.3560 o         1 SLO     -0.948000
     11 C5         -0.6660   -0.0410    1.2890 c2        1 SLO     -0.096000
     12 C6          0.6600   -0.6790    4.7370 c3        1 SLO     -0.224000
     13 C7          1.6960    0.3020    0.0810 c1        1 SLO     -0.192000
     14 C8         -2.1990   -0.0460    3.2490 c2        1 SLO     -0.116000
     15 C9         -1.7230   -0.0590    0.4220 c2        1 SLO     -0.095000
     16 C10         2.7820    0.4610    2.8240 c3        1 SLO     -0.149000
     17 C11         1.0770    0.2620   -1.2990 c1        1 SLO     -0.400000
     18 C12        -3.2890   -0.0650    2.3470 c2        1 SLO      0.087000
     19 C13        -3.0500   -0.0720    0.9210 c2        1 SLO     -0.196000
     20 C14         1.2070   -0.9470   -1.9640 c2        1 SLO     -0.090500
     21 C15         0.6520    1.3880   -1.9860 c1        1 SLO     -0.086000
     22 C16         0.4870    0.0960   -4.0030 c1        1 SLO     -0.400000
     23 C17         0.2220    0.3090    5.7970 c2        1 SLO      0.346000
     24 C18         0.9120   -1.0300   -3.3160 c2        1 SLO     -0.090500
     25 C19         0.3570    1.3050   -3.3380 c1        1 SLO     -0.086000
     26 C20        -1.5530   -0.5850   -5.9620 c2        1 SLO     -0.928000
     27 H6          0.1310   -1.4980    4.8170 hc        1 SLO      0.088500
     28 H6A         1.6070   -0.8890    4.8580 hc        1 SLO      0.088500
     29 H7          2.6150    0.6110    0.1950 ha        1 SLO      0.140000
     30 H8         -2.3630   -0.0240    4.2110 ha        1 SLO      0.224000
     31 H9         -1.5630   -0.0630   -0.5410 ha        1 SLO      0.127000
     32 H10         3.4240    0.2220    2.1230 hc        1 SLO      0.075333
     33 H10A        3.0800    0.0900    3.6810 hc        1 SLO      0.075333
     34 H10B        2.7230    1.4370    2.8940 hc        1 SLO      0.075333
     35 H13        -3.8030   -0.0930    0.3010 ha        1 SLO      0.130000
     36 H14         1.5070   -1.7400   -1.4800 ha        1 SLO      0.145000
     37 H15         0.5600    2.2400   -1.5180 ha        1 SLO      0.153500
     38 H18         1.0040   -1.8820   -3.7840 ha        1 SLO      0.145000
     39 H19         0.0730    2.1020   -3.8250 ha        1 SLO      0.153500
     40 H20        -1.7040   -0.7980   -6.9070 ha        1 SLO      0.148000
     41 H20A       -2.1500    0.1430   -5.6920 ha        1 SLO      0.148000
     42 H20B       -1.7360   -1.3780   -5.4150 ha        1 SLO      0.148000
@<TRIPOS>BOND
     1    1   18 1   
     2    2    8 1   
     3    2   10 1   
     4    3    7 1   
     5    3   12 1   
     6    4   23 1   
     7    5   11 1   
     8    5   13 1   
     9    6   23 1   
    10    7   16 1   
    11    9   11 1   
    12    9   14 1   
    13   11   15 1   
    14   12   23 1   
    15   12   27 1   
    16   12   28 1   
    17   13   29 1   
    18   14   18 1   
    19   14   30 1   
    20   15   19 1   
    21   15   31 1   
    22   16   32 1   
    23   16   33 1   
    24   16   34 1   
    25   17   20 1   
    26   17   21 1   
    27   18   19 1   
    28   19   35 1   
    29   20   24 1   
    30   20   36 1   
    31   21   37 1   
    32   22   24 1   
    33   22   25 1   
    34   24   38 1   
    35   25   39 1   
    36   26   40 1   
    37   26   41 1   
    38   26   42 1   
@<TRIPOS>SUBSTRUCTURE
     1 SLO         1 TEMP              0 ****  ****    0 ROOT
