@<TRIPOS>MOLECULE
SLP
   11    10     1     0     0
SMALL
bcc


@<TRIPOS>ATOM
      1 SE          1.6790   -0.0500    0.0000 sh        1 SLP     -0.485900
      2 O1         -2.6200    1.2420   -0.0000 o         1 SLP     -0.845300
      3 C2          0.0150    0.6160    0.0000 c3        1 SLP      0.080700
      4 O2         -3.3300   -0.8770   -0.0000 o         1 SLP     -0.845300
      5 C6         -0.9590   -0.5220    0.0000 c3        1 SLP     -0.202400
      6 C7         -2.4160   -0.0060   -0.0000 c         1 SLP      0.915600
      7 HSE         2.3570    1.0800   -0.0000 hs        1 SLP      0.179800
      8 H2         -0.1350    1.2540    0.9020 h1        1 SLP      0.062700
      9 H2A        -0.1350    1.2540   -0.9020 h1        1 SLP      0.062700
     10 H6         -0.8190   -1.1650   -0.9050 hc        1 SLP      0.038700
     11 H6A        -0.8190   -1.1650    0.9050 hc        1 SLP      0.038700
@<TRIPOS>BOND
     1    1    3 1   
     2    1    7 1   
     3    2    6 1   
     4    3    5 1   
     5    3    8 1   
     6    3    9 1   
     7    4    6 1   
     8    5    6 1   
     9    5   10 1   
    10    5   11 1   
@<TRIPOS>SUBSTRUCTURE
     1 SLP         1 TEMP              0 ****  ****    0 ROOT
