@<TRIPOS>MOLECULE
SLQ
   61    51     1     0     0
SMALL
bcc


@<TRIPOS>ATOM
      1 N1          1.1560   -0.2640   -1.1670 n1        1 SLQ     -0.311000
      2 O1          3.8220    1.3880   -4.6540 oh        1 SLQ     -0.335000
      3 C2          2.5450   -0.2390   -1.1670 c1        1 SLQ      0.193000
      4 N2          3.2850   -0.3100   -2.4400 n3        1 SLQ     -0.247000
      5 N3          3.2160   -0.2030   -0.0020 n1        1 SLQ     -0.266000
      6 C4          2.5320   -0.1910    1.1780 c1        1 SLQ     -0.079500
      7 C5          1.1750   -0.2150    1.1810 c1        1 SLQ     -0.079500
      8 C6          0.4870   -0.2520   -0.0030 c1        1 SLQ      0.254000
      9 N6         -0.9820   -0.3570    0.0060 n3        1 SLQ     -0.292000
     10 N7          0.7550   -0.1950    2.4910 n1        1 SLQ     -0.111000
     11 C8          1.8530   -0.1590    3.2800 c1        1 SLQ     -0.065000
     12 C9          4.3170   -0.1660    3.0300 c3        1 SLQ      0.038000
     13 N9          2.9560   -0.1560    2.4700 n2        1 SLQ     -0.187000
     14 C1'        -3.2930    0.4240    0.0910 c1        1 SLQ     -0.094000
     15 C10         4.5100    1.0770    3.9230 c3        1 SLQ     -0.229500
     16 C11         4.5160   -1.4240    3.8520 c3        1 SLQ     -0.229500
     17 C12         4.5260    0.3590   -2.5760 c3        1 SLQ      0.011000
     18 C13         5.4830   -0.5110   -3.3480 c3        1 SLQ     -0.167000
     19 C14         6.8670   -0.3200   -2.8310 c3        1 SLQ     -0.210000
     20 C15         4.3160    1.6700   -3.3290 c3        1 SLQ     -0.056000
     21 C1B        -7.4510   -0.1410    0.0780 c1        1 SLQ     -0.005500
     22 N1B        -8.3290    0.8910   -0.0570 n1        1 SLQ     -0.132000
     23 C2'        -3.9910    0.3490   -1.1380 c1        1 SLQ     -0.123250
     24 C2B        -7.9200   -1.4570    0.1160 c1        1 SLQ     -0.144000
     25 C3'        -5.3650    0.1940   -1.1430 c1        1 SLQ     -0.123250
     26 C3B        -9.2570   -1.7050    0.0190 c1        1 SLQ     -0.123250
     27 C4'        -6.0710    0.1100    0.0830 c1        1 SLQ     -0.005500
     28 C4B       -10.1320   -0.6730   -0.1150 c1        1 SLQ     -0.123250
     29 C5'        -5.3870    0.1830    1.2890 c1        1 SLQ     -0.144000
     30 C5B        -9.6600    0.6420   -0.1540 c1        1 SLQ     -0.068000
     31 C6'        -3.9950    0.3400    1.2990 c1        1 SLQ     -0.121000
     32 CA'        -1.7780    0.8130    0.1460 c3        1 SLQ      0.009000
     33 HO1         3.7780    2.1670   -5.1360 ho        1 SLQ      0.203000
     34 HN2         2.9810   -0.8170   -3.1000 hn        1 SLQ      0.223000
     35 HN6        -1.3840   -1.1670   -0.1280 hn        1 SLQ      0.231000
     36 H8          1.8590   -0.2000    4.2860 DU        1 SLQ      0.198000
     37 H9          4.9800   -0.1480    2.2880 h1        1 SLQ      0.128000
     38 H10         5.4320    1.3650    3.8800 hc        1 SLQ      0.086000
     39 H10A        4.2900    0.8640    4.8050 hc        1 SLQ      0.086000
     40 H10B        3.9180    1.8100    3.6010 hc        1 SLQ      0.086000
     41 H11         4.1410   -2.1720    3.3840 hc        1 SLQ      0.086000
     42 H11A        5.4670   -1.5740    3.9900 hc        1 SLQ      0.086000
     43 H11B        4.0650   -1.3240    4.7280 hc        1 SLQ      0.086000
     44 H12         4.9100    0.5510   -1.6540 h1        1 SLQ      0.125000
     45 H13         5.4520   -0.2700   -4.2950 hc        1 SLQ      0.098000
     46 H13A        5.2160   -1.4900   -3.2360 hc        1 SLQ      0.098000
     47 H14         6.9640   -0.8130   -1.9450 hc        1 SLQ      0.073667
     48 H14A        7.4960   -0.6740   -3.4640 hc        1 SLQ      0.073667
     49 H14B        7.0430    0.6410   -2.6960 hc        1 SLQ      0.073667
     50 H15         3.6940    2.1980   -2.8690 h1        1 SLQ      0.074500
     51 H15A        5.1450    2.1370   -3.3920 h1        1 SLQ      0.074500
     52 H2'        -3.5060    0.4080   -1.9790 ha        1 SLQ      0.144500
     53 H2B        -7.2720   -2.2190    0.2150 ha        1 SLQ      0.141000
     54 H3'        -5.8650    0.1380   -2.0200 ha        1 SLQ      0.144500
     55 H3B        -9.5800   -2.6090    0.0450 ha        1 SLQ      0.144500
     56 H4B       -11.0790   -0.8490   -0.1840 ha        1 SLQ      0.144500
     57 H5'        -5.8760    0.1270    2.1270 ha        1 SLQ      0.141000
     58 H5B       -10.2990    1.3960   -0.2520 ha        1 SLQ      0.160000
     59 H6'        -3.5000    0.3940    2.1740 ha        1 SLQ      0.138000
     60 HA'        -1.5830    1.4060   -0.5500 h1        1 SLQ      0.109500
     61 HA'A       -1.5900    1.2220    0.9690 h1        1 SLQ      0.109500
@<TRIPOS>BOND
     1    1    8 1   
     2    2   20 1   
     3    2   33 1   
     4    3    4 1   
     5    3    5 1   
     6    4   17 1   
     7    4   34 1   
     8    6    7 1   
     9    8    9 1   
    10    9   32 1   
    11    9   35 1   
    12   10   11 1   
    13   11   13 1   
    14   12   13 1   
    15   12   15 1   
    16   12   16 1   
    17   12   37 1   
    18   14   31 1   
    19   14   32 1   
    20   15   38 1   
    21   15   39 1   
    22   15   40 1   
    23   16   41 1   
    24   16   42 1   
    25   16   43 1   
    26   17   18 1   
    27   17   20 1   
    28   17   44 1   
    29   18   19 1   
    30   18   45 1   
    31   18   46 1   
    32   19   47 1   
    33   19   48 1   
    34   19   49 1   
    35   20   50 1   
    36   20   51 1   
    37   21   24 1   
    38   22   30 1   
    39   23   25 1   
    40   23   52 1   
    41   24   53 1   
    42   25   54 1   
    43   26   28 1   
    44   26   55 1   
    45   27   29 1   
    46   28   56 1   
    47   29   57 1   
    48   30   58 1   
    49   31   59 1   
    50   32   60 1   
    51   32   61 1   
@<TRIPOS>SUBSTRUCTURE
     1 SLQ         1 TEMP              0 ****  ****    0 ROOT
