@<TRIPOS>MOLECULE
SLQ
   61    64     1     0     0
SMALL
bcc


@<TRIPOS>ATOM
      1 N1         -1.9700   -0.8140    0.1740 nb        1 SLQ     -0.834000
      2 O1         -4.5160   -3.5970   -1.9070 oh        1 SLQ     -0.607800
      3 C2         -3.3620   -0.7860    0.2130 ca        1 SLQ      0.910900
      4 N2         -4.0360   -1.9980    0.4880 nh        1 SLQ     -0.802900
      5 N3         -4.1760    0.3300    0.0890 nb        1 SLQ     -0.788000
      6 C4         -3.4830    1.4930   -0.0220 ca        1 SLQ      0.493800
      7 C5         -2.0300    1.5940   -0.0480 ca        1 SLQ     -0.261200
      8 C6         -1.2990    0.3660    0.0410 ca        1 SLQ      0.775200
      9 N6          0.0800    0.3930   -0.0730 nh        1 SLQ     -0.853900
     10 N7         -1.6400    2.9360   -0.1720 nc        1 SLQ     -0.538100
     11 C8         -2.7870    3.6270   -0.2210 cd        1 SLQ      0.393700
     12 N9         -3.9460    2.8140   -0.1380 na        1 SLQ     -0.269000
     13 C1'         2.3560   -0.4870    0.1940 ca        1 SLQ     -0.101300
     14 C10        -5.6560    4.1830    1.0180 c3        1 SLQ     -0.111100
     15 C11        -5.6920    3.9650   -1.4630 c3        1 SLQ     -0.111100
     16 C12        -3.4050   -3.2710    0.1920 c3        1 SLQ      0.209500
     17 C13        -4.1970   -4.4380    0.8060 c3        1 SLQ     -0.079400
     18 C14        -4.2460   -4.3780    2.3080 c3        1 SLQ     -0.091100
     19 C15        -3.2260   -3.5460   -1.3190 c3        1 SLQ      0.093400
     20 C1B         6.5800    0.1760    0.0570 cp        1 SLQ      0.457800
     21 N1B         7.2310    0.5850    1.1800 nb        1 SLQ     -0.658000
     22 C2'         3.1600   -0.8660    1.2730 ca        1 SLQ     -0.123000
     23 C2B         7.2550   -0.0450   -1.1660 ca        1 SLQ     -0.236300
     24 C3'         4.5360   -0.6480    1.2370 ca        1 SLQ     -0.105000
     25 C3B         8.6330    0.1690   -1.2290 ca        1 SLQ     -0.093000
     26 C4'         5.1240   -0.0480    0.1170 cp        1 SLQ     -0.140500
     27 C4B         9.3050    0.5940   -0.0840 ca        1 SLQ     -0.246300
     28 C5'         4.3160    0.3410   -0.9600 ca        1 SLQ     -0.105000
     29 C5B         8.5560    0.7840    1.0930 ca        1 SLQ      0.398200
     30 C6'         2.9420    0.1200   -0.9220 ca        1 SLQ     -0.123000
     31 CA'         0.8820   -0.7680    0.2290 c3        1 SLQ      0.257100
     32 HO1        -4.3840   -3.6380   -2.8610 ho        1 SLQ      0.403000
     33 HN2        -5.0080   -1.9840    0.2410 hn        1 SLQ      0.427800
     34 HN6         0.5130    1.2850    0.0270 hn        1 SLQ      0.451800
     35 H8         -2.8710    4.7150   -0.3170 h5        1 SLQ      0.068800
     36 H9         -5.9650    2.3310   -0.0650 h1        1 SLQ      0.091700
     37 H10        -5.4490    3.6800    1.9930 hc        1 SLQ      0.046533
     38 H10A       -5.0620    5.1260    0.9690 hc        1 SLQ      0.046533
     39 H10B       -6.7410    4.4390    0.9720 hc        1 SLQ      0.046533
     40 H11        -5.5130    3.3000   -2.3420 hc        1 SLQ      0.046533
     41 H11A       -6.7760    4.2290   -1.4300 hc        1 SLQ      0.046533
     42 H11B       -5.0990    4.9020   -1.5950 hc        1 SLQ      0.046533
     43 H12        -2.3710   -3.2720    0.6490 h1        1 SLQ      0.086700
     44 H13        -5.2340   -4.4550    0.3800 hc        1 SLQ      0.050700
     45 H13A       -3.6910   -5.3870    0.4830 hc        1 SLQ      0.050700
     46 H14        -4.7280   -5.3010    2.7120 hc        1 SLQ      0.036700
     47 H14A       -3.2170   -4.3000    2.7350 hc        1 SLQ      0.036700
     48 H14B       -4.8350   -3.4950    2.6560 hc        1 SLQ      0.036700
     49 H15        -2.7080   -4.5330   -1.4570 h1        1 SLQ      0.034700
     50 H15A       -2.6100   -2.7390   -1.7960 h1        1 SLQ      0.034700
     51 H2'         2.7070   -1.3370    2.1590 ha        1 SLQ      0.141000
     52 H2B         6.6990   -0.3880   -2.0480 ha        1 SLQ      0.146000
     53 H3'         5.1590   -0.9460    2.0950 ha        1 SLQ      0.144000
     54 H3B         9.1780    0.0020   -2.1690 ha        1 SLQ      0.139000
     55 H4B        10.3870    0.7760   -0.0900 ha        1 SLQ      0.144000
     56 H5'         4.7660    0.8320   -1.8370 ha        1 SLQ      0.144000
     57 H5B         9.0460    1.1190    2.0250 h4        1 SLQ      0.023100
     58 H6'         2.3160    0.4240   -1.7750 ha        1 SLQ      0.141000
     59 HA'         0.6020   -1.1870    1.2410 h1        1 SLQ      0.059200
     60 HA'A        0.6490   -1.5650   -0.5390 h1        1 SLQ      0.059200
     61 C9         -5.3200    3.2590   -0.1560 c3        1 SLQ      0.057000
@<TRIPOS>BOND
     1    1    3 ar  
     2    1    8 ar  
     3    2   19 1   
     4    2   32 1   
     5    3    4 1   
     6    3    5 ar  
     7    4   16 1   
     8    4   33 1   
     9    5    6 ar  
    10    6    7 ar  
    11    6   12 1   
    12    7    8 ar  
    13    7   10 1   
    14    8    9 1   
    15    9   31 1   
    16    9   34 1   
    17   10   11 2   
    18   11   12 1   
    19   11   35 1   
    20   12   61 1   
    21   13   22 ar  
    22   13   30 ar  
    23   13   31 1   
    24   14   37 1   
    25   14   38 1   
    26   14   39 1   
    27   14   61 1   
    28   15   40 1   
    29   15   41 1   
    30   15   42 1   
    31   15   61 1   
    32   16   17 1   
    33   16   19 1   
    34   16   43 1   
    35   17   18 1   
    36   17   44 1   
    37   17   45 1   
    38   18   46 1   
    39   18   47 1   
    40   18   48 1   
    41   19   49 1   
    42   19   50 1   
    43   20   21 ar  
    44   20   23 ar  
    45   20   26 1   
    46   21   29 ar  
    47   22   24 ar  
    48   22   51 1   
    49   23   25 ar  
    50   23   52 1   
    51   24   26 ar  
    52   24   53 1   
    53   25   27 ar  
    54   25   54 1   
    55   26   28 ar  
    56   27   29 ar  
    57   27   55 1   
    58   28   30 ar  
    59   28   56 1   
    60   29   57 1   
    61   30   58 1   
    62   31   59 1   
    63   31   60 1   
    64   36   61 1   
@<TRIPOS>SUBSTRUCTURE
     1 SLQ         1 TEMP              0 ****  ****    0 ROOT
