@<TRIPOS>MOLECULE
SLQ
   61    64     1     0     0
SMALL
bcc


@<TRIPOS>ATOM
      1 N1         -0.0830    0.1250   -0.0480 nb        1 SLQ     -0.834000
      2 O1          2.4620   -2.0030   -2.7950 oh        1 SLQ     -0.607800
      3 C2          1.3080    0.1620   -0.0180 ca        1 SLQ      0.910900
      4 N2          1.9850    0.4160   -1.2340 nh        1 SLQ     -0.802900
      5 N3          2.1200    0.0530    1.1000 nb        1 SLQ     -0.788000
      6 C4          1.4260   -0.0390    2.2640 ca        1 SLQ      0.493800
      7 C5         -0.0270   -0.0600    2.3640 ca        1 SLQ     -0.261200
      8 C6         -0.7570    0.0120    1.1330 ca        1 SLQ      0.775200
      9 N6         -2.1360   -0.0990    1.1600 nh        1 SLQ     -0.853900
     10 N7         -0.4190   -0.1630    3.7070 nc        1 SLQ     -0.538100
     11 C8          0.7260   -0.2040    4.4000 cd        1 SLQ      0.393700
     12 N9          1.8870   -0.1360    3.5870 na        1 SLQ     -0.269000
     13 C1'        -4.4100    0.1600    0.2730 ca        1 SLQ     -0.101300
     14 C10         3.5970    1.0400    4.9380 c3        1 SLQ     -0.111100
     15 C11         3.6280   -1.4450    4.7640 c3        1 SLQ     -0.111100
     16 C12         1.3540    0.1030   -2.5020 c3        1 SLQ      0.209500
     17 C13         2.1490    0.6980   -3.6780 c3        1 SLQ     -0.079400
     18 C14         2.2010    2.2010   -3.6400 c3        1 SLQ     -0.091100
     19 C15         1.1730   -1.4120   -2.7560 c3        1 SLQ      0.093400
     20 C1B        -8.6350    0.0430    0.9330 cp        1 SLQ      0.457800
     21 N1B        -9.2840    1.1730    1.3250 nb        1 SLQ     -0.658000
     22 C2'        -5.2110    1.2350   -0.1220 ca        1 SLQ     -0.123000
     23 C2B        -9.3130   -1.1810    0.7300 ca        1 SLQ     -0.236300
     24 C3'        -6.5880    1.2060    0.0940 ca        1 SLQ     -0.105000
     25 C3B       -10.6910   -1.2380    0.9420 ca        1 SLQ     -0.093000
     26 C4'        -7.1790    0.0960    0.7110 cp        1 SLQ     -0.140500
     27 C4B       -11.3610   -0.0860    1.3500 ca        1 SLQ     -0.246300
     28 C5'        -6.3740   -0.9770    1.1160 ca        1 SLQ     -0.105000
     29 C5B       -10.6090    1.0910    1.5240 ca        1 SLQ      0.398200
     30 C6'        -4.9990   -0.9460    0.8960 ca        1 SLQ     -0.123000
     31 CA'        -2.9360    0.1870   -0.0070 c3        1 SLQ      0.257100
     32 HO1         2.3280   -2.9570   -2.8220 ho        1 SLQ      0.403000
     33 HN2         2.9560    0.1680   -1.2150 hn        1 SLQ      0.427800
     34 HN6        -2.5700    0.0160    2.0500 hn        1 SLQ      0.451800
     35 H8          0.8090   -0.2840    5.4900 h5        1 SLQ      0.068800
     36 H9          3.9070   -0.0760    3.1060 h1        1 SLQ      0.091700
     37 H10         3.0020    1.0070    5.8820 hc        1 SLQ      0.046533
     38 H10A        3.3940    2.0060    4.4190 hc        1 SLQ      0.046533
     39 H10B        4.6820    0.9950    5.1970 hc        1 SLQ      0.046533
     40 H11         3.0340   -1.5600    5.7010 hc        1 SLQ      0.046533
     41 H11A        3.4480   -2.3350    4.1140 hc        1 SLQ      0.046533
     42 H11B        4.7120   -1.4100    5.0280 hc        1 SLQ      0.046533
     43 H12         0.3210    0.5630   -2.5120 h1        1 SLQ      0.086700
     44 H13         1.6440    0.3620   -4.6220 hc        1 SLQ      0.050700
     45 H13A        3.1860    0.2700   -3.6870 hc        1 SLQ      0.050700
     46 H14         2.7900    2.5610   -2.7610 hc        1 SLQ      0.036700
     47 H14A        2.6850    2.5900   -4.5690 hc        1 SLQ      0.036700
     48 H14B        1.1730    2.6310   -3.5700 hc        1 SLQ      0.036700
     49 H15         0.6560   -1.5630   -3.7410 h1        1 SLQ      0.034700
     50 H15A        0.5550   -1.8750   -1.9420 h1        1 SLQ      0.034700
     51 H2'        -4.7560    2.1130   -0.6060 ha        1 SLQ      0.141000
     52 H2B        -8.7580   -2.0700    0.4000 ha        1 SLQ      0.146000
     53 H3'        -7.2080    2.0610   -0.2170 ha        1 SLQ      0.144000
     54 H3B       -11.2380   -2.1800    0.7880 ha        1 SLQ      0.139000
     55 H4B       -12.4430   -0.0870    1.5300 ha        1 SLQ      0.144000
     56 H5'        -6.8260   -1.8450    1.6190 ha        1 SLQ      0.144000
     57 H5B       -11.0970    2.0300    1.8450 h4        1 SLQ      0.023100
     58 H6'        -4.3750   -1.7950    1.2140 ha        1 SLQ      0.141000
     59 HA'        -2.6520    1.1920   -0.4400 h1        1 SLQ      0.059200
     60 HA'A       -2.7040   -0.5930   -0.7920 h1        1 SLQ      0.059200
     61 C9          3.2600   -0.1500    4.0350 c3        1 SLQ      0.057000
@<TRIPOS>BOND
     1    1    3 ar  
     2    1    8 ar  
     3    2   19 1   
     4    2   32 1   
     5    3    4 1   
     6    3    5 ar  
     7    4   16 1   
     8    4   33 1   
     9    5    6 ar  
    10    6    7 ar  
    11    6   12 1   
    12    7    8 ar  
    13    7   10 1   
    14    8    9 1   
    15    9   31 1   
    16    9   34 1   
    17   10   11 2   
    18   11   12 1   
    19   11   35 1   
    20   12   61 1   
    21   13   22 ar  
    22   13   30 ar  
    23   13   31 1   
    24   14   37 1   
    25   14   38 1   
    26   14   39 1   
    27   14   61 1   
    28   15   40 1   
    29   15   41 1   
    30   15   42 1   
    31   15   61 1   
    32   16   17 1   
    33   16   19 1   
    34   16   43 1   
    35   17   18 1   
    36   17   44 1   
    37   17   45 1   
    38   18   46 1   
    39   18   47 1   
    40   18   48 1   
    41   19   49 1   
    42   19   50 1   
    43   20   21 ar  
    44   20   23 ar  
    45   20   26 1   
    46   21   29 ar  
    47   22   24 ar  
    48   22   51 1   
    49   23   25 ar  
    50   23   52 1   
    51   24   26 ar  
    52   24   53 1   
    53   25   27 ar  
    54   25   54 1   
    55   26   28 ar  
    56   27   29 ar  
    57   27   55 1   
    58   28   30 ar  
    59   28   56 1   
    60   29   57 1   
    61   30   58 1   
    62   31   59 1   
    63   31   60 1   
    64   36   61 1   
@<TRIPOS>SUBSTRUCTURE
     1 SLQ         1 TEMP              0 ****  ****    0 ROOT
