@<TRIPOS>MOLECULE
SLR
   32    32     1     0     0
SMALL
bcc


@<TRIPOS>ATOM
      1 O7          0.0950   -0.4380    2.8590 o         1 SLR     -0.823300
      2 C1         -0.1960   -1.9130   -0.3630 c3        1 SLR      0.159100
      3 C2          0.9900   -2.2140   -0.9020 c3        1 SLR     -0.157700
      4 C3          1.9980   -1.6020    0.1300 c         1 SLR      0.686500
      5 N4          1.5290   -0.4510    0.5060 n         1 SLR     -0.506900
      6 C5          0.0290   -0.5760    0.4750 c3        1 SLR     -0.112600
      7 C6         -0.6100   -0.5970    1.8280 c         1 SLR      0.916600
      8 OXT        -1.8460   -0.7960    1.9370 o         1 SLR     -0.823300
      9 O8         -0.6250   -2.9730    0.5060 oh        1 SLR     -0.633800
     10 C9          1.0820   -1.5860   -2.3490 c3        1 SLR     -0.075100
     11 O10         3.0810   -2.0620    0.4270 o         1 SLR     -0.670500
     12 C11        -0.5940    0.5500   -0.1220 c3        1 SLR      0.175100
     13 O12        -2.0020    0.3390   -0.1820 oh        1 SLR     -0.636800
     14 C13        -0.2910    1.8310    0.7400 c3        1 SLR     -0.090700
     15 C14        -1.6100    2.4550    1.2130 c3        1 SLR     -0.090100
     16 C15         0.4810    2.8490   -0.1110 c3        1 SLR     -0.090100
     17 H1         -0.8630   -1.7620   -1.0710 h1        1 SLR      0.053700
     18 H2          1.1930   -3.1570   -1.0860 hc        1 SLR      0.091700
     19 HN4         2.0110    0.2300    0.9020 hn        1 SLR      0.328500
     20 HO8        -1.1030   -3.5640    0.0410 ho        1 SLR      0.451000
     21 H9          1.3780   -0.6620   -2.2830 hc        1 SLR      0.034700
     22 H9A         0.1920   -1.6170   -2.7790 hc        1 SLR      0.034700
     23 H9B         1.7240   -2.0980   -2.8870 hc        1 SLR      0.034700
     24 H11        -0.2420    0.6770   -1.0290 h1        1 SLR      0.046700
     25 HO12       -2.3040    0.5840   -0.9800 ho        1 SLR      0.442000
     26 H13         0.2450    1.5820    1.5130 hc        1 SLR      0.071700
     27 H14        -2.1580    2.6970    0.4330 hc        1 SLR      0.030367
     28 H14A       -2.0970    1.8090    1.7670 hc        1 SLR      0.030367
     29 H14B       -1.4200    3.2610    1.7420 hc        1 SLR      0.030367
     30 H15         0.5970    3.6870    0.4000 hc        1 SLR      0.030367
     31 H15A        1.3570    2.4840   -0.3400 hc        1 SLR      0.030367
     32 H15B       -0.0210    3.0360   -0.9350 hc        1 SLR      0.030367
@<TRIPOS>BOND
     1    1    7 1   
     2    2    3 1   
     3    2    6 1   
     4    2    9 1   
     5    2   17 1   
     6    3    4 1   
     7    3   10 1   
     8    3   18 1   
     9    4    5 1   
    10    4   11 2   
    11    5    6 1   
    12    5   19 1   
    13    6    7 1   
    14    6   12 1   
    15    7    8 1   
    16    9   20 1   
    17   10   21 1   
    18   10   22 1   
    19   10   23 1   
    20   12   13 1   
    21   12   14 1   
    22   12   24 1   
    23   13   25 1   
    24   14   15 1   
    25   14   16 1   
    26   14   26 1   
    27   15   27 1   
    28   15   28 1   
    29   15   29 1   
    30   16   30 1   
    31   16   31 1   
    32   16   32 1   
@<TRIPOS>SUBSTRUCTURE
     1 SLR         1 TEMP              0 ****  ****    0 ROOT
