@<TRIPOS>MOLECULE
SLR
   32    32     1     0     0
SMALL
bcc


@<TRIPOS>ATOM
      1 O7          0.3930   -2.7680    0.1000 o         1 SLR     -0.817800
      2 C1          0.5440   -0.1380    1.2500 c3        1 SLR      0.153100
      3 C2          1.6180    0.9730    1.2170 c3        1 SLR     -0.151700
      4 C3          1.7220    1.3650   -0.2580 c         1 SLR      0.684500
      5 N4          0.7700    0.6890   -1.0200 n         1 SLR     -0.495900
      6 C5          0.1310   -0.3800   -0.2430 c3        1 SLR     -0.127600
      7 C6          0.6550   -1.8120   -0.6830 c         1 SLR      0.901600
      8 OXT         1.2600   -1.9140   -1.7800 o         1 SLR     -0.817800
      9 O8         -0.4910    0.3440    2.0880 oh        1 SLR     -0.630800
     10 C11        -1.4060   -0.4220   -0.4760 c3        1 SLR      0.178100
     11 O12        -2.0130   -1.3270    0.4390 oh        1 SLR     -0.651800
     12 C13        -2.1130    0.9370   -0.3330 c3        1 SLR     -0.065700
     13 C14        -2.3260    1.5660   -1.6960 c3        1 SLR     -0.078100
     14 C15        -3.4450    0.8140    0.3800 c3        1 SLR     -0.078100
     15 H1          0.9420   -1.1010    1.6730 h1        1 SLR      0.078700
     16 H2          1.2630    1.8610    1.8030 hc        1 SLR      0.083700
     17 HN4         1.0110    0.4310   -1.9550 hn        1 SLR      0.321500
     18 HO8        -1.2240   -0.2840    2.0300 ho        1 SLR      0.427000
     19 H11        -1.5730   -0.8180   -1.5210 h1        1 SLR      0.038700
     20 HO12       -1.4890   -2.1460    0.4320 ho        1 SLR      0.450000
     21 H13        -1.4520    1.6090    0.2830 hc        1 SLR      0.069700
     22 H14        -3.0210    0.9440   -2.3100 hc        1 SLR      0.026367
     23 H14A       -2.7730    2.5830   -1.5800 hc        1 SLR      0.026367
     24 H14B       -1.3610    1.6660   -2.2470 hc        1 SLR      0.026367
     25 H15        -4.1030    0.0800   -0.1440 hc        1 SLR      0.026367
     26 H15A       -3.2870    0.4560    1.4260 hc        1 SLR      0.026367
     27 H15B       -3.9600    1.8040    0.4100 hc        1 SLR      0.026367
     28 C9          2.9490    0.5000    1.7420 c3        1 SLR     -0.079100
     29 H9          3.2770   -0.4280    1.2140 hc        1 SLR      0.039367
     30 H9A         3.7220    1.2920    1.5860 hc        1 SLR      0.039367
     31 H9B         2.8700    0.2780    2.8330 hc        1 SLR      0.039367
     32 O10         2.5000    2.2250   -0.7100 o         1 SLR     -0.667500
@<TRIPOS>BOND
     1    1    7 1   
     2    2    3 1   
     3    2    6 1   
     4    2    9 1   
     5    2   15 1   
     6    3    4 1   
     7    3   16 1   
     8    3   28 1   
     9    4    5 1   
    10    4   32 2   
    11    5    6 1   
    12    5   17 1   
    13    6    7 1   
    14    6   10 1   
    15    7    8 1   
    16    9   18 1   
    17   10   11 1   
    18   10   12 1   
    19   10   19 1   
    20   11   20 1   
    21   12   13 1   
    22   12   14 1   
    23   12   21 1   
    24   13   22 1   
    25   13   23 1   
    26   13   24 1   
    27   14   25 1   
    28   14   26 1   
    29   14   27 1   
    30   28   29 1   
    31   28   30 1   
    32   28   31 1   
@<TRIPOS>SUBSTRUCTURE
     1 SLR         1 TEMP              0 ****  ****    0 ROOT
