@<TRIPOS>MOLECULE
SLU
   58    63     1     0     0
SMALL
bcc


@<TRIPOS>ATOM
      1 O39        -0.3780   -0.1600   -2.8720 o         1 SLU     -0.546100
      2 C16        -1.1670   -0.4780   -1.9690 c         1 SLU      0.629600
      3 C14        -2.5510    0.0580   -1.9400 cc        1 SLU      0.262800
      4 N15        -3.4240   -0.1250   -0.8760 nc        1 SLU     -0.576000
      5 C13        -3.0680    0.8030   -3.0060 cd        1 SLU     -0.192400
      6 S12        -4.6260    1.2620   -2.6950 ss        1 SLU      0.018700
      7 C11        -4.5810    0.4840   -1.1550 cd        1 SLU      0.364100
      8 C8         -5.7370    0.5010   -0.2810 cd        1 SLU      0.281200
      9 S9         -6.4590    2.0270    0.1450 ss        1 SLU     -0.007100
     10 C4         -7.6210    1.2390    1.0820 ca        1 SLU     -0.046100
     11 C5         -8.6730    1.7660    1.8270 ca        1 SLU     -0.133000
     12 C6         -9.4950    0.8780    2.5260 ca        1 SLU      0.147100
     13 O10       -10.5210    1.4400    3.2470 oh        1 SLU     -0.490100
     14 C3         -7.3930   -0.1800    1.0360 ca        1 SLU      0.036400
     15 N7         -6.3040   -0.5740    0.2460 nc        1 SLU     -0.461100
     16 C2         -8.2410   -1.0500    1.7540 ca        1 SLU     -0.023000
     17 C1         -9.2820   -0.5200    2.4910 ca        1 SLU     -0.209000
     18 N40        -0.7590   -1.3570   -0.9600 n         1 SLU     -0.690300
     19 S17         0.6710   -2.1390   -0.8320 s6        1 SLU      1.704100
     20 O18         0.6470   -2.8680    0.3530 o         1 SLU     -0.631300
     21 O19         1.1170   -2.7010   -2.0070 o         1 SLU     -0.631300
     22 O20         1.7810   -0.9170   -0.5200 os        1 SLU     -0.555500
     23 C21         2.0260   -0.4140    0.7680 c3        1 SLU      0.173400
     24 C22         2.9940   -1.3100    1.5460 c3        1 SLU      0.050100
     25 C23         3.5020   -0.5980    2.8180 c3        1 SLU      0.134100
     26 O27         3.2760   -1.3640    3.9730 oh        1 SLU     -0.572800
     27 C24         4.9960   -0.3050    2.5450 c3        1 SLU      0.080100
     28 O28         5.7670   -1.0490    3.4640 oh        1 SLU     -0.591800
     29 C25         5.2600   -0.8480    1.1000 c3        1 SLU      0.223800
     30 O26         4.1290   -1.6420    0.7360 os        1 SLU     -0.386600
     31 N35         5.4890    0.1940    0.1260 na        1 SLU     -0.299000
     32 C32         6.5770    1.0790    0.1460 ca        1 SLU      0.445800
     33 N31         7.5750    1.2490    1.0660 nb        1 SLU     -0.757000
     34 C30         8.4470    2.2210    0.7080 ca        1 SLU      0.685900
     35 N29         8.4660    3.0220   -0.3900 nb        1 SLU     -0.795000
     36 C33         6.4570    1.8610   -1.0780 ca        1 SLU     -0.224200
     37 C34         7.4560    2.8640   -1.3120 ca        1 SLU      0.758200
     38 N38         7.3780    3.6690   -2.4200 nh        1 SLU     -0.954500
     39 N37         5.3320    1.4410   -1.8060 nc        1 SLU     -0.551100
     40 C36         4.7860    0.4570   -1.0780 cd        1 SLU      0.430700
     41 H13        -2.4980    1.0370   -3.9090 h4        1 SLU      0.213000
     42 H5         -8.8630    2.8470    1.8740 ha        1 SLU      0.163000
     43 H10       -11.0070    0.7270    3.6880 ho        1 SLU      0.426000
     44 H2         -8.0660   -2.1370    1.7220 ha        1 SLU      0.159000
     45 H1         -9.9520   -1.1830    3.0580 ha        1 SLU      0.143000
     46 H40        -1.4410   -1.5050   -0.2410 hn        1 SLU      0.362500
     47 H211        1.0660   -0.3220    1.3430 h1        1 SLU      0.059200
     48 H212        2.4750    0.6040    0.5970 h1        1 SLU      0.059200
     49 H22         2.5080   -2.3000    1.7830 h1        1 SLU      0.123700
     50 H23         2.9410    0.3590    3.0020 h1        1 SLU      0.089700
     51 H27         3.8970   -2.1070    3.9690 ho        1 SLU      0.428000
     52 H24         5.2140    0.7900    2.6380 h1        1 SLU      0.082700
     53 H28         6.6660   -0.6940    3.4260 ho        1 SLU      0.432000
     54 H25         6.1420   -1.5580    1.0900 h2        1 SLU      0.107700
     55 H30         9.2830    2.3960    1.4190 h5        1 SLU      0.049100
     56 H381        8.1170    4.2910   -2.6370 hn        1 SLU      0.446300
     57 H382        6.7110    3.4460   -3.1160 hn        1 SLU      0.446300
     58 H36         3.8820   -0.1220   -1.3330 h5        1 SLU      0.109800
@<TRIPOS>BOND
     1    1    2 2   
     2    2    3 1   
     3    2   18 1   
     4    3    4 1   
     5    3    5 2   
     6    4    7 2   
     7    5    6 1   
     8    5   41 1   
     9    6    7 1   
    10    7    8 1   
    11    8    9 1   
    12    8   15 2   
    13    9   10 1   
    14   10   11 ar  
    15   10   14 ar  
    16   11   12 ar  
    17   11   42 1   
    18   12   13 1   
    19   12   17 ar  
    20   13   43 1   
    21   14   15 1   
    22   14   16 ar  
    23   16   17 ar  
    24   16   44 1   
    25   17   45 1   
    26   18   19 1   
    27   18   46 1   
    28   19   20 2   
    29   19   21 2   
    30   19   22 1   
    31   22   23 1   
    32   23   24 1   
    33   23   47 1   
    34   23   48 1   
    35   24   25 1   
    36   24   30 1   
    37   24   49 1   
    38   25   26 1   
    39   25   27 1   
    40   25   50 1   
    41   26   51 1   
    42   27   28 1   
    43   27   29 1   
    44   27   52 1   
    45   28   53 1   
    46   29   30 1   
    47   29   31 1   
    48   29   54 1   
    49   31   32 1   
    50   31   40 1   
    51   32   33 ar  
    52   32   36 ar  
    53   33   34 ar  
    54   34   35 ar  
    55   34   55 1   
    56   35   37 ar  
    57   36   37 ar  
    58   36   39 1   
    59   37   38 1   
    60   38   56 1   
    61   38   57 1   
    62   39   40 2   
    63   40   58 1   
@<TRIPOS>SUBSTRUCTURE
     1 SLU         1 TEMP              0 ****  ****    0 ROOT
