@<TRIPOS>MOLECULE
SLU
   59    64     1     0     0
SMALL
bcc


@<TRIPOS>ATOM
      1 O39        -0.3240    2.7310    0.3660 o         1 SLU     -0.420100
      2 C16         0.6910    2.0480    0.3990 c         1 SLU      0.511600
      3 C14         1.7740    2.1230    1.3690 cc        1 SLU      0.204800
      4 N15         2.9370    1.3700    1.2320 nc        1 SLU     -0.617000
      5 C13         1.7400    2.9640    2.4930 cd        1 SLU     -0.171400
      6 S12         3.1290    2.8230    3.3570 ss        1 SLU      0.131700
      7 C11         3.7540    1.6520    2.2490 cd        1 SLU      0.408100
      8 C8          5.0730    1.0800    2.4370 cd        1 SLU      0.225200
      9 S9          5.4710    0.2860    3.9260 ss        1 SLU      0.025900
     10 C4          7.0270   -0.0370    3.3610 ca        1 SLU     -0.038100
     11 C5          8.0830   -0.6900    3.9900 ca        1 SLU     -0.137000
     12 C6          9.2850   -0.8300    3.2870 ca        1 SLU      0.167100
     13 O10        10.2970   -1.4780    3.9450 oh        1 SLU     -0.479100
     14 C3          7.1710    0.4790    2.0250 ca        1 SLU      0.026400
     15 N7          6.0330    1.1130    1.5190 nc        1 SLU     -0.452100
     16 C2          8.3980    0.3210    1.3430 ca        1 SLU     -0.017000
     17 C1          9.4410   -0.3280    1.9720 ca        1 SLU     -0.205000
     18 N40         0.8040    0.9840   -0.6580 ny        1 SLU     -0.608700
     19 S17         2.3250    0.8040   -1.7360 s6        1 SLU      1.649400
     20 O18         3.0450   -0.2060   -1.1830 o         1 SLU     -0.568800
     21 O19         1.7690    0.7240   -2.9850 o         1 SLU     -0.568800
     22 O20         3.0290    2.2450   -1.5850 os        1 SLU     -0.544500
     23 C21         3.1130    3.2700   -2.5710 c3        1 SLU      0.188400
     24 C22         1.7760    3.5760   -3.2380 c3        1 SLU      0.031100
     25 C23         1.8030    4.9330   -3.9760 c3        1 SLU      0.133100
     26 O27         1.9410    4.7700   -5.3590 oh        1 SLU     -0.565800
     27 C24         0.4880    5.6250   -3.5520 c3        1 SLU      0.079100
     28 O28        -0.4760    5.3750   -4.5530 oh        1 SLU     -0.588800
     29 C25         0.0360    4.8700   -2.2590 c3        1 SLU      0.241800
     30 O26         0.7420    3.6040   -2.2500 os        1 SLU     -0.468600
     31 N35         0.2830    5.5970   -1.0480 na        1 SLU     -0.302000
     32 C32        -0.6560    5.8340   -0.0250 ca        1 SLU      0.477800
     33 N31        -1.9820    5.5270    0.0550 nb        1 SLU     -0.735000
     34 C30        -2.5470    5.9600    1.2110 ca        1 SLU      0.699900
     35 N29        -1.9950    6.6300    2.2540 nb        1 SLU     -0.776000
     36 C33         0.0790    6.5440    1.0150 ca        1 SLU     -0.247200
     37 C34        -0.6550    6.9400    2.1830 ca        1 SLU      0.752200
     38 N38        -0.0150    7.5600    3.2290 nv        1 SLU     -0.936500
     39 N37         1.4190    6.7140    0.6260 nc        1 SLU     -0.522100
     40 C36         1.5090    6.1470   -0.5810 cd        1 SLU      0.394700
     41 H13         0.8970    3.6210    2.7370 h4        1 SLU      0.222000
     42 H5          7.9940   -1.0910    5.0100 ha        1 SLU      0.171000
     43 H10        11.0710   -1.5140    3.3610 ho        1 SLU      0.434000
     44 H2          8.5120    0.7140    0.3200 ha        1 SLU      0.159000
     45 H1         10.4030   -0.4600    1.4550 ha        1 SLU      0.152000
     46 H40         0.6690    0.0960   -0.1660 hn        1 SLU      0.472300
     47 H211        3.8650    2.9580   -3.3440 h1        1 SLU      0.094700
     48 H212        3.4960    4.1460   -1.9740 h1        1 SLU      0.094700
     49 H22         1.4960    2.7550   -3.9630 h1        1 SLU      0.117700
     50 H23         2.6920    5.5500   -3.6660 h1        1 SLU      0.093700
     51 H27         1.0930    4.4720   -5.7240 ho        1 SLU      0.438000
     52 H24         0.6420    6.7210   -3.3820 h1        1 SLU      0.093700
     53 H28        -0.9700    6.1920   -4.7000 ho        1 SLU      0.439000
     54 H25        -1.0600    4.5900   -2.3120 h2        1 SLU      0.144700
     55 H30        -3.6320    5.7390    1.3210 h5        1 SLU      0.066100
     56 H381       -0.5580    7.9540    3.9620 hn        1 SLU      0.446300
     57 H382        0.8750    7.9590    3.0470 hn        1 SLU      0.446300
     58 H36         2.4170    6.1030   -1.1940 h5        1 SLU      0.066800
     59 H402        0.0020    1.1190   -1.2890 hn        1 SLU      0.472300
@<TRIPOS>BOND
     1    1    2 2   
     2    2    3 1   
     3    2   18 1   
     4    3    4 1   
     5    3    5 2   
     6    4    7 2   
     7    5    6 1   
     8    5   41 1   
     9    6    7 1   
    10    7    8 1   
    11    8    9 1   
    12    8   15 2   
    13    9   10 1   
    14   10   11 ar  
    15   10   14 ar  
    16   11   12 ar  
    17   11   42 1   
    18   12   13 1   
    19   12   17 ar  
    20   13   43 1   
    21   14   15 1   
    22   14   16 ar  
    23   16   17 ar  
    24   16   44 1   
    25   17   45 1   
    26   18   19 1   
    27   18   46 1   
    28   18   59 1   
    29   19   20 2   
    30   19   21 2   
    31   19   22 1   
    32   22   23 1   
    33   23   24 1   
    34   23   47 1   
    35   23   48 1   
    36   24   25 1   
    37   24   30 1   
    38   24   49 1   
    39   25   26 1   
    40   25   27 1   
    41   25   50 1   
    42   26   51 1   
    43   27   28 1   
    44   27   29 1   
    45   27   52 1   
    46   28   53 1   
    47   29   30 1   
    48   29   31 1   
    49   29   54 1   
    50   31   32 1   
    51   31   40 1   
    52   32   33 ar  
    53   32   36 ar  
    54   33   34 ar  
    55   34   35 ar  
    56   34   55 1   
    57   35   37 ar  
    58   36   37 ar  
    59   36   39 1   
    60   37   38 1   
    61   38   56 1   
    62   38   57 1   
    63   39   40 2   
    64   40   58 1   
@<TRIPOS>SUBSTRUCTURE
     1 SLU         1 TEMP              0 ****  ****    0 ROOT
