@<TRIPOS>MOLECULE
SLU
   60    65     1     0     0
SMALL
bcc


@<TRIPOS>ATOM
      1 O39        -0.6320   -2.3570   -0.2040 o         1 SLU     -0.406100
      2 C16         0.5290   -1.9990   -0.3310 c         1 SLU      0.506600
      3 C14         1.5000   -1.7060    0.7160 cc        1 SLU      0.201800
      4 N15         2.6350   -0.9410    0.4560 nc        1 SLU     -0.641000
      5 C13         1.3730   -2.1520    2.0400 cd        1 SLU     -0.174400
      6 S12         2.6470   -1.6390    2.9420 ss        1 SLU      0.157700
      7 C11         3.3460   -0.8350    1.5830 cd        1 SLU      0.395100
      8 C8          4.5960   -0.1120    1.7030 cd        1 SLU      0.213200
      9 S9          5.9410   -0.8500    2.4990 ss        1 SLU      0.069900
     10 C4          6.8880    0.5140    2.2180 ca        1 SLU     -0.041100
     11 C5          8.2110    0.7610    2.5670 ca        1 SLU     -0.131000
     12 C6          8.7760    1.9870    2.1970 ca        1 SLU      0.175100
     13 O10        10.0780    2.1850    2.5630 oh        1 SLU     -0.469100
     14 C3          6.1160    1.4950    1.4980 ca        1 SLU      0.024400
     15 N7          4.8040    1.1110    1.2150 nc        1 SLU     -0.490100
     16 C2          6.7180    2.7230    1.1390 ca        1 SLU     -0.030000
     17 C1          8.0310    2.9610    1.4860 ca        1 SLU     -0.198000
     18 N40         1.0460   -1.8730   -1.7380 n4        1 SLU     -0.618700
     19 S17         1.4320   -0.1760   -2.4110 s6        1 SLU      1.636400
     20 O18         2.7870   -0.1190   -2.5080 o         1 SLU     -0.554800
     21 O19         0.5420   -0.0900   -3.4390 o         1 SLU     -0.554800
     22 O20         0.8730    0.7810   -1.2230 os        1 SLU     -0.557500
     23 C21         1.5580    1.9160   -0.7010 c3        1 SLU      0.185400
     24 C22         1.2250    3.1300   -1.5690 c3        1 SLU      0.093100
     25 C23         2.4550    3.8240   -2.1900 c3        1 SLU      0.075100
     26 O27         2.4700    3.4620   -3.5550 oh        1 SLU     -0.598800
     27 C24         2.1970    5.3380   -2.0170 c3        1 SLU      0.082100
     28 O28         2.1510    6.0220   -3.2370 oh        1 SLU     -0.557800
     29 C25         0.8210    5.4160   -1.2710 c3        1 SLU      0.213800
     30 O26         0.5610    4.0970   -0.7410 os        1 SLU     -0.412600
     31 N35         0.7680    6.3670   -0.1870 na        1 SLU     -0.256000
     32 C32         0.0410    7.5710   -0.2030 ca        1 SLU      0.467800
     33 N31        -0.7020    8.1730   -1.1640 nb        1 SLU     -0.617000
     34 C30        -1.2370    9.3630   -0.7840 ca        1 SLU      0.685900
     35 N29        -1.1160   10.0060    0.4140 nb        1 SLU     -0.669000
     36 C33         0.2520    8.1520    1.1410 ca        1 SLU     -0.137200
     37 C34        -0.3710    9.3940    1.3670 ca        1 SLU      0.531200
     38 N38        -0.2030   10.0450    2.6800 n4        1 SLU     -0.817300
     39 N37         1.0510    7.3010    1.9130 nc        1 SLU     -0.574100
     40 C36         1.3280    6.2600    1.1060 cd        1 SLU      0.510700
     41 H13         0.5350   -2.7580    2.4040 h4        1 SLU      0.226000
     42 H5          8.8160    0.0230    3.1170 ha        1 SLU      0.179000
     43 H10        10.3680    3.0510    2.2350 ho        1 SLU      0.439000
     44 H2          6.1400    3.4760    0.5840 ha        1 SLU      0.142000
     45 H1          8.5150    3.9100    1.2090 ha        1 SLU      0.153000
     46 H40         1.8970   -2.4420   -1.7880 hn        1 SLU      0.480300
     47 H211        1.1310    2.0360    0.3350 h1        1 SLU      0.113200
     48 H212        2.6610    1.7070   -0.6550 h1        1 SLU      0.113200
     49 H22         0.5010    2.8370   -2.3860 h1        1 SLU      0.100700
     50 H23         3.4120    3.5220   -1.6890 h1        1 SLU      0.082700
     51 H27         3.2440    3.8820   -3.9600 ho        1 SLU      0.447000
     52 H24         3.0260    5.8330   -1.4410 h1        1 SLU      0.110700
     53 H28         1.5540    5.5470   -3.8370 ho        1 SLU      0.430000
     54 H25        -0.0080    5.6680   -2.0020 h2        1 SLU      0.123700
     55 H30        -1.8580    9.8900   -1.5490 h5        1 SLU      0.110100
     56 H381       -0.4620    9.3740    3.4140 hn        1 SLU      0.481800
     57 H382        0.7850   10.3060    2.7930 hn        1 SLU      0.481800
     58 H36         1.9270    5.3820    1.3960 h5        1 SLU      0.104800
     59 H402        0.3460   -2.3060   -2.3570 hn        1 SLU      0.480300
     60 H383       -0.7910   10.8870    2.7560 hn        1 SLU      0.481800
@<TRIPOS>BOND
     1    1    2 2   
     2    2    3 1   
     3    2   18 1   
     4    3    4 1   
     5    3    5 2   
     6    4    7 2   
     7    5    6 1   
     8    5   41 1   
     9    6    7 1   
    10    7    8 1   
    11    8    9 1   
    12    8   15 2   
    13    9   10 1   
    14   10   11 ar  
    15   10   14 ar  
    16   11   12 ar  
    17   11   42 1   
    18   12   13 1   
    19   12   17 ar  
    20   13   43 1   
    21   14   15 1   
    22   14   16 ar  
    23   16   17 ar  
    24   16   44 1   
    25   17   45 1   
    26   18   19 1   
    27   18   46 1   
    28   18   59 1   
    29   19   20 2   
    30   19   21 2   
    31   19   22 1   
    32   22   23 1   
    33   23   24 1   
    34   23   47 1   
    35   23   48 1   
    36   24   25 1   
    37   24   30 1   
    38   24   49 1   
    39   25   26 1   
    40   25   27 1   
    41   25   50 1   
    42   26   51 1   
    43   27   28 1   
    44   27   29 1   
    45   27   52 1   
    46   28   53 1   
    47   29   30 1   
    48   29   31 1   
    49   29   54 1   
    50   31   32 1   
    51   31   40 1   
    52   32   33 ar  
    53   32   36 ar  
    54   33   34 ar  
    55   34   35 ar  
    56   34   55 1   
    57   35   37 ar  
    58   36   37 ar  
    59   36   39 1   
    60   37   38 1   
    61   38   56 1   
    62   38   57 1   
    63   38   60 1   
    64   39   40 2   
    65   40   58 1   
@<TRIPOS>SUBSTRUCTURE
     1 SLU         1 TEMP              0 ****  ****    0 ROOT
