@<TRIPOS>MOLECULE
SLU
   59    64     1     0     0
SMALL
bcc


@<TRIPOS>ATOM
      1 O39        -0.3300    2.7560    0.3900 o         1 SLU     -0.420100
      2 C16         0.6740    2.0560    0.4220 c         1 SLU      0.511600
      3 C14         1.7640    2.1230    1.3840 cc        1 SLU      0.204800
      4 N15         2.9140    1.3490    1.2460 nc        1 SLU     -0.617000
      5 C13         1.7510    2.9730    2.5010 cd        1 SLU     -0.171400
      6 S12         3.1440    2.8170    3.3570 ss        1 SLU      0.131700
      7 C11         3.7430    1.6270    2.2550 cd        1 SLU      0.408100
      8 C8          5.0530    1.0350    2.4380 cd        1 SLU      0.225200
      9 S9          5.4490    0.2470    3.9300 ss        1 SLU      0.025900
     10 C4          6.9970   -0.1050    3.3580 ca        1 SLU     -0.038100
     11 C5          8.0460   -0.7690    3.9850 ca        1 SLU     -0.137000
     12 C6          9.2410   -0.9340    3.2750 ca        1 SLU      0.167100
     13 O10        10.2470   -1.5930    3.9310 oh        1 SLU     -0.479100
     14 C3          7.1390    0.3980    2.0170 ca        1 SLU      0.026400
     15 N7          6.0080    1.0450    1.5130 nc        1 SLU     -0.452100
     16 C2          8.3590    0.2160    1.3280 ca        1 SLU     -0.017000
     17 C1          9.3960   -0.4440    1.9550 ca        1 SLU     -0.205000
     18 N40         0.7620    0.9820   -0.6260 n4        1 SLU     -0.608700
     19 S17         2.2720    0.7670   -1.7130 s6        1 SLU      1.649400
     20 O18         2.9790   -0.2500   -1.1560 o         1 SLU     -0.568800
     21 O19         1.7060    0.6850   -2.9570 o         1 SLU     -0.568800
     22 O20         3.0010    2.1970   -1.5800 os        1 SLU     -0.544500
     23 C21         3.0950    3.2120   -2.5750 c3        1 SLU      0.188400
     24 C22         1.7580    3.5340   -3.2360 c3        1 SLU      0.031100
     25 C23         1.8040    4.8840   -3.9850 c3        1 SLU      0.133100
     26 O27         1.9280    4.7080   -5.3690 oh        1 SLU     -0.565800
     27 C24         0.5040    5.6030   -3.5580 c3        1 SLU      0.079100
     28 O28        -0.4720    5.3620   -4.5490 oh        1 SLU     -0.588800
     29 C25         0.0490    4.8670   -2.2550 c3        1 SLU      0.241800
     30 O26         0.7330    3.5890   -2.2400 os        1 SLU     -0.468600
     31 N35         0.3170    5.6000   -1.0530 na        1 SLU     -0.302000
     32 C32        -0.6110    5.8620   -0.0250 ca        1 SLU      0.477800
     33 N31        -1.9400    5.5800    0.0670 nb        1 SLU     -0.735000
     34 C30        -2.4900    6.0330    1.2230 ca        1 SLU      0.699900
     35 N29        -1.9190    6.7020    2.2560 nb        1 SLU     -0.776000
     36 C33         0.1450    6.5690    1.0040 ca        1 SLU     -0.247200
     37 C34        -0.5740    6.9880    2.1730 ca        1 SLU      0.752200
     38 N38         0.0840    7.6050    3.2090 nh        1 SLU     -0.936500
     39 N37         1.4840    6.7110    0.6040 nc        1 SLU     -0.522100
     40 C36         1.5560    6.1320   -0.5980 cd        1 SLU      0.394700
     41 H13         0.9210    3.6450    2.7450 h4        1 SLU      0.222000
     42 H5          7.9570   -1.1620    5.0080 ha        1 SLU      0.171000
     43 H10        11.0160   -1.6450    3.3430 ho        1 SLU      0.434000
     44 H2          8.4720    0.5990    0.3010 ha        1 SLU      0.159000
     45 H1         10.3520   -0.5960    1.4320 ha        1 SLU      0.152000
     46 H40        -0.0420    1.1250   -1.2540 hn        1 SLU      0.472300
     47 H211        3.8370    2.8800   -3.3510 h1        1 SLU      0.094700
     48 H212        3.4980    4.0860   -1.9890 h1        1 SLU      0.094700
     49 H22         1.4600    2.7120   -3.9510 h1        1 SLU      0.117700
     50 H23         2.7060    5.4890   -3.6880 h1        1 SLU      0.093700
     51 H27         1.0720    4.4210   -5.7240 ho        1 SLU      0.438000
     52 H24         0.6780    6.6980   -3.3980 h1        1 SLU      0.093700
     53 H28        -0.9520    6.1860   -4.7010 ho        1 SLU      0.439000
     54 H25        -1.0520    4.6060   -2.2980 h2        1 SLU      0.144700
     55 H30        -3.5790    5.8330    1.3420 h5        1 SLU      0.066100
     56 H381       -0.4470    8.0150    3.9420 hn        1 SLU      0.446300
     57 H382        0.9800    7.9870    3.0180 hn        1 SLU      0.446300
     58 H36         2.4590    6.0660   -1.2170 h5        1 SLU      0.066800
     59 H402        0.6160    0.1000   -0.1260 hn        1 SLU      0.472300
@<TRIPOS>BOND
     1    1    2 2   
     2    2    3 1   
     3    2   18 1   
     4    3    4 1   
     5    3    5 2   
     6    4    7 2   
     7    5    6 1   
     8    5   41 1   
     9    6    7 1   
    10    7    8 1   
    11    8    9 1   
    12    8   15 2   
    13    9   10 1   
    14   10   11 ar  
    15   10   14 ar  
    16   11   12 ar  
    17   11   42 1   
    18   12   13 1   
    19   12   17 ar  
    20   13   43 1   
    21   14   15 1   
    22   14   16 ar  
    23   16   17 ar  
    24   16   44 1   
    25   17   45 1   
    26   18   19 1   
    27   18   46 1   
    28   18   59 1   
    29   19   20 2   
    30   19   21 2   
    31   19   22 1   
    32   22   23 1   
    33   23   24 1   
    34   23   47 1   
    35   23   48 1   
    36   24   25 1   
    37   24   30 1   
    38   24   49 1   
    39   25   26 1   
    40   25   27 1   
    41   25   50 1   
    42   26   51 1   
    43   27   28 1   
    44   27   29 1   
    45   27   52 1   
    46   28   53 1   
    47   29   30 1   
    48   29   31 1   
    49   29   54 1   
    50   31   32 1   
    51   31   40 1   
    52   32   33 ar  
    53   32   36 ar  
    54   33   34 ar  
    55   34   35 ar  
    56   34   55 1   
    57   35   37 ar  
    58   36   37 ar  
    59   36   39 1   
    60   37   38 1   
    61   38   56 1   
    62   38   57 1   
    63   39   40 2   
    64   40   58 1   
@<TRIPOS>SUBSTRUCTURE
     1 SLU         1 TEMP              0 ****  ****    0 ROOT
