@<TRIPOS>MOLECULE
SLX
   45    48     1     0     0
SMALL
bcc


@<TRIPOS>ATOM
      1 C1          0.0020    0.0300    0.0140 ca        1 SLX     -0.066300
      2 C2          1.4010   -0.0010    0.0300 ca        1 SLX     -0.136000
      3 C3          2.0880   -0.0730    1.2450 ca        1 SLX      0.108100
      4 C5          1.3680   -0.1250    2.4600 ca        1 SLX      0.045100
      5 C8         -0.0250   -0.1160    2.4410 ca        1 SLX     -0.163000
      6 C9         -0.7080   -0.0450    1.2210 ca        1 SLX     -0.067300
      7 C10        -2.1950   -0.0450    1.2340 c3        1 SLX     -0.032100
      8 C11        -2.7750   -0.4310   -0.1260 c3        1 SLX      0.178800
      9 N12        -2.1540    0.3180   -1.2030 n3        1 SLX     -0.730600
     10 C14        -0.7090    0.0790   -1.3170 c3        1 SLX      0.234800
     11 C16        -0.0860    1.1510   -2.2330 c3        1 SLX     -0.026100
     12 C17        -0.8220    1.2700   -3.5210 ca        1 SLX     -0.060300
     13 C25        -0.2020    1.8710   -4.6210 ca        1 SLX     -0.134000
     14 C24        -0.8730    2.0070   -5.8350 ca        1 SLX     -0.157000
     15 C21        -2.1810    1.5360   -5.9520 ca        1 SLX      0.038100
     16 O22        -2.9430    1.5870   -7.1090 os        1 SLX     -0.349900
     17 C23        -2.4530    2.4460   -8.1320 c3        1 SLX      0.121700
     18 C19        -2.8210    0.9290   -4.8470 ca        1 SLX      0.111100
     19 O20        -4.1050    0.4410   -4.9110 oh        1 SLX     -0.499100
     20 C18        -2.1370    0.7960   -3.6280 ca        1 SLX     -0.081300
     21 C13        -2.8360    0.1420   -2.4760 c3        1 SLX      0.227100
     22 O6          2.1510   -0.2020    3.6010 os        1 SLX     -0.348900
     23 C7          1.4540   -0.1270    4.8390 c3        1 SLX      0.121700
     24 O4          3.4630   -0.0960    1.1880 oh        1 SLX     -0.497100
     25 H2          1.9870    0.0220   -0.9000 ha        1 SLX      0.152000
     26 H8         -0.5990   -0.1680    3.3770 ha        1 SLX      0.138000
     27 H10        -2.5780   -0.7680    2.0010 hc        1 SLX      0.056200
     28 H10A       -2.5560    0.9800    1.5220 hc        1 SLX      0.056200
     29 H11        -3.8760   -0.1960   -0.1310 h1        1 SLX      0.034700
     30 H11A       -2.6630   -1.5460   -0.2680 h1        1 SLX      0.034700
     31 H14        -0.5230   -0.9310   -1.8070 h1        1 SLX      0.035700
     32 H16        -0.0930    2.1440   -1.7100 hc        1 SLX      0.063200
     33 H16A        0.9830    0.8770   -2.4380 hc        1 SLX      0.063200
     34 H25         0.8290    2.2420   -4.5280 ha        1 SLX      0.136000
     35 H24        -0.3700    2.4810   -6.6890 ha        1 SLX      0.138000
     36 H23        -1.5130    2.0290   -8.5690 h1        1 SLX      0.045033
     37 H23A       -3.2750    2.4430   -8.8920 h1        1 SLX      0.045033
     38 H23B       -2.2780    3.4770   -7.7390 h1        1 SLX      0.045033
     39 HO20       -4.4650    0.6610   -5.7850 ho        1 SLX      0.437000
     40 H13        -3.8640    0.5980   -2.3720 h1        1 SLX      0.053200
     41 H13A       -2.9790   -0.9510   -2.7360 h1        1 SLX      0.053200
     42 H7          0.8660    0.8200    4.9050 h1        1 SLX      0.045367
     43 H7A         2.2750   -0.1400    5.6010 h1        1 SLX      0.045367
     44 H7B         0.7860   -1.0140    4.9650 h1        1 SLX      0.045367
     45 HO4         3.7990   -0.1300    2.0970 ho        1 SLX      0.436000
@<TRIPOS>BOND
     1    1    2 ar  
     2    1    6 ar  
     3    1   10 1   
     4    2    3 ar  
     5    2   25 1   
     6    3    4 ar  
     7    3   24 1   
     8    4    5 ar  
     9    4   22 1   
    10    5    6 ar  
    11    5   26 1   
    12    6    7 1   
    13    7    8 1   
    14    7   27 1   
    15    7   28 1   
    16    8    9 1   
    17    8   29 1   
    18    8   30 1   
    19    9   10 1   
    20    9   21 1   
    21   10   11 1   
    22   10   31 1   
    23   11   12 1   
    24   11   32 1   
    25   11   33 1   
    26   12   13 ar  
    27   12   20 ar  
    28   13   14 ar  
    29   13   34 1   
    30   14   15 ar  
    31   14   35 1   
    32   15   16 1   
    33   15   18 ar  
    34   16   17 1   
    35   17   36 1   
    36   17   37 1   
    37   17   38 1   
    38   18   19 1   
    39   18   20 ar  
    40   19   39 1   
    41   20   21 1   
    42   21   40 1   
    43   21   41 1   
    44   22   23 1   
    45   23   42 1   
    46   23   43 1   
    47   23   44 1   
    48   24   45 1   
@<TRIPOS>SUBSTRUCTURE
     1 SLX         1 TEMP              0 ****  ****    0 ROOT
