@<TRIPOS>MOLECULE
SLX
   45    48     1     0     0
SMALL
bcc


@<TRIPOS>ATOM
      1 C1          1.8230   -0.0240    0.2080 ca        1 SLX     -0.066300
      2 C2          2.4000   -1.2790    0.4310 ca        1 SLX     -0.136000
      3 C3          3.7770   -1.4580    0.2730 ca        1 SLX      0.108100
      4 C5          4.5910   -0.3640   -0.1020 ca        1 SLX      0.045100
      5 C8          4.0180    0.8890   -0.3020 ca        1 SLX     -0.163000
      6 C9          2.6370    1.0620   -0.1420 ca        1 SLX     -0.067300
      7 C10         2.0570    2.4140   -0.3550 c3        1 SLX     -0.032100
      8 C11         0.6810    2.5510    0.2930 c3        1 SLX      0.178800
      9 N12        -0.1820    1.4340   -0.0470 n3        1 SLX     -0.730600
     10 C14         0.3360    0.1400    0.4150 c3        1 SLX      0.234800
     11 C16        -0.4430   -0.9970   -0.2740 c3        1 SLX     -0.026100
     12 C17        -1.9150   -0.8120   -0.1500 ca        1 SLX     -0.060300
     13 C25        -2.7700   -1.9000   -0.3430 ca        1 SLX     -0.134000
     14 C24        -4.1520   -1.7520   -0.2440 ca        1 SLX     -0.157000
     15 C21        -4.6870   -0.4970    0.0520 ca        1 SLX      0.038100
     16 O22        -6.0380   -0.2260    0.2040 os        1 SLX     -0.349900
     17 C23        -6.9260   -1.2310   -0.2740 c3        1 SLX      0.121700
     18 C19        -3.8340    0.6120    0.2460 ca        1 SLX      0.111100
     19 O20        -4.3090    1.8680    0.5470 oh        1 SLX     -0.499100
     20 C18        -2.4420    0.4530    0.1450 ca        1 SLX     -0.081300
     21 C13        -1.5620    1.6450    0.3640 c3        1 SLX      0.227100
     22 O6          5.9410   -0.6540   -0.2220 os        1 SLX     -0.348900
     23 C7          6.7590    0.3960   -0.7230 c3        1 SLX      0.121700
     24 O4          4.2780   -2.7180    0.5040 oh        1 SLX     -0.497100
     25 H2          1.7940   -2.1440    0.7390 ha        1 SLX      0.152000
     26 H8          4.6390    1.7520   -0.5840 ha        1 SLX      0.138000
     27 H10         2.7320    3.2000    0.0760 hc        1 SLX      0.056200
     28 H10A        1.9760    2.6050   -1.4600 hc        1 SLX      0.056200
     29 H11         0.8110    2.6590    1.4100 h1        1 SLX      0.034700
     30 H11A        0.1930    3.4930   -0.0850 h1        1 SLX      0.034700
     31 H14         0.1650    0.0340    1.5360 h1        1 SLX      0.035700
     32 H16        -0.1670   -1.0380   -1.3620 hc        1 SLX      0.063200
     33 H16A       -0.1490   -1.9740    0.1910 hc        1 SLX      0.063200
     34 H25        -2.3470   -2.8890   -0.5750 ha        1 SLX      0.136000
     35 H24        -4.8090   -2.6190   -0.3970 ha        1 SLX      0.138000
     36 H23        -6.7000   -1.4900   -1.3370 h1        1 SLX      0.045033
     37 H23A       -6.8640   -2.1400    0.3720 h1        1 SLX      0.045033
     38 H23B       -7.9340   -0.7530   -0.1860 h1        1 SLX      0.045033
     39 HO20       -5.2780    1.8360    0.5190 ho        1 SLX      0.437000
     40 H13        -1.6430    1.9380    1.4550 h1        1 SLX      0.053200
     41 H13A       -1.9650    2.5070   -0.2450 h1        1 SLX      0.053200
     42 H7          6.4030    0.7320   -1.7260 h1        1 SLX      0.045367
     43 H7A         6.7770    1.2520   -0.0060 h1        1 SLX      0.045367
     44 H7B         7.7710   -0.0760   -0.7980 h1        1 SLX      0.045367
     45 HO4         5.2330   -2.6950    0.3420 ho        1 SLX      0.436000
@<TRIPOS>BOND
     1    1    2 ar  
     2    1    6 ar  
     3    1   10 1   
     4    2    3 ar  
     5    2   25 1   
     6    3    4 ar  
     7    3   24 1   
     8    4    5 ar  
     9    4   22 1   
    10    5    6 ar  
    11    5   26 1   
    12    6    7 1   
    13    7    8 1   
    14    7   27 1   
    15    7   28 1   
    16    8    9 1   
    17    8   29 1   
    18    8   30 1   
    19    9   10 1   
    20    9   21 1   
    21   10   11 1   
    22   10   31 1   
    23   11   12 1   
    24   11   32 1   
    25   11   33 1   
    26   12   13 ar  
    27   12   20 ar  
    28   13   14 ar  
    29   13   34 1   
    30   14   15 ar  
    31   14   35 1   
    32   15   16 1   
    33   15   18 ar  
    34   16   17 1   
    35   17   36 1   
    36   17   37 1   
    37   17   38 1   
    38   18   19 1   
    39   18   20 ar  
    40   19   39 1   
    41   20   21 1   
    42   21   40 1   
    43   21   41 1   
    44   22   23 1   
    45   23   42 1   
    46   23   43 1   
    47   23   44 1   
    48   24   45 1   
@<TRIPOS>SUBSTRUCTURE
     1 SLX         1 TEMP              0 ****  ****    0 ROOT
