@<TRIPOS>MOLECULE
SLX
   45    48     1     0     0
SMALL
bcc


@<TRIPOS>ATOM
      1 C1          0.0020    0.0310    0.0140 ca        1 SLX     -0.066300
      2 C2          1.4010    0.0030    0.0300 ca        1 SLX     -0.137000
      3 C3          2.0890   -0.0690    1.2450 ca        1 SLX      0.108100
      4 C5          1.3680   -0.1250    2.4600 ca        1 SLX      0.045100
      5 C8         -0.0240   -0.1200    2.4410 ca        1 SLX     -0.163000
      6 C9         -0.7080   -0.0480    1.2200 ca        1 SLX     -0.067300
      7 C10        -2.1940   -0.0520    1.2330 c3        1 SLX     -0.032100
      8 C11        -2.7730   -0.4370   -0.1270 c3        1 SLX      0.178800
      9 N12        -2.1540    0.3160   -1.2020 n3        1 SLX     -0.730600
     10 C14        -0.7090    0.0810   -1.3170 c3        1 SLX      0.234800
     11 C16        -0.0880    1.1550   -2.2310 c3        1 SLX     -0.026100
     12 C17        -0.8240    1.2760   -3.5190 ca        1 SLX     -0.060300
     13 C25        -0.2060    1.8810   -4.6170 ca        1 SLX     -0.134000
     14 C24        -0.8780    2.0180   -5.8300 ca        1 SLX     -0.157000
     15 C21        -2.1850    1.5440   -5.9480 ca        1 SLX      0.038100
     16 O22        -2.9470    1.5960   -7.1060 os        1 SLX     -0.349900
     17 C23        -2.4590    2.4590   -8.1260 c3        1 SLX      0.121700
     18 C19        -2.8220    0.9340   -4.8450 ca        1 SLX      0.111100
     19 O20        -4.1060    0.4420   -4.9100 oh        1 SLX     -0.499100
     20 C18        -2.1380    0.7990   -3.6260 ca        1 SLX     -0.081300
     21 C13        -2.8360    0.1410   -2.4760 c3        1 SLX      0.227100
     22 O6          2.1520   -0.2030    3.6010 os        1 SLX     -0.348900
     23 C7          1.4550   -0.1240    4.8380 c3        1 SLX      0.121700
     24 O4          3.4630   -0.0890    1.1880 oh        1 SLX     -0.497100
     25 H2          1.9870    0.0300   -0.9000 ha        1 SLX      0.152000
     26 H8         -0.5980   -0.1740    3.3770 ha        1 SLX      0.138000
     27 H10        -2.5580    0.9710    1.5240 hc        1 SLX      0.056200
     28 H10A       -2.5760   -0.7780    1.9990 hc        1 SLX      0.056200
     29 H11        -3.8760   -0.2050   -0.1320 h1        1 SLX      0.034700
     30 H11A       -2.6590   -1.5520   -0.2720 h1        1 SLX      0.034700
     31 H14        -0.5200   -0.9290   -1.8080 h1        1 SLX      0.035700
     32 H16        -0.0970    2.1480   -1.7060 hc        1 SLX      0.063200
     33 H16A        0.9810    0.8850   -2.4370 hc        1 SLX      0.063200
     34 H25         0.8240    2.2540   -4.5240 ha        1 SLX      0.136000
     35 H24        -0.3760    2.4950   -6.6840 ha        1 SLX      0.138000
     36 H23        -1.5180    2.0460   -8.5650 h1        1 SLX      0.045033
     37 H23A       -3.2810    2.4560   -8.8860 h1        1 SLX      0.045033
     38 H23B       -2.2870    3.4890   -7.7300 h1        1 SLX      0.045033
     39 HO20       -4.4670    0.6630   -5.7830 ho        1 SLX      0.437000
     40 H13        -3.8650    0.5950   -2.3710 h1        1 SLX      0.053200
     41 H13A       -2.9770   -0.9520   -2.7380 h1        1 SLX      0.053200
     42 H7          0.8660    0.8230    4.9020 h1        1 SLX      0.045367
     43 H7A         0.7870   -1.0100    4.9670 h1        1 SLX      0.045367
     44 H7B         2.2760   -0.1340    5.6000 h1        1 SLX      0.045367
     45 HO4         3.8000   -0.1220    2.0970 ho        1 SLX      0.436000
@<TRIPOS>BOND
     1    1    2 ar  
     2    1    6 ar  
     3    1   10 1   
     4    2    3 ar  
     5    2   25 1   
     6    3    4 ar  
     7    3   24 1   
     8    4    5 ar  
     9    4   22 1   
    10    5    6 ar  
    11    5   26 1   
    12    6    7 1   
    13    7    8 1   
    14    7   27 1   
    15    7   28 1   
    16    8    9 1   
    17    8   29 1   
    18    8   30 1   
    19    9   10 1   
    20    9   21 1   
    21   10   11 1   
    22   10   31 1   
    23   11   12 1   
    24   11   32 1   
    25   11   33 1   
    26   12   13 ar  
    27   12   20 ar  
    28   13   14 ar  
    29   13   34 1   
    30   14   15 ar  
    31   14   35 1   
    32   15   16 1   
    33   15   18 ar  
    34   16   17 1   
    35   17   36 1   
    36   17   37 1   
    37   17   38 1   
    38   18   19 1   
    39   18   20 ar  
    40   19   39 1   
    41   20   21 1   
    42   21   40 1   
    43   21   41 1   
    44   22   23 1   
    45   23   42 1   
    46   23   43 1   
    47   23   44 1   
    48   24   45 1   
@<TRIPOS>SUBSTRUCTURE
     1 SLX         1 TEMP              0 ****  ****    0 ROOT
