@<TRIPOS>MOLECULE
SLZ
   21    20     1     0     0
SMALL
bcc


@<TRIPOS>ATOM
      1 N           0.8470    0.0260   -2.1550 n3        1 SLZ     -0.890800
      2 CA          0.4220   -0.2640   -0.7890 c3        1 SLZ      0.025500
      3 CB          1.4940    0.1250    0.2260 c3        1 SLZ      0.029700
      4 SG          1.5780   -0.8860    1.6830 ss        1 SLZ     -0.398200
      5 CD         -0.0490   -0.9640    2.3790 c3        1 SLZ     -0.051300
      6 CE         -0.4670    0.2680    3.1750 c3        1 SLZ      0.171800
      7 NZ         -1.1310    1.3340    2.4720 n3        1 SLZ     -0.922800
      8 C          -0.9000    0.4820   -0.4210 c         1 SLZ      0.868600
      9 O          -0.9090    1.7420   -0.5170 o         1 SLZ     -0.838300
     10 OXT        -1.8890   -0.2060   -0.0390 o         1 SLZ     -0.838300
     11 H           0.9700    1.0200   -2.2400 hn        1 SLZ      0.333800
     12 H2          0.0950   -0.2300   -2.7700 hn        1 SLZ      0.333800
     13 HA          0.2360   -1.3740   -0.7230 h1        1 SLZ      0.059700
     14 HB2         1.3450    1.1950    0.5140 h1        1 SLZ      0.066700
     15 HB3         2.5230    0.0100   -0.2010 h1        1 SLZ      0.066700
     16 HD2         0.0060   -1.8450    3.0640 h1        1 SLZ      0.088200
     17 HD3        -0.7980   -1.1800    1.5710 h1        1 SLZ      0.088200
     18 HE2         0.4430    0.6950    3.6850 h1        1 SLZ      0.028700
     19 HE3        -1.1750   -0.0830    3.9830 h1        1 SLZ      0.028700
     20 HZ1        -0.5150    1.7670    1.8060 hn        1 SLZ      0.374800
     21 HZ2        -1.9180    0.9820    1.9500 hn        1 SLZ      0.374800
@<TRIPOS>BOND
     1    1    2 1   
     2    1   11 1   
     3    1   12 1   
     4    2    3 1   
     5    2    8 1   
     6    2   13 1   
     7    3    4 1   
     8    3   14 1   
     9    3   15 1   
    10    4    5 1   
    11    5    6 1   
    12    5   16 1   
    13    5   17 1   
    14    6    7 1   
    15    6   18 1   
    16    6   19 1   
    17    7   20 1   
    18    7   21 1   
    19    8    9 1   
    20    8   10 1   
@<TRIPOS>SUBSTRUCTURE
     1 SLZ         1 TEMP              0 ****  ****    0 ROOT
