@<TRIPOS>MOLECULE
SM1
   66    66     1     0     0
SMALL
bcc


@<TRIPOS>ATOM
      1 N6       -678.4850   24.0460  240.4860 n4        1 SM1     -0.867600
      2 C18      -677.9660   22.8730  241.2930 c2        1 SM1      0.606100
      3 N5       -677.4650   22.9030  242.4580 n2        1 SM1     -0.584100
      4 N4       -678.0850   21.5420  240.5710 n4        1 SM1     -0.605400
      5 C14      -677.6040   20.3780  241.3490 ca        1 SM1     -0.020400
      6 C13      -678.4990   19.6740  242.1760 ca        1 SM1     -0.071500
      7 C12      -678.0450   18.5490  242.8680 ca        1 SM1     -0.067500
      8 C17      -676.7130   18.1260  242.7600 ca        1 SM1     -0.098300
      9 C16      -675.8360   18.8310  241.9250 ca        1 SM1     -0.067500
     10 C15      -676.2660   19.9600  241.2230 ca        1 SM1     -0.071500
     11 C11      -676.1920   17.0470  243.6630 c3        1 SM1      0.148100
     12 N3       -676.2490   15.6540  243.1020 n4        1 SM1     -0.669800
     13 C10      -675.7960   14.6160  244.1110 c         1 SM1      0.522100
     14 O5       -675.1690   15.0040  245.0790 o         1 SM1     -0.346100
     15 C8       -676.1830   13.1540  243.8260 c3        1 SM1      0.086500
     16 C22      -677.2400   12.7440  244.8510 c3        1 SM1     -0.148100
     17 N2       -674.9700   12.2780  243.8870 n4        1 SM1     -0.693800
     18 C7       -673.8870   12.6450  242.8820 c         1 SM1      0.591100
     19 C5       -672.7220   11.6230  242.7120 c3        1 SM1      0.161500
     20 C6       -671.7160   11.9630  243.8420 c3        1 SM1      0.107400
     21 O3       -672.4420   11.9610  245.0590 oh        1 SM1     -0.681800
     22 N1       -673.2350   10.2970  242.7060 n3        1 SM1     -0.975800
     23 O4       -674.0360   13.7410  242.3570 o         1 SM1     -0.529100
     24 O2       1985.2010  -57.8230 -711.3030 o         1 SM1     -0.361400
     25 S1       1985.6260  -56.6580 -710.7840 s4        1 SM1      1.580500
     26 O1       1984.8040  -55.6400 -710.4760 o         1 SM1     -0.361400
     27 C1       1987.2110  -56.4740 -710.5080 c3        1 SM1     -0.403800
     28 C4       1987.7930  -55.8940 -711.7580 ca        1 SM1     -0.214300
     29 C19      1987.9050  -54.5030 -711.8970 ca        1 SM1     -0.092000
     30 C20      1988.4890  -53.9680 -713.0430 ca        1 SM1     -0.113000
     31 C21      1988.9830  -54.8130 -714.0390 ca        1 SM1     -0.056000
     32 C2       1988.8950  -56.2000 -713.8880 ca        1 SM1     -0.113000
     33 C3       1988.3130  -56.7440 -712.7460 ca        1 SM1     -0.092000
     34 H6N1     -678.3700   24.9240  241.0310 hn        1 SM1      0.508800
     35 H6N2     -677.9620   24.1620  239.6020 hn        1 SM1      0.508800
     36 H51      -677.3360   23.7220  243.0300 hn        1 SM1      0.554400
     37 H4       -679.0820   21.3780  240.3420 hn        1 SM1      0.497300
     38 H13      -679.5540   19.9820  242.3020 ha        1 SM1      0.190000
     39 H12      -678.7560   18.0200  243.5300 ha        1 SM1      0.192000
     40 H16      -674.7760   18.5260  241.8290 ha        1 SM1      0.192000
     41 H15      -675.5370   20.4960  240.5870 ha        1 SM1      0.190000
     42 H111     -676.7840   17.0440  244.6300 hx        1 SM1      0.144700
     43 H112     -675.1090   17.2590  243.9280 hx        1 SM1      0.144700
     44 H3       -677.2050   15.4380  242.7960 hn        1 SM1      0.477300
     45 H8       -676.6050   13.0460  242.7790 hx        1 SM1      0.132700
     46 H221     -677.5540   11.6780  244.6880 hc        1 SM1      0.113033
     47 H222     -678.1490   13.3850  244.7270 hc        1 SM1      0.113033
     48 H223     -676.8650   12.8490  245.9010 hc        1 SM1      0.113033
     49 H2       -674.5360   12.3000  244.8330 hn        1 SM1      0.512800
     50 H5       -672.2560   11.9140  241.7160 h1        1 SM1      0.142700
     51 H6C1     -670.8870   11.2030  243.8470 h1        1 SM1      0.099700
     52 H6C2     -671.2850   12.9860  243.6710 h1        1 SM1      0.099700
     53 HA       -671.8350   11.7270  245.7790 ho        1 SM1      0.483000
     54 H1       -672.9270    9.7360  243.4760 hn        1 SM1      0.434800
     55 H1C1     1987.4870  -55.7890 -709.6440 h1        1 SM1      0.203700
     56 H1C2     1987.7840  -57.4240 -710.2630 h1        1 SM1      0.203700
     57 H19      1987.5450  -53.8290 -711.1030 ha        1 SM1      0.152000
     58 H20      1988.5720  -52.8730 -713.1550 ha        1 SM1      0.172000
     59 H21      1989.4520  -54.3860 -714.9420 ha        1 SM1      0.172000
     60 HC       1989.2990  -56.8670 -714.6680 ha        1 SM1      0.172000
     61 HB       1988.2760  -57.8380 -712.6220 ha        1 SM1      0.152000
     62 H63      -679.4920   23.9460  240.2740 hn        1 SM1      0.508800
     63 H42      -677.5300   21.5900  239.6980 hn        1 SM1      0.497300
     64 H32      -675.6200   15.5770  242.2850 hn        1 SM1      0.477300
     65 H22      -675.2700   11.3010  243.7130 hn        1 SM1      0.512800
     66 H121     -673.1360    9.8240  241.8300 hn        1 SM1      0.434800
@<TRIPOS>BOND
     1    1    2 1   
     2    1   34 1   
     3    1   35 1   
     4    1   62 1   
     5    2    3 2   
     6    2    4 1   
     7    3   36 1   
     8    4    5 1   
     9    4   37 1   
    10    4   63 1   
    11    5    6 ar  
    12    5   10 ar  
    13    6    7 ar  
    14    6   38 1   
    15    7    8 ar  
    16    7   39 1   
    17    8    9 ar  
    18    8   11 1   
    19    9   10 ar  
    20    9   40 1   
    21   10   41 1   
    22   11   12 1   
    23   11   42 1   
    24   11   43 1   
    25   12   13 1   
    26   12   44 1   
    27   12   64 1   
    28   13   14 2   
    29   13   15 1   
    30   15   16 1   
    31   15   17 1   
    32   15   45 1   
    33   16   46 1   
    34   16   47 1   
    35   16   48 1   
    36   17   18 1   
    37   17   49 1   
    38   17   65 1   
    39   18   19 1   
    40   18   23 2   
    41   19   20 1   
    42   19   22 1   
    43   19   50 1   
    44   20   21 1   
    45   20   51 1   
    46   20   52 1   
    47   21   53 1   
    48   22   54 1   
    49   22   66 1   
    50   24   25 1   
    51   25   26 1   
    52   25   27 1   
    53   27   28 1   
    54   27   55 1   
    55   27   56 1   
    56   28   29 ar  
    57   28   33 ar  
    58   29   30 ar  
    59   29   57 1   
    60   30   31 ar  
    61   30   58 1   
    62   31   32 ar  
    63   31   59 1   
    64   32   33 ar  
    65   32   60 1   
    66   33   61 1   
@<TRIPOS>SUBSTRUCTURE
     1 SM1         1 TEMP              0 ****  ****    0 ROOT
