@<TRIPOS>MOLECULE
SM1
   65    65     1     0     0
SMALL
bcc


@<TRIPOS>ATOM
      1 N6       -393.9470   19.9460  130.7840 nz        1 SM1     -0.877600
      2 C18      -392.5600   20.3150  130.2100 c2        1 SM1      0.716100
      3 N5       -391.9560   21.4100  130.4620 n2        1 SM1     -0.693100
      4 N4       -392.0590   19.2470  129.3980 nu        1 SM1     -0.680600
      5 C14      -390.6530   19.1300  129.2220 ca        1 SM1      0.165600
      6 C13      -389.7650   19.1790  130.3170 ca        1 SM1     -0.129500
      7 C12      -388.3990   18.9950  130.1180 ca        1 SM1     -0.061000
      8 C17      -387.8870   18.7620  128.8360 ca        1 SM1     -0.201300
      9 C16      -388.7690   18.6900  127.7490 ca        1 SM1     -0.061000
     10 C15      -390.1350   18.8700  127.9310 ca        1 SM1     -0.129500
     11 C11      -386.4170   18.7370  128.6120 c3        1 SM1      0.182100
     12 N3       -385.8780   17.3250  128.5110 ny        1 SM1     -0.667800
     13 C10      -384.3900   17.2850  128.3550 c         1 SM1      0.513100
     14 O5       -383.8030   18.3010  128.0180 o         1 SM1     -0.360100
     15 C8       -383.6950   15.9430  128.6410 c3        1 SM1      0.073500
     16 C22      -382.9290   16.0820  129.9550 c3        1 SM1     -0.145100
     17 N2       -382.7960   15.5760  127.5000 ny        1 SM1     -0.687800
     18 C7       -383.5210   15.3930  126.1780 c         1 SM1      0.582100
     19 C5       -382.6990   14.7640  125.0190 c3        1 SM1      0.155500
     20 C6       -381.9080   15.9360  124.3850 c3        1 SM1      0.106400
     21 O3       -381.1700   16.5490  125.4270 oh        1 SM1     -0.675800
     22 N1       -381.9200   13.6750  125.5100 n8        1 SM1     -0.973800
     23 O4       -384.6710   15.8080  126.1580 o         1 SM1     -0.506100
     24 O2       1132.9380  -59.4800 -375.8840 o         1 SM1     -0.361400
     25 S1       1133.0100  -58.7180 -374.7790 s4        1 SM1      1.580500
     26 O1       1133.7010  -59.0680 -373.6800 o         1 SM1     -0.361400
     27 C1       1132.2280  -57.3010 -374.7730 c3        1 SM1     -0.403800
     28 C4       1130.8550  -57.5770 -374.2460 ca        1 SM1     -0.214300
     29 C19      1130.5940  -57.4480 -372.8740 ca        1 SM1     -0.092000
     30 C20      1129.3050  -57.6620 -372.3930 ca        1 SM1     -0.113000
     31 C21      1128.2700  -57.9810 -373.2760 ca        1 SM1     -0.056000
     32 C2       1128.5250  -58.0830 -374.6460 ca        1 SM1     -0.113000
     33 C3       1129.8110  -57.8710 -375.1360 ca        1 SM1     -0.092000
     34 H6N1     -394.2250   20.6100  131.5150 hn        1 SM1      0.475467
     35 H6N2     -394.6500   19.9670  130.0370 hn        1 SM1      0.475467
     36 H51      -392.3030   22.1030  131.0910 hn        1 SM1      0.488400
     37 H4       -392.5740   19.1500  128.5370 hn        1 SM1      0.449800
     38 H13      -390.1320   19.3750  131.3370 ha        1 SM1      0.169000
     39 H12      -387.7230   19.0650  130.9870 ha        1 SM1      0.156500
     40 H16      -388.3860   18.5230  126.7280 ha        1 SM1      0.156500
     41 H15      -390.8010   18.8200  127.0510 ha        1 SM1      0.169000
     42 H111     -386.1480   19.2640  127.6470 hx        1 SM1      0.127700
     43 H112     -385.8690   19.2440  129.4590 hx        1 SM1      0.127700
     44 H3       -386.2960   16.8640  127.6860 hn        1 SM1      0.475800
     45 H8       -384.4550   15.1060  128.7310 hx        1 SM1      0.131700
     46 H221     -382.1710   16.9040  129.9070 hc        1 SM1      0.108367
     47 H222     -383.6500   16.3080  130.7810 hc        1 SM1      0.108367
     48 H223     -382.4070   15.1230  130.2130 hc        1 SM1      0.108367
     49 H2       -382.0650   16.3020  127.3560 hn        1 SM1      0.507300
     50 H5       -383.4920   14.4280  124.2770 h1        1 SM1      0.139700
     51 H6C1     -382.6230   16.6820  123.9430 h1        1 SM1      0.094700
     52 H6C2     -381.2340   15.5380  123.5780 h1        1 SM1      0.094700
     53 HA       -380.4180   17.0170  125.0340 ho        1 SM1      0.477000
     54 H1       -382.1960   12.7860  125.1450 hn        1 SM1      0.428800
     55 H1C1     1132.1180  -56.7920 -375.7840 h1        1 SM1      0.203700
     56 H1C2     1132.6890  -56.4830 -374.1330 h1        1 SM1      0.203700
     57 H19      1131.3980  -57.1670 -372.1740 ha        1 SM1      0.152000
     58 H20      1129.1000  -57.5660 -371.3130 ha        1 SM1      0.172000
     59 H21      1127.2480  -58.1420 -372.8920 ha        1 SM1      0.172000
     60 HC       1127.7050  -58.3200 -375.3440 ha        1 SM1      0.172000
     61 HB       1129.9960  -57.9240 -376.2210 ha        1 SM1      0.152000
     62 H63      -393.9230   19.0020  131.1890 hn        1 SM1      0.475467
     63 H32      -386.1560   16.7980  129.3470 hn        1 SM1      0.475800
     64 H22      -382.3100   14.6940  127.7410 hn        1 SM1      0.507300
     65 H121     -380.9330   13.8210  125.4370 hn        1 SM1      0.428800
@<TRIPOS>BOND
     1    1    2 1   
     2    1   34 1   
     3    1   35 1   
     4    1   62 1   
     5    2    3 2   
     6    2    4 1   
     7    3   36 1   
     8    4    5 1   
     9    4   37 1   
    10    5    6 ar  
    11    5   10 ar  
    12    6    7 ar  
    13    6   38 1   
    14    7    8 ar  
    15    7   39 1   
    16    8    9 ar  
    17    8   11 1   
    18    9   10 ar  
    19    9   40 1   
    20   10   41 1   
    21   11   12 1   
    22   11   42 1   
    23   11   43 1   
    24   12   13 1   
    25   12   44 1   
    26   12   63 1   
    27   13   14 2   
    28   13   15 1   
    29   15   16 1   
    30   15   17 1   
    31   15   45 1   
    32   16   46 1   
    33   16   47 1   
    34   16   48 1   
    35   17   18 1   
    36   17   49 1   
    37   17   64 1   
    38   18   19 1   
    39   18   23 2   
    40   19   20 1   
    41   19   22 1   
    42   19   50 1   
    43   20   21 1   
    44   20   51 1   
    45   20   52 1   
    46   21   53 1   
    47   22   54 1   
    48   22   65 1   
    49   24   25 1   
    50   25   26 1   
    51   25   27 1   
    52   27   28 1   
    53   27   55 1   
    54   27   56 1   
    55   28   29 ar  
    56   28   33 ar  
    57   29   30 ar  
    58   29   57 1   
    59   30   31 ar  
    60   30   58 1   
    61   31   32 ar  
    62   31   59 1   
    63   32   33 ar  
    64   32   60 1   
    65   33   61 1   
@<TRIPOS>SUBSTRUCTURE
     1 SM1         1 TEMP              0 ****  ****    0 ROOT
