@<TRIPOS>MOLECULE
SM1
   61    62     1     0     0
SMALL
bcc


@<TRIPOS>ATOM
      1 N6          0.6740   -0.5990  -11.3350 nh        1 SM1     -0.929800
      2 C18        -0.2380   -0.3830  -10.2530 c2        1 SM1      0.742100
      3 N5         -1.4550   -0.8500  -10.1800 n2        1 SM1     -0.841100
      4 N4          0.2830    0.5070   -9.2280 nh        1 SM1     -0.685600
      5 C14        -0.2560    0.4270   -7.9230 ca        1 SM1      0.147600
      6 C13        -0.4360   -0.8170   -7.2790 ca        1 SM1     -0.155000
      7 C12        -0.8450   -0.8670   -5.9510 ca        1 SM1     -0.094000
      8 C17        -1.0890    0.3060   -5.2330 ca        1 SM1     -0.146300
      9 C16        -0.9170    1.5400   -5.8640 ca        1 SM1     -0.094000
     10 C15        -0.5130    1.6090   -7.1920 ca        1 SM1     -0.155000
     11 C11        -1.5530    0.2450   -3.8060 c3        1 SM1      0.130300
     12 N3         -0.5530    0.6500   -2.8510 n         1 SM1     -0.549900
     13 C10         0.0120   -0.2300   -1.9560 c         1 SM1      0.633100
     14 O5         -0.4180   -1.3910   -1.8010 o         1 SM1     -0.616100
     15 C8          1.2060    0.2960   -1.1160 c3        1 SM1      0.032700
     16 C22         2.4750   -0.0400   -1.9010 c3        1 SM1     -0.106100
     17 N2          1.1930   -0.2770    0.2090 n         1 SM1     -0.555900
     18 C7          1.1160    0.5150    1.3410 c         1 SM1      0.656100
     19 C5          0.9480   -0.2400    2.6860 c3        1 SM1      0.181500
     20 C6          2.2850   -0.9460    3.0150 c3        1 SM1      0.114400
     21 O3          3.2740    0.0420    3.2290 oh        1 SM1     -0.588800
     22 N1          0.4850    0.6340    3.7220 n3        1 SM1     -0.910100
     23 O4          1.2240    1.7530    1.2850 o         1 SM1     -0.587100
     24 O2         -1.3980    1.4710    5.0850 o         1 SM1     -0.643800
     25 S1         -0.6950    0.2950    4.7760 s6        1 SM1      1.452900
     26 O1         -1.4270   -0.8200    4.3140 o         1 SM1     -0.643800
     27 C1          0.2160   -0.1960    6.1710 c3        1 SM1     -0.249300
     28 C4         -0.6390   -0.5790    7.3200 ca        1 SM1     -0.073300
     29 C19        -1.4360   -1.7310    7.2520 ca        1 SM1     -0.115000
     30 C20        -2.2170   -2.1070    8.3420 ca        1 SM1     -0.127000
     31 C21        -2.2080   -1.3420    9.5090 ca        1 SM1     -0.122000
     32 C2         -1.4180   -0.1950    9.5810 ca        1 SM1     -0.127000
     33 C3         -0.6340    0.1850    8.4920 ca        1 SM1     -0.115000
     34 H6N1        0.6040   -1.5080  -11.7380 hn        1 SM1      0.396300
     35 H6N2        1.6190   -0.3350  -11.1580 hn        1 SM1      0.396300
     36 H51        -1.7240   -1.4840  -10.9000 hn        1 SM1      0.397400
     37 H4          0.3210    1.4500   -9.5700 hn        1 SM1      0.408800
     38 H13        -0.2620   -1.7560   -7.8260 ha        1 SM1      0.136500
     39 H12        -0.9800   -1.8460   -5.4640 ha        1 SM1      0.136000
     40 H16        -1.1170    2.4700   -5.3100 ha        1 SM1      0.136000
     41 H15        -0.3960    2.5950   -7.6670 ha        1 SM1      0.136500
     42 H111       -2.4380    0.9360   -3.6870 h1        1 SM1      0.072700
     43 H112       -1.8910   -0.8030   -3.5560 h1        1 SM1      0.072700
     44 H3         -0.0870    1.5080   -3.0320 hn        1 SM1      0.309500
     45 H8          1.1390    1.4220   -1.0060 h1        1 SM1      0.100700
     46 H221        2.5720   -1.1420   -2.0540 hc        1 SM1      0.051700
     47 H222        2.4280    0.4590   -2.8990 hc        1 SM1      0.051700
     48 H223        3.3770    0.3300   -1.3570 hc        1 SM1      0.051700
     49 H2          0.9340   -1.2360    0.2630 hn        1 SM1      0.326500
     50 H5          0.1730   -1.0590    2.5470 h1        1 SM1      0.096700
     51 H6C1        2.5680   -1.6180    2.1620 h1        1 SM1      0.034200
     52 H6C2        2.1660   -1.5680    3.9440 h1        1 SM1      0.034200
     53 HA          4.1210   -0.4190    3.2730 ho        1 SM1      0.408000
     54 H1          0.9450    1.5200    3.7030 hn        1 SM1      0.476800
     55 H1C1        0.9160    0.6210    6.4950 h1        1 SM1      0.110700
     56 H1C2        0.8740   -1.0740    5.9240 h1        1 SM1      0.110700
     57 H19        -1.4580   -2.3250    6.3230 ha        1 SM1      0.143000
     58 H20        -2.8440   -3.0090    8.2790 ha        1 SM1      0.135000
     59 H21        -2.8260   -1.6410   10.3680 ha        1 SM1      0.133000
     60 HC         -1.4120    0.4130   10.4970 ha        1 SM1      0.135000
     61 HB         -0.0160    1.0930    8.5550 ha        1 SM1      0.143000
@<TRIPOS>BOND
     1    1    2 1   
     2    1   34 1   
     3    1   35 1   
     4    2    3 2   
     5    2    4 1   
     6    3   36 1   
     7    4    5 1   
     8    4   37 1   
     9    5    6 ar  
    10    5   10 ar  
    11    6    7 ar  
    12    6   38 1   
    13    7    8 ar  
    14    7   39 1   
    15    8    9 ar  
    16    8   11 1   
    17    9   10 ar  
    18    9   40 1   
    19   10   41 1   
    20   11   12 1   
    21   11   42 1   
    22   11   43 1   
    23   12   13 1   
    24   12   44 1   
    25   13   14 2   
    26   13   15 1   
    27   15   16 1   
    28   15   17 1   
    29   15   45 1   
    30   16   46 1   
    31   16   47 1   
    32   16   48 1   
    33   17   18 1   
    34   17   49 1   
    35   18   19 1   
    36   18   23 2   
    37   19   20 1   
    38   19   22 1   
    39   19   50 1   
    40   20   21 1   
    41   20   51 1   
    42   20   52 1   
    43   21   53 1   
    44   22   25 1   
    45   22   54 1   
    46   24   25 2   
    47   25   26 2   
    48   25   27 1   
    49   27   28 1   
    50   27   55 1   
    51   27   56 1   
    52   28   29 ar  
    53   28   33 ar  
    54   29   30 ar  
    55   29   57 1   
    56   30   31 ar  
    57   30   58 1   
    58   31   32 ar  
    59   31   59 1   
    60   32   33 ar  
    61   32   60 1   
    62   33   61 1   
@<TRIPOS>SUBSTRUCTURE
     1 SM1         1 TEMP              0 ****  ****    0 ROOT
