@<TRIPOS>MOLECULE
SM1
   65    65     1     0     0
SMALL
bcc


@<TRIPOS>ATOM
      1 N6       -506.9930  -11.6500  217.7680 n4        1 SM1     -0.877600
      2 C18      -507.6260  -11.3440  219.1440 c2        1 SM1      0.716100
      3 N5       -506.9810  -10.8540  220.1300 n2        1 SM1     -0.693100
      4 N4       -509.0220  -11.6650  219.1300 nh        1 SM1     -0.680600
      5 C14      -509.8840  -10.9790  220.0280 ca        1 SM1      0.165600
      6 C13      -509.8520   -9.5740  220.1540 ca        1 SM1     -0.129500
      7 C12      -510.7550   -8.9260  220.9920 ca        1 SM1     -0.061500
      8 C17      -511.7040   -9.6540  221.7220 ca        1 SM1     -0.201300
      9 C16      -511.7520  -11.0470  221.5840 ca        1 SM1     -0.061500
     10 C15      -510.8570  -11.7090  220.7510 ca        1 SM1     -0.129500
     11 C11      -512.5500   -8.9710  222.7370 c3        1 SM1      0.182100
     12 N3       -513.9410   -8.6750  222.2150 n4        1 SM1     -0.667800
     13 C10      -514.7830   -7.9320  223.2040 c         1 SM1      0.513100
     14 O5       -514.4220   -7.8830  224.3690 o         1 SM1     -0.360100
     15 C8       -516.0640   -7.2670  222.6710 c3        1 SM1      0.073500
     16 C22      -515.8540   -5.7550  222.6950 c3        1 SM1     -0.145100
     17 N2       -517.2410   -7.6860  223.4980 n4        1 SM1     -0.687800
     18 C7       -517.5210   -9.1780  223.4580 c         1 SM1      0.582100
     19 C5       -518.8590   -9.6490  224.0950 c3        1 SM1      0.155500
     20 C6       -518.5620   -9.7990  225.6100 c3        1 SM1      0.106400
     21 O3       -518.0370   -8.5590  226.0520 oh        1 SM1     -0.675800
     22 N1       -519.9090   -8.7510  223.7490 n3        1 SM1     -0.973800
     23 O4       -516.6310   -9.8600  222.9700 o         1 SM1     -0.506100
     24 O2       1491.2270   18.3280 -642.3910 o         1 SM1     -0.361400
     25 S1       1491.3590   18.9870 -641.2270 s4        1 SM1      1.580500
     26 O1       1492.5470   19.3240 -640.6950 o         1 SM1     -0.361400
     27 C1       1490.0150   19.4030 -640.4250 c3        1 SM1     -0.403800
     28 C4       1489.6990   18.2630 -639.5100 ca        1 SM1     -0.214300
     29 C19      1490.1900   18.2640 -638.1960 ca        1 SM1     -0.092000
     30 C20      1489.8560   17.2240 -637.3320 ca        1 SM1     -0.113000
     31 C21      1489.0170   16.1940 -637.7650 ca        1 SM1     -0.056000
     32 C2       1488.5060   16.2070 -639.0660 ca        1 SM1     -0.113000
     33 C3       1488.8340   17.2430 -639.9360 ca        1 SM1     -0.092000
     34 H6N1     -506.9230  -12.6650  217.6350 hn        1 SM1      0.475467
     35 H6N2     -506.0520  -11.2460  217.7040 hn        1 SM1      0.475467
     36 H51      -506.0230  -10.5770  220.0830 hn        1 SM1      0.488400
     37 H4       -509.1840  -12.6590  219.1090 hn        1 SM1      0.449800
     38 H13      -509.1090   -8.9720  219.6060 ha        1 SM1      0.169000
     39 H12      -510.6920   -7.8290  221.0930 ha        1 SM1      0.156500
     40 H16      -512.4780  -11.6420  222.1630 ha        1 SM1      0.156500
     41 H15      -510.9130  -12.8090  220.6760 ha        1 SM1      0.169000
     42 H111     -512.6720   -9.6150  223.6580 hx        1 SM1      0.127700
     43 H112     -512.0940   -7.9850  223.0490 hx        1 SM1      0.127700
     44 H3       -514.4170   -9.5670  221.9990 hn        1 SM1      0.475800
     45 H8       -516.2820   -7.6040  221.6100 hx        1 SM1      0.131700
     46 H221     -515.0030   -5.4890  222.0170 hc        1 SM1      0.108367
     47 H222     -515.6180   -5.3860  223.7250 hc        1 SM1      0.108367
     48 H223     -516.7660   -5.2210  222.3190 hc        1 SM1      0.108367
     49 H2       -518.0750   -7.1790  223.1550 hn        1 SM1      0.507300
     50 H5       -519.0160  -10.6870  223.6600 h1        1 SM1      0.139700
     51 H6C1     -517.7980  -10.6070  225.7680 h1        1 SM1      0.094700
     52 H6C2     -519.5100  -10.0660  226.1520 h1        1 SM1      0.094700
     53 HA       -518.1880   -8.4870  227.0070 ho        1 SM1      0.477000
     54 H1       -520.3030   -8.2680  224.5320 hn        1 SM1      0.428800
     55 H1C1     1490.0860   20.3460 -639.7960 h1        1 SM1      0.203700
     56 H1C2     1489.0980   19.6010 -641.0660 h1        1 SM1      0.203700
     57 H19      1490.8290   19.0870 -637.8360 ha        1 SM1      0.152000
     58 H20      1490.2470   17.2220 -636.3010 ha        1 SM1      0.172000
     59 H21      1488.7480   15.3760 -637.0760 ha        1 SM1      0.172000
     60 HC       1487.8310   15.4020 -639.4020 ha        1 SM1      0.172000
     61 HB       1488.4030   17.2610 -640.9500 ha        1 SM1      0.152000
     62 H63      -507.5730  -11.2580  217.0160 hn        1 SM1      0.475467
     63 H32      -513.8660   -8.1340  221.3440 hn        1 SM1      0.475800
     64 H22      -517.1060   -7.4210  224.4950 hn        1 SM1      0.507300
     65 H121     -520.6130   -9.1590  223.1670 hn        1 SM1      0.428800
@<TRIPOS>BOND
     1    1    2 1   
     2    1   34 1   
     3    1   35 1   
     4    1   62 1   
     5    2    3 2   
     6    2    4 1   
     7    3   36 1   
     8    4    5 1   
     9    4   37 1   
    10    5    6 ar  
    11    5   10 ar  
    12    6    7 ar  
    13    6   38 1   
    14    7    8 ar  
    15    7   39 1   
    16    8    9 ar  
    17    8   11 1   
    18    9   10 ar  
    19    9   40 1   
    20   10   41 1   
    21   11   12 1   
    22   11   42 1   
    23   11   43 1   
    24   12   13 1   
    25   12   44 1   
    26   12   63 1   
    27   13   14 2   
    28   13   15 1   
    29   15   16 1   
    30   15   17 1   
    31   15   45 1   
    32   16   46 1   
    33   16   47 1   
    34   16   48 1   
    35   17   18 1   
    36   17   49 1   
    37   17   64 1   
    38   18   19 1   
    39   18   23 2   
    40   19   20 1   
    41   19   22 1   
    42   19   50 1   
    43   20   21 1   
    44   20   51 1   
    45   20   52 1   
    46   21   53 1   
    47   22   54 1   
    48   22   65 1   
    49   24   25 1   
    50   25   26 1   
    51   25   27 1   
    52   27   28 1   
    53   27   55 1   
    54   27   56 1   
    55   28   29 ar  
    56   28   33 ar  
    57   29   30 ar  
    58   29   57 1   
    59   30   31 ar  
    60   30   58 1   
    61   31   32 ar  
    62   31   59 1   
    63   32   33 ar  
    64   32   60 1   
    65   33   61 1   
@<TRIPOS>SUBSTRUCTURE
     1 SM1         1 TEMP              0 ****  ****    0 ROOT
