@<TRIPOS>MOLECULE
SM5
   51    55     1     0     0
SMALL
bcc


@<TRIPOS>ATOM
      1 C18         0.1310    0.0240   -0.1490 c3        1 SM5      0.063000
      2 N4         -0.3990    0.0600   -1.5150 na        1 SM5      0.103400
      3 C14        -1.4820    2.2320   -6.9770 ca        1 SM5     -0.081000
      4 C13        -1.2000    1.3590   -5.9200 ca        1 SM5     -0.131000
      5 C12        -1.4440    1.7270   -4.5910 ca        1 SM5      0.014000
      6 C17        -1.9830    3.0000   -4.3040 ca        1 SM5     -0.124000
      7 C16        -2.2640    3.8640   -5.3470 ca        1 SM5     -0.071300
      8 C15        -2.0120    3.4790   -6.6880 ca        1 SM5     -0.137900
      9 C11        -2.8400   -1.1980   -5.2050 ca        1 SM5     -0.226300
     10 N3         -0.7640   -1.0320   -2.1950 nc        1 SM5     -0.496800
     11 C10        -3.3070   -2.1310   -6.1470 ca        1 SM5      0.386200
     12 C8         -1.6750   -3.6490   -5.5860 ca        1 SM5      0.386200
     13 C22        -0.1970    0.6770    2.2480 c3        1 SM5      0.163300
     14 C7         -1.1300   -2.7900   -4.6160 ca        1 SM5     -0.226300
     15 C5         -0.5960    1.2280   -2.2550 cc        1 SM5     -0.134300
     16 C6         -1.7250   -1.5340   -4.4230 ca        1 SM5     -0.076500
     17 C1         -1.1210    0.8380   -3.5030 cd        1 SM5     -0.195300
     18 C19         1.5480    0.6120   -0.0680 c3        1 SM5     -0.093400
     19 C20         2.0590    0.5290    1.3700 c3        1 SM5      0.163300
     20 C2         -1.2150   -0.6130   -3.4190 cd        1 SM5      0.359800
     21 N9         -2.7440   -3.3390   -6.3450 nb        1 SM5     -0.663000
     22 N21         1.1680    1.1560    2.3260 n3        1 SM5     -0.824200
     23 C23        -0.7830    0.7650    0.8400 c3        1 SM5     -0.093400
     24 C24        -2.8340    5.2420   -5.2820 c3        1 SM5     -0.037100
     25 C25        -2.9240    5.7130   -6.7400 c3        1 SM5     -0.141700
     26 C26        -2.3970    4.5760   -7.5950 ce        1 SM5      0.411900
     27 N27        -2.2780    4.5080   -8.8930 n2        1 SM5     -0.443200
     28 O28        -2.6660    5.5710   -9.5650 oh        1 SM5     -0.356500
     29 H18         0.1830   -1.0620    0.1690 h1        1 SM5      0.087700
     30 H13        -0.7810    0.3630   -6.1350 ha        1 SM5      0.145000
     31 H17        -2.1780    3.2910   -3.2630 ha        1 SM5      0.135000
     32 H11        -3.3330   -0.2240   -5.0880 ha        1 SM5      0.154000
     33 H10        -4.1830   -1.9000   -6.7790 h4        1 SM5      0.022100
     34 H8         -1.2320   -4.6450   -5.7660 h4        1 SM5      0.022100
     35 H122       -0.8180    1.3200    2.9350 h1        1 SM5      0.035200
     36 H222       -0.2940   -0.3920    2.6020 h1        1 SM5      0.035200
     37 H7         -0.2600   -3.1020   -4.0230 ha        1 SM5      0.154000
     38 H5         -0.3510    2.2160   -1.8670 h4        1 SM5      0.182000
     39 H119        1.5420    1.6790   -0.4110 hc        1 SM5      0.061950
     40 H219        2.2460    0.0380   -0.7290 hc        1 SM5      0.061950
     41 H120        3.0470    1.0660    1.4300 h1        1 SM5      0.035200
     42 H220        2.2460   -0.5590    1.6130 h1        1 SM5      0.035200
     43 H123       -0.8880    1.8390    0.5350 hc        1 SM5      0.061950
     44 H223       -1.8030    0.3040    0.8480 hc        1 SM5      0.061950
     45 H24        -2.1750    5.9190   -4.6820 hc        1 SM5      0.059200
     46 H25        -3.9800    5.9480   -7.0270 hc        1 SM5      0.067700
     47 HO28       -2.5050    5.3370  -10.5020 ho        1 SM5      0.438000
     48 H121        1.5230    1.0400    3.2560 hn        1 SM5      0.370800
     49 H22        -3.8450    5.2330   -4.8010 hc        1 SM5      0.059200
     50 H23        -2.3090    6.6320   -6.9080 hc        1 SM5      0.067700
     51 H14        -1.2820    1.9290   -8.0150 ha        1 SM5      0.150000
@<TRIPOS>BOND
     1    1    2 1   
     2    1   18 1   
     3    1   23 1   
     4    1   29 1   
     5    2   10 1   
     6    2   15 1   
     7    3    4 ar  
     8    3    8 ar  
     9    3   51 1   
    10    4    5 ar  
    11    4   30 1   
    12    5    6 ar  
    13    5   17 1   
    14    6    7 ar  
    15    6   31 1   
    16    7    8 ar  
    17    7   24 1   
    18    8   26 1   
    19    9   11 ar  
    20    9   16 ar  
    21    9   32 1   
    22   10   20 2   
    23   11   21 ar  
    24   11   33 1   
    25   12   14 ar  
    26   12   21 ar  
    27   12   34 1   
    28   13   22 1   
    29   13   23 1   
    30   13   35 1   
    31   13   36 1   
    32   14   16 ar  
    33   14   37 1   
    34   15   17 2   
    35   15   38 1   
    36   16   20 1   
    37   17   20 1   
    38   18   19 1   
    39   18   39 1   
    40   18   40 1   
    41   19   22 1   
    42   19   41 1   
    43   19   42 1   
    44   22   48 1   
    45   23   43 1   
    46   23   44 1   
    47   24   25 1   
    48   24   45 1   
    49   24   49 1   
    50   25   26 1   
    51   25   46 1   
    52   25   50 1   
    53   26   27 2   
    54   27   28 1   
    55   28   47 1   
@<TRIPOS>SUBSTRUCTURE
     1 SM5         1 TEMP              0 ****  ****    0 ROOT
