@<TRIPOS>MOLECULE
SM5
   51    55     1     0     0
SMALL
bcc


@<TRIPOS>ATOM
      1 C18         0.1250    0.0230   -0.1450 c3        1 SM5      0.063000
      2 N4         -0.4010    0.0580   -1.5120 na        1 SM5      0.103400
      3 C14        -1.4730    2.2280   -6.9770 ca        1 SM5     -0.081000
      4 C13        -1.1930    1.3560   -5.9190 ca        1 SM5     -0.131000
      5 C12        -1.4400    1.7240   -4.5900 ca        1 SM5      0.014000
      6 C17        -1.9820    2.9960   -4.3060 ca        1 SM5     -0.124000
      7 C16        -2.2610    3.8600   -5.3490 ca        1 SM5     -0.071300
      8 C15        -2.0050    3.4760   -6.6890 ca        1 SM5     -0.137900
      9 C11        -2.8320   -1.2020   -5.2080 ca        1 SM5     -0.226300
     10 N3         -0.7640   -1.0340   -2.1930 nc        1 SM5     -0.496800
     11 C10        -3.2960   -2.1350   -6.1510 ca        1 SM5      0.386200
     12 C8         -1.6660   -3.6520   -5.5860 ca        1 SM5      0.386200
     13 C22        -0.2090    0.6760    2.2510 c3        1 SM5      0.163800
     14 C7         -1.1230   -2.7930   -4.6140 ca        1 SM5     -0.226300
     15 C5         -0.5980    1.2260   -2.2530 cc        1 SM5     -0.134300
     16 C6         -1.7190   -1.5370   -4.4230 ca        1 SM5     -0.076500
     17 C1         -1.1200    0.8360   -3.5020 cd        1 SM5     -0.195300
     18 C19         1.5410    0.6120   -0.0600 c3        1 SM5     -0.093400
     19 C20         2.0490    0.5300    1.3780 c3        1 SM5      0.163800
     20 C2         -1.2130   -0.6150   -3.4180 cd        1 SM5      0.359800
     21 N9         -2.7320   -3.3430   -6.3470 nb        1 SM5     -0.663000
     22 N21         1.1560    1.1560    2.3320 n7        1 SM5     -0.824200
     23 C23        -0.7910    0.7640    0.8410 c3        1 SM5     -0.093400
     24 C24        -2.8330    5.2380   -5.2850 c3        1 SM5     -0.037100
     25 C25        -2.9200    5.7090   -6.7440 c3        1 SM5     -0.141700
     26 C26        -2.3890    4.5720   -7.5970 ce        1 SM5      0.411900
     27 N27        -2.2660    4.5040   -8.8950 n2        1 SM5     -0.443200
     28 O28        -2.6530    5.5670   -9.5680 oh        1 SM5     -0.356500
     29 H18         0.1770   -1.0630    0.1730 h1        1 SM5      0.087700
     30 H13        -0.7720    0.3610   -6.1330 ha        1 SM5      0.145000
     31 H17        -2.1800    3.2870   -3.2640 ha        1 SM5      0.135000
     32 H11        -3.3270   -0.2280   -5.0930 ha        1 SM5      0.154000
     33 H10        -4.1710   -1.9040   -6.7850 h4        1 SM5      0.022100
     34 H8         -1.2220   -4.6480   -5.7640 h4        1 SM5      0.022100
     35 H122       -0.3060   -0.3930    2.6050 h1        1 SM5      0.035200
     36 H222       -0.8320    1.3190    2.9370 h1        1 SM5      0.035200
     37 H7         -0.2550   -3.1050   -4.0190 ha        1 SM5      0.154000
     38 H5         -0.3550    2.2140   -1.8640 h4        1 SM5      0.182000
     39 H119        2.2420    0.0390   -0.7200 hc        1 SM5      0.061950
     40 H219        1.5360    1.6790   -0.4040 hc        1 SM5      0.061950
     41 H120        3.0370    1.0670    1.4410 h1        1 SM5      0.035200
     42 H220        2.2370   -0.5580    1.6220 h1        1 SM5      0.035200
     43 H123       -1.8120    0.3020    0.8470 hc        1 SM5      0.061950
     44 H223       -0.8970    1.8370    0.5360 hc        1 SM5      0.061950
     45 H24        -3.8450    5.2270   -4.8070 hc        1 SM5      0.059200
     46 H25        -2.3050    6.6280   -6.9100 hc        1 SM5      0.067700
     47 HO28       -2.4900    5.3330  -10.5040 ho        1 SM5      0.438000
     48 H121        1.5080    1.0400    3.2640 hn        1 SM5      0.370800
     49 H22        -2.1760    5.9150   -4.6840 hc        1 SM5      0.059200
     50 H23        -3.9750    5.9420   -7.0330 hc        1 SM5      0.067700
     51 H14        -1.2700    1.9260   -8.0150 ha        1 SM5      0.150000
@<TRIPOS>BOND
     1    1    2 1   
     2    1   18 1   
     3    1   23 1   
     4    1   29 1   
     5    2   10 1   
     6    2   15 1   
     7    3    4 ar  
     8    3    8 ar  
     9    3   51 1   
    10    4    5 ar  
    11    4   30 1   
    12    5    6 ar  
    13    5   17 1   
    14    6    7 ar  
    15    6   31 1   
    16    7    8 ar  
    17    7   24 1   
    18    8   26 1   
    19    9   11 ar  
    20    9   16 ar  
    21    9   32 1   
    22   10   20 2   
    23   11   21 ar  
    24   11   33 1   
    25   12   14 ar  
    26   12   21 ar  
    27   12   34 1   
    28   13   22 1   
    29   13   23 1   
    30   13   35 1   
    31   13   36 1   
    32   14   16 ar  
    33   14   37 1   
    34   15   17 2   
    35   15   38 1   
    36   16   20 1   
    37   17   20 1   
    38   18   19 1   
    39   18   39 1   
    40   18   40 1   
    41   19   22 1   
    42   19   41 1   
    43   19   42 1   
    44   22   48 1   
    45   23   43 1   
    46   23   44 1   
    47   24   25 1   
    48   24   45 1   
    49   24   49 1   
    50   25   26 1   
    51   25   46 1   
    52   25   50 1   
    53   26   27 2   
    54   27   28 1   
    55   28   47 1   
@<TRIPOS>SUBSTRUCTURE
     1 SM5         1 TEMP              0 ****  ****    0 ROOT
