@<TRIPOS>MOLECULE
SM5
   51    55     1     0     0
SMALL
bcc


@<TRIPOS>ATOM
      1 C18        -4.1430    0.5230    0.0030 c3        1 SM5      0.065000
      2 N4         -2.7800   -0.0150   -0.0170 na        1 SM5      0.103400
      3 C14         3.1200   -0.1690    0.9210 ca        1 SM5     -0.081000
      4 C13         1.7780   -0.5460    0.8040 ca        1 SM5     -0.131000
      5 C12         0.8610    0.2480    0.1040 ca        1 SM5      0.013000
      6 C17         1.2910    1.4510   -0.4970 ca        1 SM5     -0.124000
      7 C16         2.6180    1.8240   -0.3850 ca        1 SM5     -0.071300
      8 C15         3.5360    1.0120    0.3280 ca        1 SM5     -0.136900
      9 C11         0.7060   -2.8480   -1.0120 ca        1 SM5     -0.226300
     10 N3         -2.5010   -1.3180   -0.1300 nc        1 SM5     -0.495800
     11 C10         1.3040   -4.1140   -1.1280 ca        1 SM5      0.386200
     12 C8         -0.3100   -5.0970    0.1800 ca        1 SM5      0.386200
     13 C22        -5.8420    1.9860   -1.1140 c3        1 SM5      0.150800
     14 C7         -0.9880   -3.8780    0.3570 ca        1 SM5     -0.226300
     15 C5         -1.6210    0.7610    0.0710 cc        1 SM5     -0.137300
     16 C6         -0.4670   -2.7270   -0.2510 ca        1 SM5     -0.077500
     17 C1         -0.5280   -0.1260    0.0140 cd        1 SM5     -0.193300
     18 C19        -4.4510    1.2540    1.3200 c3        1 SM5     -0.131900
     19 C20        -5.8860    1.7850    1.2860 c3        1 SM5      0.150800
     20 C2         -1.1370   -1.4430   -0.1180 cd        1 SM5      0.360800
     21 N9          0.8160   -5.2280   -0.5470 nb        1 SM5     -0.663000
     22 N21        -6.2180    2.6050    0.1400 n3        1 SM5     -0.798200
     23 C23        -4.4050    1.4640   -1.1830 c3        1 SM5     -0.131900
     24 C24         3.2900    3.0390   -0.9360 c3        1 SM5     -0.037100
     25 C25         4.7570    2.9240   -0.4970 c3        1 SM5     -0.141700
     26 C26         4.8720    1.6360    0.2960 ce        1 SM5      0.411900
     27 N27         5.9210    1.1130    0.8710 n2        1 SM5     -0.442200
     28 O28         7.0430    1.7910    0.7530 oh        1 SM5     -0.356500
     29 H18        -4.8570   -0.3530   -0.0840 h1        1 SM5      0.092700
     30 H13         1.4340   -1.4840    1.2680 ha        1 SM5      0.145000
     31 H17         0.5750    2.0740   -1.0500 ha        1 SM5      0.134000
     32 H11         1.1490   -1.9710   -1.5030 ha        1 SM5      0.154500
     33 H10         2.2270   -4.2470   -1.7200 h4        1 SM5      0.022600
     34 H8         -0.6920   -6.0240    0.6450 h4        1 SM5      0.022600
     35 H122       -6.5480    1.1250   -1.2900 h1        1 SM5      0.059950
     36 H222       -5.9970    2.7330   -1.9410 h1        1 SM5      0.059950
     37 H7         -1.9070   -3.8360    0.9570 ha        1 SM5      0.154500
     38 H5         -1.6470    1.8450    0.1740 h4        1 SM5      0.178000
     39 H119       -4.3420    0.5520    2.1850 hc        1 SM5      0.058450
     40 H219       -3.7300    2.0980    1.4710 hc        1 SM5      0.058450
     41 H120       -6.5950    0.9080    1.2910 h1        1 SM5      0.059950
     42 H220       -6.0720    2.3840    2.2200 h1        1 SM5      0.059950
     43 H123       -3.6820    2.3200   -1.1660 hc        1 SM5      0.058450
     44 H223       -4.2630    0.9150   -2.1500 hc        1 SM5      0.058450
     45 H24         3.2070    3.0680   -2.0520 hc        1 SM5      0.058700
     46 H25         5.4430    2.8890   -1.3810 hc        1 SM5      0.068200
     47 HO28        7.7020    1.2530    1.2360 ho        1 SM5      0.438000
     48 H121       -5.7810    3.5060    0.2240 hn        1 SM5      0.353800
     49 H22         2.8230    3.9710   -0.5310 hc        1 SM5      0.058700
     50 H23         5.0590    3.7920    0.1400 hc        1 SM5      0.068200
     51 H14         3.8280   -0.8030    1.4760 ha        1 SM5      0.151000
@<TRIPOS>BOND
     1    1    2 1   
     2    1   18 1   
     3    1   23 1   
     4    1   29 1   
     5    2   10 1   
     6    2   15 1   
     7    3    4 ar  
     8    3    8 ar  
     9    3   51 1   
    10    4    5 ar  
    11    4   30 1   
    12    5    6 ar  
    13    5   17 1   
    14    6    7 ar  
    15    6   31 1   
    16    7    8 ar  
    17    7   24 1   
    18    8   26 1   
    19    9   11 ar  
    20    9   16 ar  
    21    9   32 1   
    22   10   20 2   
    23   11   21 ar  
    24   11   33 1   
    25   12   14 ar  
    26   12   21 ar  
    27   12   34 1   
    28   13   22 1   
    29   13   23 1   
    30   13   35 1   
    31   13   36 1   
    32   14   16 ar  
    33   14   37 1   
    34   15   17 2   
    35   15   38 1   
    36   16   20 1   
    37   17   20 1   
    38   18   19 1   
    39   18   39 1   
    40   18   40 1   
    41   19   22 1   
    42   19   41 1   
    43   19   42 1   
    44   22   48 1   
    45   23   43 1   
    46   23   44 1   
    47   24   25 1   
    48   24   45 1   
    49   24   49 1   
    50   25   26 1   
    51   25   46 1   
    52   25   50 1   
    53   26   27 2   
    54   27   28 1   
    55   28   47 1   
@<TRIPOS>SUBSTRUCTURE
     1 SM5         1 TEMP              0 ****  ****    0 ROOT
