@<TRIPOS>MOLECULE
SM5
   51    55     1     0     0
SMALL
bcc


@<TRIPOS>ATOM
      1 C18         0.1320    0.0230   -0.1470 c3        1 SM5      0.063000
      2 N4         -0.3980    0.0590   -1.5130 na        1 SM5      0.103400
      3 C14        -1.4800    2.2290   -6.9760 ca        1 SM5     -0.081000
      4 C13        -1.1980    1.3570   -5.9190 ca        1 SM5     -0.131000
      5 C12        -1.4430    1.7240   -4.5900 ca        1 SM5      0.014000
      6 C17        -1.9850    2.9960   -4.3040 ca        1 SM5     -0.124000
      7 C16        -2.2660    3.8590   -5.3460 ca        1 SM5     -0.071300
      8 C15        -2.0120    3.4750   -6.6880 ca        1 SM5     -0.137900
      9 C11        -2.8370   -1.2010   -5.2040 ca        1 SM5     -0.226300
     10 N3         -0.7630   -1.0340   -2.1930 nc        1 SM5     -0.496800
     11 C10        -3.3040   -2.1340   -6.1460 ca        1 SM5      0.386200
     12 C8         -1.6740   -3.6530   -5.5830 ca        1 SM5      0.386200
     13 C22        -0.1940    0.6790    2.2490 c3        1 SM5      0.163800
     14 C7         -1.1290   -2.7930   -4.6130 ca        1 SM5     -0.226300
     15 C5         -0.5960    1.2260   -2.2540 cc        1 SM5     -0.134300
     16 C6         -1.7230   -1.5370   -4.4210 ca        1 SM5     -0.076500
     17 C1         -1.1210    0.8360   -3.5020 cd        1 SM5     -0.195300
     18 C19         1.5500    0.6090   -0.0680 c3        1 SM5     -0.093400
     19 C20         2.0610    0.5270    1.3700 c3        1 SM5      0.163800
     20 C2         -1.2140   -0.6150   -3.4170 cd        1 SM5      0.359800
     21 N9         -2.7420   -3.3420   -6.3430 nb        1 SM5     -0.663000
     22 N21         1.1720    1.1560    2.3260 n3        1 SM5     -0.824200
     23 C23        -0.7800    0.7670    0.8410 c3        1 SM5     -0.093400
     24 C24        -2.8390    5.2370   -5.2820 c3        1 SM5     -0.037100
     25 C25        -2.9280    5.7080   -6.7410 c3        1 SM5     -0.141700
     26 C26        -2.3980    4.5720   -7.5940 ce        1 SM5      0.411900
     27 N27        -2.2770    4.5040   -8.8930 n2        1 SM5     -0.443200
     28 O28        -2.6660    5.5660   -9.5650 oh        1 SM5     -0.356500
     29 H18         0.1820   -1.0630    0.1710 h1        1 SM5      0.087700
     30 H13        -0.7770    0.3610   -6.1330 ha        1 SM5      0.145000
     31 H17        -2.1820    3.2870   -3.2620 ha        1 SM5      0.135000
     32 H11        -3.3310   -0.2260   -5.0880 ha        1 SM5      0.154000
     33 H10        -4.1790   -1.9030   -6.7790 h4        1 SM5      0.022100
     34 H8         -1.2310   -4.6490   -5.7620 h4        1 SM5      0.022100
     35 H122       -0.8130    1.3240    2.9360 h1        1 SM5      0.035200
     36 H222       -0.2920   -0.3900    2.6040 h1        1 SM5      0.035200
     37 H7         -0.2600   -3.1060   -4.0190 ha        1 SM5      0.154000
     38 H5         -0.3510    2.2150   -1.8660 h4        1 SM5      0.182000
     39 H119        2.2470    0.0340   -0.7290 hc        1 SM5      0.061950
     40 H219        1.5460    1.6760   -0.4120 hc        1 SM5      0.061950
     41 H120        2.2470   -0.5620    1.6140 h1        1 SM5      0.035200
     42 H220        3.0510    1.0620    1.4290 h1        1 SM5      0.035200
     43 H123       -1.8010    0.3070    0.8500 hc        1 SM5      0.061950
     44 H223       -0.8840    1.8400    0.5350 hc        1 SM5      0.061950
     45 H24        -2.1810    5.9150   -4.6820 hc        1 SM5      0.059200
     46 H25        -2.3140    6.6280   -6.9080 hc        1 SM5      0.067700
     47 HO28       -2.5040    5.3330  -10.5020 ho        1 SM5      0.438000
     48 H121        1.5270    1.0400    3.2560 hn        1 SM5      0.370800
     49 H22        -3.8500    5.2260   -4.8030 hc        1 SM5      0.059200
     50 H23        -3.9830    5.9410   -7.0280 hc        1 SM5      0.067700
     51 H14        -1.2790    1.9260   -8.0140 ha        1 SM5      0.150000
@<TRIPOS>BOND
     1    1    2 1   
     2    1   18 1   
     3    1   23 1   
     4    1   29 1   
     5    2   10 1   
     6    2   15 1   
     7    3    4 ar  
     8    3    8 ar  
     9    3   51 1   
    10    4    5 ar  
    11    4   30 1   
    12    5    6 ar  
    13    5   17 1   
    14    6    7 ar  
    15    6   31 1   
    16    7    8 ar  
    17    7   24 1   
    18    8   26 1   
    19    9   11 ar  
    20    9   16 ar  
    21    9   32 1   
    22   10   20 2   
    23   11   21 ar  
    24   11   33 1   
    25   12   14 ar  
    26   12   21 ar  
    27   12   34 1   
    28   13   22 1   
    29   13   23 1   
    30   13   35 1   
    31   13   36 1   
    32   14   16 ar  
    33   14   37 1   
    34   15   17 2   
    35   15   38 1   
    36   16   20 1   
    37   17   20 1   
    38   18   19 1   
    39   18   39 1   
    40   18   40 1   
    41   19   22 1   
    42   19   41 1   
    43   19   42 1   
    44   22   48 1   
    45   23   43 1   
    46   23   44 1   
    47   24   25 1   
    48   24   45 1   
    49   24   49 1   
    50   25   26 1   
    51   25   46 1   
    52   25   50 1   
    53   26   27 2   
    54   27   28 1   
    55   28   47 1   
@<TRIPOS>SUBSTRUCTURE
     1 SM5         1 TEMP              0 ****  ****    0 ROOT
