@<TRIPOS>MOLECULE
SM5
   51    45     1     0     0
SMALL
bcc


@<TRIPOS>ATOM
      1 C18         0.9190   -0.7060    3.4650 c3        1 SM5      0.043000
      2 N4          0.4530   -0.5940    2.0790 n3        1 SM5     -0.110000
      3 C14        -1.9610    2.0260   -2.4570 c1        1 SM5     -0.082000
      4 C13        -1.7430    1.2160   -1.3440 c2        1 SM5     -0.141000
      5 C12        -0.5140    0.5630   -1.1810 c1        1 SM5      0.015000
      6 C17         0.5000    0.7250   -2.1410 c1        1 SM5     -0.116000
      7 C16         0.2800    1.5430   -3.2650 c1        1 SM5     -0.062000
      8 C15        -0.9440    2.1900   -3.4220 c1        1 SM5     -0.055000
      9 C11        -0.4500   -3.6060   -0.9540 c1        1 SM5     -0.158000
     10 N3         -0.1470   -1.7330    1.6100 n2        1 SM5     -0.064000
     11 C10        -1.1340   -4.6140   -1.6220 c1        1 SM5     -0.080000
     12 C8         -3.1920   -3.8460   -0.7140 c1        1 SM5     -0.079000
     13 C22         0.9240    0.4930    5.6650 c3        1 SM5     -0.073000
     14 C7         -2.4990   -2.8210   -0.0340 c1        1 SM5     -0.164000
     15 C5          0.3880    0.3520    1.1010 c1        1 SM5     -0.109000
     16 C6         -1.1400   -2.7140   -0.1610 c1        1 SM5      0.031000
     17 C1         -0.2610   -0.2050    0.0100 c1        1 SM5     -0.130000
     18 C19         2.4120   -0.7090    3.4720 c3        1 SM5     -0.172000
     19 C20         2.9810   -0.6440    4.8680 c3        1 SM5     -0.073000
     20 C2         -0.5880   -1.4870    0.3280 c1        1 SM5     -0.077000
     21 N9         -2.5120   -4.7230   -1.4930 n2        1 SM5     -0.137000
     22 N21         2.4020    0.4870    5.6690 n3        1 SM5     -0.303000
     23 C23         0.3480    0.4250    4.2620 c3        1 SM5     -0.172000
     24 C24         1.0480    1.6570   -4.5930 c3        1 SM5     -0.123000
     25 C25         0.2530    2.5700   -5.5230 c3        1 SM5     -0.146000
     26 C26        -0.8430    3.1000   -4.6310 c2        1 SM5     -0.034000
     27 N27        -1.5790    4.1200   -4.8680 n1        1 SM5     -0.059000
     28 O28        -1.4110    4.8220   -5.9920 o         1 SM5     -0.253000
     29 H18         0.6080   -1.5300    3.8320 h1        1 SM5      0.127000
     30 H14        -2.8100    2.4780   -2.5680 DU        1 SM5      0.160750
     31 H13        -2.4590    1.0990   -0.6690 ha        1 SM5      0.133000
     32 H17         1.3640    0.2650   -2.0280 ha        1 SM5      0.147000
     33 H11         0.5150   -3.5300   -1.0440 DU        1 SM5      0.160750
     34 H10        -0.6330   -5.2610   -2.1970 DU        1 SM5      0.160750
     35 H8         -4.1260   -3.9200   -0.6270 ha        1 SM5      0.159000
     36 H122        0.5940    1.3520    6.1160 h1        1 SM5      0.074500
     37 H222        0.6070   -0.2660    6.1710 h1        1 SM5      0.074500
     38 H7         -3.0030   -2.1700    0.5450 ha        1 SM5      0.155000
     39 H5          0.6460    1.2810    1.1930 DU        1 SM5      0.160750
     40 H119        2.7310    0.0670    2.9620 hc        1 SM5      0.101000
     41 H219        2.7440   -1.5630    3.0200 hc        1 SM5      0.101000
     42 H120        2.7900   -1.4800    5.3220 h1        1 SM5      0.074500
     43 H220        3.9540   -0.5290    4.8080 h1        1 SM5      0.074500
     44 H123        0.5300    1.2310    3.8190 hc        1 SM5      0.101000
     45 H223       -0.6610    0.3080    4.3270 hc        1 SM5      0.101000
     46 H24         1.9550    2.0500   -4.4270 hc        1 SM5      0.100500
     47 H25        -0.1090    2.2110   -6.4060 hc        1 SM5      0.107500
     48 HO28       -1.9400    5.5250   -5.9790 ho        1 SM5      0.236000
     49 H121        2.6950    0.4330    6.5140 hn        1 SM5      0.166000
     50 H22         1.1420    0.7540   -5.0070 hc        1 SM5      0.100500
     51 H23         0.8760    3.3060   -5.8100 hc        1 SM5      0.107500
@<TRIPOS>BOND
     1    1    2 1   
     2    1   18 1   
     3    1   23 1   
     4    1   29 1   
     5    2   10 1   
     6    2   15 1   
     7    3    4 1   
     8    3    8 1   
     9    4    5 1   
    10    4   31 1   
    11    6    7 1   
    12    6   32 1   
    13    7   24 1   
    14    8   26 1   
    15    9   11 1   
    16    9   16 1   
    17   10   20 1   
    18   11   21 1   
    19   12   21 1   
    20   12   35 1   
    21   13   22 1   
    22   13   23 1   
    23   13   36 1   
    24   13   37 1   
    25   14   16 1   
    26   14   38 1   
    27   15   17 1   
    28   17   20 1   
    29   18   19 1   
    30   18   40 1   
    31   18   41 1   
    32   19   22 1   
    33   19   42 1   
    34   19   43 1   
    35   22   49 1   
    36   23   44 1   
    37   23   45 1   
    38   24   25 1   
    39   24   46 1   
    40   24   50 1   
    41   25   26 1   
    42   25   47 1   
    43   25   51 1   
    44   26   27 1   
    45   28   48 1   
@<TRIPOS>SUBSTRUCTURE
     1 SM5         1 TEMP              0 ****  ****    0 ROOT
