@<TRIPOS>MOLECULE
SM6
   44    47     1     0     0
SMALL
bcc


@<TRIPOS>ATOM
      1 C1          0.2260    0.2630   -0.3110 ca        1 SM6      0.103000
      2 C2          1.1150   -0.8270    0.1290 ca        1 SM6     -0.065000
      3 C3          1.6130   -0.8350    1.4630 ca        1 SM6     -0.155000
      4 C4          1.2680    0.1790    2.3400 ca        1 SM6      0.144600
      5 C5          0.3670    1.2320    1.8890 ca        1 SM6     -0.019000
      6 C6         -0.1290    1.2750    0.6220 ca        1 SM6     -0.196000
      7 C7         -0.0750    0.0530   -1.6490 c2        1 SM6     -0.243200
      8 C8          0.5440   -1.2420   -2.1230 c3        1 SM6     -0.019000
      9 C9          1.3040   -1.7030   -0.9120 c2        1 SM6     -0.052200
     10 N10         1.8300    0.2040    3.6230 nu        1 SM6     -0.586400
     11 C11         1.3890    1.0800    4.6190 cc        1 SM6      0.153800
     12 N12        -0.9230    0.8660   -2.4840 ny        1 SM6     -0.356300
     13 C13         1.5530    2.5180    4.5720 ca        1 SM6     -0.074800
     14 C14         1.0990    3.1180    5.7810 ca        1 SM6     -0.239400
     15 S15         0.5540    1.9910    6.8730 ss        1 SM6      0.258500
     16 C16         0.8480    0.6930    5.8540 cd        1 SM6     -0.222600
     17 C17         0.5990   -0.6980    6.2070 c         1 SM6      0.677300
     18 O18         0.8930   -1.7020    5.5450 o         1 SM6     -0.562000
     19 C19         2.1050    3.3330    3.5660 ca        1 SM6     -0.209300
     20 C20         2.1600    4.7040    3.8020 ca        1 SM6      0.388200
     21 N21         1.7050    5.3010    4.9420 nb        1 SM6     -0.638000
     22 C22         1.1970    4.5320    5.8980 ca        1 SM6      0.452200
     23 O23        -2.1710    0.3070   -2.5570 oh        1 SM6     -0.371300
     24 O24        -0.0290   -0.8710    7.4050 os        1 SM6     -0.430900
     25 C25        -0.9430   -2.1520    9.1590 c3        1 SM6     -0.105100
     26 C26        -0.2760   -2.2360    7.8090 c3        1 SM6      0.144400
     27 H3          2.2700   -1.6670    1.7620 ha        1 SM6      0.169000
     28 H5          0.0770    2.0150    2.6150 ha        1 SM6      0.172000
     29 H6         -0.8170    2.0790    0.3200 ha        1 SM6      0.138000
     30 H8          1.2320   -1.0940   -2.9950 hc        1 SM6      0.112200
     31 H9          1.9090   -2.6130   -0.9200 ha        1 SM6      0.182000
     32 HN10        2.0680   -0.7100    3.9780 hn        1 SM6      0.460800
     33 HN12       -0.5010    0.9050   -3.4300 hn        1 SM6      0.461800
     34 H19         2.4990    2.8940    2.6400 ha        1 SM6      0.149000
     35 H20         2.5940    5.3970    3.0580 h4        1 SM6      0.033100
     36 H22         0.8470    5.0440    6.8140 h4        1 SM6      0.041100
     37 HO23       -2.7430    0.8740   -3.1180 ho        1 SM6      0.450000
     38 H25        -0.2790   -1.6390    9.8960 hc        1 SM6      0.055700
     39 H25A       -1.9010   -1.5820    9.0920 hc        1 SM6      0.055700
     40 H25B       -1.1580   -3.1870    9.5200 hc        1 SM6      0.055700
     41 H26        -0.9330   -2.7190    7.0400 h1        1 SM6      0.057700
     42 H26A        0.7050   -2.7770    7.8530 h1        1 SM6      0.057700
     43 H8A        -0.2440   -1.9920   -2.4030 hc        1 SM6      0.112200
     44 H122       -0.9810    1.8150   -2.0730 hn        1 SM6      0.461800
@<TRIPOS>BOND
     1    1    2 ar  
     2    1    6 ar  
     3    1    7 2   
     4    2    3 ar  
     5    2    9 2   
     6    3    4 ar  
     7    3   27 1   
     8    4    5 ar  
     9    4   10 1   
    10    5    6 ar  
    11    5   28 1   
    12    6   29 1   
    13    7    8 1   
    14    7   12 1   
    15    8    9 1   
    16    8   30 1   
    17    8   43 1   
    18    9   31 1   
    19   10   11 1   
    20   10   32 1   
    21   11   13 1   
    22   11   16 2   
    23   12   23 1   
    24   12   33 1   
    25   12   44 1   
    26   13   14 ar  
    27   13   19 ar  
    28   14   15 1   
    29   14   22 ar  
    30   15   16 1   
    31   16   17 1   
    32   17   18 2   
    33   17   24 1   
    34   19   20 ar  
    35   19   34 1   
    36   20   21 ar  
    37   20   35 1   
    38   21   22 ar  
    39   22   36 1   
    40   23   37 1   
    41   24   26 1   
    42   25   26 1   
    43   25   38 1   
    44   25   39 1   
    45   25   40 1   
    46   26   41 1   
    47   26   42 1   
@<TRIPOS>SUBSTRUCTURE
     1 SM6         1 TEMP              0 ****  ****    0 ROOT
