@<TRIPOS>MOLECULE
SM6
   43    46     1     0     0
SMALL
bcc


@<TRIPOS>ATOM
      1 C1         -3.9060    0.1390    0.0750 ca        1 SM6     -0.106000
      2 C2         -3.5050    0.0260   -1.3430 ca        1 SM6     -0.026000
      3 C3         -2.1220   -0.1430   -1.6690 ca        1 SM6     -0.143000
      4 C4         -1.1850   -0.2040   -0.6660 ca        1 SM6      0.139600
      5 C5         -1.5930   -0.1030    0.7320 ca        1 SM6     -0.165000
      6 C6         -2.8930    0.0570    1.0810 ca        1 SM6     -0.067000
      7 C7         -5.2730    0.3020    0.1370 c2        1 SM6      0.020800
      8 C8         -5.8330    0.2920   -1.2810 c3        1 SM6     -0.027000
      9 C9         -4.6120    0.1100   -2.1380 c2        1 SM6     -0.197200
     10 N10         0.1720   -0.4090   -0.9980 nh        1 SM6     -0.613400
     11 C11         1.2310   -0.0080   -0.2200 cc        1 SM6      0.250800
     12 N12        -6.1230    0.5930    1.2300 nh        1 SM6     -0.437500
     13 C13         1.2960    1.2350    0.5410 ca        1 SM6     -0.094800
     14 C14         2.5690    1.3870    1.1590 ca        1 SM6     -0.200400
     15 S15         3.5970    0.1260    0.8150 ss        1 SM6      0.158500
     16 C16         2.4590   -0.6880   -0.1330 cd        1 SM6     -0.276600
     17 C17         2.7200   -1.9500   -0.7870 c         1 SM6      0.688300
     18 O18         1.9850   -2.5760   -1.5660 o         1 SM6     -0.577000
     19 C19         0.3390    2.2510    0.6920 ca        1 SM6     -0.177300
     20 C20         0.6830    3.3590    1.4670 ca        1 SM6      0.363200
     21 N21         1.8870    3.5130    2.0840 nb        1 SM6     -0.643000
     22 C22         2.7980    2.5550    1.9310 ca        1 SM6      0.424200
     23 O23        -5.5910    0.3170    2.4300 oh        1 SM6     -0.411300
     24 O24         3.9390   -2.5020   -0.4920 os        1 SM6     -0.439900
     25 C25         5.6160   -4.1510   -0.6460 c3        1 SM6     -0.101100
     26 C26         4.2380   -3.7610   -1.1240 c3        1 SM6      0.143400
     27 H3         -1.8520   -0.2300   -2.7320 ha        1 SM6      0.144000
     28 H5         -0.8100   -0.1720    1.5030 ha        1 SM6      0.143000
     29 H6         -3.2000    0.1110    2.1370 ha        1 SM6      0.141000
     30 H8         -6.5560   -0.5500   -1.4220 hc        1 SM6      0.088700
     31 H9         -4.6700    0.0640   -3.2220 ha        1 SM6      0.150000
     32 HN10        0.3460   -1.1940   -1.6020 hn        1 SM6      0.468800
     33 HN12       -6.9710    0.0290    1.1470 hn        1 SM6      0.391800
     34 H19        -0.6470    2.1760    0.2120 ha        1 SM6      0.162000
     35 H20        -0.0290    4.1900    1.6170 h4        1 SM6      0.026100
     36 H22         3.7680    2.7080    2.4380 h4        1 SM6      0.028100
     37 HO23       -5.2790    1.1780    2.7700 ho        1 SM6      0.427000
     38 H25         5.8960   -5.1270   -1.1090 hc        1 SM6      0.048367
     39 H25A        6.3660   -3.3780   -0.9380 hc        1 SM6      0.048367
     40 H25B        5.6320   -4.2540    0.4650 hc        1 SM6      0.048367
     41 H26         3.4590   -4.5080   -0.8200 h1        1 SM6      0.052700
     42 H26A        4.2010   -3.6220   -2.2360 h1        1 SM6      0.052700
     43 H8A        -6.3490    1.2590   -1.5130 hc        1 SM6      0.088700
@<TRIPOS>BOND
     1    1    2 ar  
     2    1    6 ar  
     3    1    7 2   
     4    2    3 ar  
     5    2    9 2   
     6    3    4 ar  
     7    3   27 1   
     8    4    5 ar  
     9    4   10 1   
    10    5    6 ar  
    11    5   28 1   
    12    6   29 1   
    13    7    8 1   
    14    7   12 1   
    15    8    9 1   
    16    8   30 1   
    17    8   43 1   
    18    9   31 1   
    19   10   11 1   
    20   10   32 1   
    21   11   13 1   
    22   11   16 2   
    23   12   23 1   
    24   12   33 1   
    25   13   14 ar  
    26   13   19 ar  
    27   14   15 1   
    28   14   22 ar  
    29   15   16 1   
    30   16   17 1   
    31   17   18 2   
    32   17   24 1   
    33   19   20 ar  
    34   19   34 1   
    35   20   21 ar  
    36   20   35 1   
    37   21   22 ar  
    38   22   36 1   
    39   23   37 1   
    40   24   26 1   
    41   25   26 1   
    42   25   38 1   
    43   25   39 1   
    44   25   40 1   
    45   26   41 1   
    46   26   42 1   
@<TRIPOS>SUBSTRUCTURE
     1 SM6         1 TEMP              0 ****  ****    0 ROOT
