@<TRIPOS>MOLECULE
SM6
   44    47     1     0     0
SMALL
bcc


@<TRIPOS>ATOM
      1 C1          0.2270    0.2450   -0.3100 ca        1 SM6      0.103000
      2 C2          1.1220   -0.8380    0.1360 ca        1 SM6     -0.065000
      3 C3          1.6200   -0.8360    1.4690 ca        1 SM6     -0.155000
      4 C4          1.2700    0.1800    2.3410 ca        1 SM6      0.144600
      5 C5          0.3620    1.2260    1.8860 ca        1 SM6     -0.019000
      6 C6         -0.1340    1.2600    0.6180 ca        1 SM6     -0.196000
      7 C7         -0.0740    0.0260   -1.6460 c2        1 SM6     -0.243200
      8 C8          0.5520   -1.2670   -2.1140 c3        1 SM6     -0.019000
      9 C9          1.3160   -1.7180   -0.9020 c2        1 SM6     -0.052200
     10 N10         1.8320    0.2150    3.6240 nh        1 SM6     -0.586400
     11 C11         1.3860    1.0930    4.6160 cc        1 SM6      0.153800
     12 N12        -0.9270    0.8300   -2.4850 n4        1 SM6     -0.356300
     13 C13         1.5420    2.5320    4.5610 ca        1 SM6     -0.074800
     14 C14         1.0850    3.1350    5.7670 ca        1 SM6     -0.239400
     15 S15         0.5460    2.0110    6.8650 ss        1 SM6      0.258500
     16 C16         0.8480    0.7090    5.8520 cd        1 SM6     -0.222600
     17 C17         0.6060   -0.6810    6.2130 c         1 SM6      0.677300
     18 O18         0.9060   -1.6870    5.5550 o         1 SM6     -0.562000
     19 C19         2.0900    3.3450    3.5510 ca        1 SM6     -0.209300
     20 C20         2.1360    4.7170    3.7800 ca        1 SM6      0.388200
     21 N21         1.6790    5.3180    4.9180 nb        1 SM6     -0.638000
     22 C22         1.1750    4.5500    5.8780 ca        1 SM6      0.452200
     23 O23        -2.1720    0.2640   -2.5550 oh        1 SM6     -0.371300
     24 O24        -0.0210   -0.8520    7.4110 os        1 SM6     -0.430900
     25 C25        -0.9270   -2.1290    9.1720 c3        1 SM6     -0.105100
     26 C26        -0.2600   -2.2160    7.8220 c3        1 SM6      0.144400
     27 H3          2.2820   -1.6630    1.7730 ha        1 SM6      0.169000
     28 H5          0.0690    2.0110    2.6080 ha        1 SM6      0.172000
     29 H6         -0.8260    2.0580    0.3120 ha        1 SM6      0.138000
     30 H8          1.2400   -1.1190   -2.9870 hc        1 SM6      0.112200
     31 H9          1.9250   -2.6250   -0.9050 ha        1 SM6      0.182000
     32 HN10        2.0750   -0.6960    3.9830 hn        1 SM6      0.460800
     33 HN12       -0.5060    0.8670   -3.4320 hn        1 SM6      0.461800
     34 H19         2.4860    2.9040    2.6280 ha        1 SM6      0.150000
     35 H20         2.5660    5.4090    3.0340 h4        1 SM6      0.033100
     36 H22         0.8220    5.0650    6.7910 h4        1 SM6      0.041100
     37 HO23       -2.7470    0.8240   -3.1190 ho        1 SM6      0.450000
     38 H25        -1.1360   -3.1640    9.5370 hc        1 SM6      0.055700
     39 H25A       -1.8870   -1.5650    9.1030 hc        1 SM6      0.055700
     40 H25B       -0.2660   -1.6100    9.9060 hc        1 SM6      0.055700
     41 H26        -0.9150   -2.7070    7.0560 h1        1 SM6      0.057700
     42 H26A        0.7240   -2.7520    7.8680 h1        1 SM6      0.057700
     43 H8A        -0.2310   -2.0230   -2.3900 hc        1 SM6      0.112200
     44 H122       -0.9910    1.7810   -2.0790 hn        1 SM6      0.461800
@<TRIPOS>BOND
     1    1    2 ar  
     2    1    6 ar  
     3    1    7 2   
     4    2    3 ar  
     5    2    9 2   
     6    3    4 ar  
     7    3   27 1   
     8    4    5 ar  
     9    4   10 1   
    10    5    6 ar  
    11    5   28 1   
    12    6   29 1   
    13    7    8 1   
    14    7   12 1   
    15    8    9 1   
    16    8   30 1   
    17    8   43 1   
    18    9   31 1   
    19   10   11 1   
    20   10   32 1   
    21   11   13 1   
    22   11   16 2   
    23   12   23 1   
    24   12   33 1   
    25   12   44 1   
    26   13   14 ar  
    27   13   19 ar  
    28   14   15 1   
    29   14   22 ar  
    30   15   16 1   
    31   16   17 1   
    32   17   18 2   
    33   17   24 1   
    34   19   20 ar  
    35   19   34 1   
    36   20   21 ar  
    37   20   35 1   
    38   21   22 ar  
    39   22   36 1   
    40   23   37 1   
    41   24   26 1   
    42   25   26 1   
    43   25   38 1   
    44   25   39 1   
    45   25   40 1   
    46   26   41 1   
    47   26   42 1   
@<TRIPOS>SUBSTRUCTURE
     1 SM6         1 TEMP              0 ****  ****    0 ROOT
