@<TRIPOS>MOLECULE
SM6
   45    48     1     0     0
SMALL
bcc


@<TRIPOS>ATOM
      1 C1         -0.0620   -0.3260   -0.0130 ca        1 SM6      0.092000
      2 C2          0.9460    0.7280    0.2130 ca        1 SM6     -0.138000
      3 C3          1.6850    0.7490    1.4340 ca        1 SM6      0.010000
      4 C4          1.4440   -0.2200    2.3740 ca        1 SM6     -0.048400
      5 C5          0.4260   -1.2370    2.1700 ca        1 SM6     -0.036000
      6 C6         -0.2920   -1.2880    1.0160 ca        1 SM6     -0.147000
      7 C7         -0.5960   -0.1350   -1.2740 c2        1 SM6     -0.182200
      8 C8         -0.0040    1.1050   -1.9070 c3        1 SM6     -0.043000
      9 C9          0.9870    1.5640   -0.8800 c2        1 SM6      0.023800
     10 N10         2.2130   -0.2750    3.6280 n4        1 SM6     -0.474200
     11 C11         1.9500    0.8190    4.5410 cc        1 SM6     -0.081200
     12 N12        -1.6270   -0.9170   -1.9250 n4        1 SM6     -0.369300
     13 C13         2.6670    2.0610    4.5220 ca        1 SM6     -0.021800
     14 C14         2.1760    2.9090    5.5610 ca        1 SM6     -0.300400
     15 S15         0.9820    2.1860    6.4480 ss        1 SM6      0.477500
     16 C16         1.0050    0.7830    5.5830 cd        1 SM6     -0.183600
     17 C17         0.1930   -0.4040    5.8680 c         1 SM6      0.681300
     18 O18         0.2520   -1.4740    5.2380 o         1 SM6     -0.595000
     19 C19         3.7250    2.5060    3.7060 ca        1 SM6     -0.274300
     20 C20         4.2320    3.7800    3.9500 ca        1 SM6      0.460200
     21 N21         3.7610    4.6170    4.9210 nb        1 SM6     -0.621000
     22 C22         2.7740    4.1980    5.7010 ca        1 SM6      0.497200
     23 O23        -2.8460   -0.3600   -1.6550 oh        1 SM6     -0.362300
     24 O24        -0.6570   -0.2780    6.9050 os        1 SM6     -0.406900
     25 C25        -2.2380   -1.0460    8.4760 c3        1 SM6     -0.112100
     26 C26        -1.4420   -1.4520    7.2630 c3        1 SM6      0.149400
     27 H3          2.4300    1.5540    1.5800 ha        1 SM6      0.179000
     28 H5          0.2270   -1.9670    2.9820 ha        1 SM6      0.200000
     29 H6         -1.0650   -2.0610    0.8770 ha        1 SM6      0.164000
     30 H8         -0.7890    1.8950   -2.0780 hc        1 SM6      0.140700
     31 H9          1.6230    2.4420   -1.0370 ha        1 SM6      0.197000
     32 HN10        1.9750   -1.1650    4.1180 hn        1 SM6      0.482800
     33 HN12       -1.5950   -1.8890   -1.5620 hn        1 SM6      0.473300
     34 H19         4.1620    1.8710    2.9260 ha        1 SM6      0.139000
     35 H20         5.0730    4.1910    3.3550 h4        1 SM6      0.058100
     36 H22         2.4270    4.9000    6.4860 h4        1 SM6      0.063100
     37 HO23       -3.5370   -0.8300   -2.1770 ho        1 SM6      0.471000
     38 H25        -2.9050   -0.1810    8.2450 hc        1 SM6      0.069033
     39 H25A       -1.5620   -0.7580    9.3180 hc        1 SM6      0.069033
     40 H25B       -2.8650   -1.9140    8.7960 hc        1 SM6      0.069033
     41 H26        -0.7340   -2.2940    7.4740 h1        1 SM6      0.066700
     42 H26A       -2.0910   -1.7100    6.3880 h1        1 SM6      0.066700
     43 H8A         0.5050    0.8930   -2.8860 hc        1 SM6      0.140700
     44 H102        3.2180   -0.2690    3.4000 hn        1 SM6      0.482800
     45 H122       -1.4430   -0.9090   -2.9470 hn        1 SM6      0.473300
@<TRIPOS>BOND
     1    1    2 ar  
     2    1    6 ar  
     3    1    7 2   
     4    2    3 ar  
     5    2    9 2   
     6    3    4 ar  
     7    3   27 1   
     8    4    5 ar  
     9    4   10 1   
    10    5    6 ar  
    11    5   28 1   
    12    6   29 1   
    13    7    8 1   
    14    7   12 1   
    15    8    9 1   
    16    8   30 1   
    17    8   43 1   
    18    9   31 1   
    19   10   11 1   
    20   10   32 1   
    21   10   44 1   
    22   11   13 1   
    23   11   16 2   
    24   12   23 1   
    25   12   33 1   
    26   12   45 1   
    27   13   14 ar  
    28   13   19 ar  
    29   14   15 1   
    30   14   22 ar  
    31   15   16 1   
    32   16   17 1   
    33   17   18 2   
    34   17   24 1   
    35   19   20 ar  
    36   19   34 1   
    37   20   21 ar  
    38   20   35 1   
    39   21   22 ar  
    40   22   36 1   
    41   23   37 1   
    42   24   26 1   
    43   25   26 1   
    44   25   38 1   
    45   25   39 1   
    46   25   40 1   
    47   26   41 1   
    48   26   42 1   
@<TRIPOS>SUBSTRUCTURE
     1 SM6         1 TEMP              0 ****  ****    0 ROOT
