@<TRIPOS>MOLECULE
SM7
   49    54     1     0     0
SMALL
bcc


@<TRIPOS>ATOM
      1 C1         -0.2360   -0.0380    0.0080 cc        1 SM7     -0.206300
      2 C2          1.1880    0.2700    0.0150 cc        1 SM7      0.360800
      3 N3          1.6630    0.2130    1.2990 nd        1 SM7     -0.492800
      4 N4          0.6310   -0.1110    2.0870 na        1 SM7      0.106400
      5 C5         -0.5490   -0.2810    1.3610 cd        1 SM7     -0.128300
      6 C6         -1.1690   -0.0710   -1.0890 ca        1 SM7      0.011000
      7 C7          2.0410    0.5690   -1.1240 ca        1 SM7     -0.079500
      8 C8          3.0330    1.5580   -1.0400 ca        1 SM7     -0.227800
      9 C9          3.8400    1.7950   -2.1670 ca        1 SM7      0.386700
     10 N10         3.7200    1.1230   -3.3280 nb        1 SM7     -0.661000
     11 C11         2.7670    0.1730   -3.3920 ca        1 SM7      0.386700
     12 C12         1.9070   -0.1420   -2.3260 ca        1 SM7     -0.227800
     13 C13         0.7430   -0.2820    3.5390 c3        1 SM7      0.062000
     14 C14         0.4120   -1.7180    3.9730 c3        1 SM7     -0.093400
     15 C15         0.5640   -1.8460    5.4880 c3        1 SM7      0.163800
     16 N16        -0.2230   -0.8750    6.2200 n3        1 SM7     -0.825200
     17 C17         0.0120    0.4930    5.8060 c3        1 SM7      0.163800
     18 C18        -0.1590    0.7000    4.3010 c3        1 SM7     -0.093400
     19 C19        -2.2130   -0.9940   -1.0910 ca        1 SM7     -0.121000
     20 C20        -3.1630   -1.0330   -2.1320 ca        1 SM7     -0.078000
     21 C21        -3.0430   -0.1320   -3.1630 ca        1 SM7     -0.019000
     22 C22        -1.9640    0.8300   -3.1730 ca        1 SM7     -0.091000
     23 C23        -1.0440    0.8600   -2.1550 ca        1 SM7     -0.077000
     24 C24        -3.8270    0.1030   -4.3670 cc        1 SM7      0.271300
     25 C25        -3.1400    1.2750   -5.0970 cc        1 SM7     -0.354400
     26 C26        -2.0660    1.6790   -4.3890 cc        1 SM7      0.053800
     27 N27        -4.8810   -0.2960   -5.0570 nc        1 SM7     -0.289000
     28 N28        -4.9870    0.4790   -6.1830 nd        1 SM7     -0.346000
     29 C29        -4.0230    1.3960   -6.2670 cd        1 SM7      0.396200
     30 H5         -1.4950   -0.5420    1.8330 h4        1 SM7      0.184000
     31 H8          3.1830    2.1330   -0.1170 ha        1 SM7      0.154500
     32 H9          4.6300    2.5670   -2.1390 h4        1 SM7      0.023600
     33 H11         2.6930   -0.3690   -4.3520 h4        1 SM7      0.023600
     34 H12         1.1460   -0.9270   -2.4320 ha        1 SM7      0.154500
     35 H13         1.8180   -0.0680    3.8250 h1        1 SM7      0.089700
     36 H14         1.1090   -2.4440    3.4820 hc        1 SM7      0.061950
     37 H14A       -0.6340   -1.9810    3.6700 hc        1 SM7      0.061950
     38 H15         0.2080   -2.8690    5.7990 h1        1 SM7      0.036450
     39 H15A        1.6650   -1.7780    5.7370 h1        1 SM7      0.036450
     40 HN16       -0.0640   -0.9710    7.2050 hn        1 SM7      0.371800
     41 H17        -0.7380    1.1410    6.3430 h1        1 SM7      0.036450
     42 H17A        1.0440    0.8550    6.0950 h1        1 SM7      0.036450
     43 H18         0.1170    1.7560    4.0530 hc        1 SM7      0.061950
     44 H18A       -1.2310    0.5430    4.0130 hc        1 SM7      0.061950
     45 H19        -2.3040   -1.7160   -0.2640 ha        1 SM7      0.139000
     46 H20        -3.9770   -1.7730   -2.1100 ha        1 SM7      0.155000
     47 H23        -0.2140    1.5830   -2.1460 ha        1 SM7      0.152000
     48 H26        -1.3530    2.4770   -4.6070 ha        1 SM7      0.159000
     49 H29        -3.9300    2.1110   -7.0870 h4        1 SM7      0.050100
@<TRIPOS>BOND
     1    1    2 1   
     2    1    5 2   
     3    1    6 1   
     4    2    3 2   
     5    2    7 1   
     6    3    4 1   
     7    4    5 1   
     8    4   13 1   
     9    5   30 1   
    10    6   19 ar  
    11    6   23 ar  
    12    7    8 ar  
    13    7   12 ar  
    14    8    9 ar  
    15    8   31 1   
    16    9   10 ar  
    17    9   32 1   
    18   10   11 ar  
    19   11   12 ar  
    20   11   33 1   
    21   12   34 1   
    22   13   14 1   
    23   13   18 1   
    24   13   35 1   
    25   14   15 1   
    26   14   36 1   
    27   14   37 1   
    28   15   16 1   
    29   15   38 1   
    30   15   39 1   
    31   16   17 1   
    32   16   40 1   
    33   17   18 1   
    34   17   41 1   
    35   17   42 1   
    36   18   43 1   
    37   18   44 1   
    38   19   20 ar  
    39   19   45 1   
    40   20   21 ar  
    41   20   46 1   
    42   21   22 ar  
    43   21   24 2   
    44   22   23 ar  
    45   22   26 2   
    46   23   47 1   
    47   24   25 1   
    48   24   27 1   
    49   25   26 1   
    50   25   29 2   
    51   26   48 1   
    52   27   28 2   
    53   28   29 1   
    54   29   49 1   
@<TRIPOS>SUBSTRUCTURE
     1 SM7         1 TEMP              0 ****  ****    0 ROOT
