@<TRIPOS>MOLECULE
SM7
   49    54     1     0     0
SMALL
bcc


@<TRIPOS>ATOM
      1 C1         -0.2180   -0.0320   -0.0050 cc        1 SM7     -0.206300
      2 C2          1.2060    0.2720    0.0130 cc        1 SM7      0.360800
      3 N3          1.6720    0.2130    1.3000 nd        1 SM7     -0.492800
      4 N4          0.6340   -0.1090    2.0800 na        1 SM7      0.106400
      5 C5         -0.5410   -0.2760    1.3450 cd        1 SM7     -0.128300
      6 C6         -1.1430   -0.0620   -1.1090 ca        1 SM7      0.011000
      7 C7          2.0680    0.5710   -1.1200 ca        1 SM7     -0.079500
      8 C8          3.0610    1.5580   -1.0280 ca        1 SM7     -0.227800
      9 C9          3.8770    1.7950   -2.1490 ca        1 SM7      0.386700
     10 N10         3.7650    1.1240   -3.3110 nb        1 SM7     -0.661000
     11 C11         2.8110    0.1750   -3.3820 ca        1 SM7      0.386700
     12 C12         1.9420   -0.1390   -2.3230 ca        1 SM7     -0.227800
     13 C13         0.7350   -0.2820    3.5330 c3        1 SM7      0.062000
     14 C14         0.3970   -1.7170    3.9630 c3        1 SM7     -0.093400
     15 C15         0.5380   -1.8470    5.4790 c3        1 SM7      0.163800
     16 N16        -0.2530   -0.8740    6.2070 n3        1 SM7     -0.825200
     17 C17        -0.0120    0.4940    5.7950 c3        1 SM7      0.163800
     18 C18        -0.1710    0.7020    4.2900 c3        1 SM7     -0.093400
     19 C19        -2.1900   -0.9830   -1.1190 ca        1 SM7     -0.122000
     20 C20        -3.1320   -1.0190   -2.1670 ca        1 SM7     -0.078000
     21 C21        -3.0020   -0.1180   -3.1960 ca        1 SM7     -0.019000
     22 C22        -1.9210    0.8420   -3.1980 ca        1 SM7     -0.091000
     23 C23        -1.0080    0.8690   -2.1730 ca        1 SM7     -0.077000
     24 C24        -3.7770    0.1210   -4.4060 cc        1 SM7      0.271300
     25 C25        -3.0820    1.2910   -5.1300 cc        1 SM7     -0.354400
     26 C26        -2.0120    1.6920   -4.4140 cc        1 SM7      0.053800
     27 N27        -4.8270   -0.2760   -5.1040 nc        1 SM7     -0.289000
     28 N28        -4.9230    0.5000   -6.2290 nd        1 SM7     -0.346000
     29 C29        -3.9570    1.4150   -6.3060 cd        1 SM7      0.396200
     30 H5         -1.4920   -0.5360    1.8110 h4        1 SM7      0.184000
     31 H8          3.2060    2.1320   -0.1030 ha        1 SM7      0.154500
     32 H9          4.6690    2.5640   -2.1140 h4        1 SM7      0.023600
     33 H11         2.7430   -0.3670   -4.3430 h4        1 SM7      0.023600
     34 H12         1.1810   -0.9220   -2.4350 ha        1 SM7      0.154500
     35 H13         1.8080   -0.0690    3.8270 h1        1 SM7      0.089700
     36 H14        -0.6480   -1.9780    3.6530 hc        1 SM7      0.061950
     37 H14A        1.0970   -2.4440    3.4770 hc        1 SM7      0.061950
     38 H15         0.1780   -2.8690    5.7870 h1        1 SM7      0.036450
     39 H15A        1.6370   -1.7800    5.7370 h1        1 SM7      0.036450
     40 HN16       -0.1000   -0.9710    7.1930 hn        1 SM7      0.371800
     41 H17         1.0190    0.8530    6.0920 h1        1 SM7      0.036450
     42 H17A       -0.7640    1.1430    6.3280 h1        1 SM7      0.036450
     43 H18        -1.2410    0.5470    3.9940 hc        1 SM7      0.061950
     44 H18A        0.1090    1.7580    4.0430 hc        1 SM7      0.061950
     45 H19        -2.2880   -1.7050   -0.2930 ha        1 SM7      0.139000
     46 H20        -3.9480   -1.7570   -2.1510 ha        1 SM7      0.155000
     47 H23        -0.1770    1.5900   -2.1580 ha        1 SM7      0.152000
     48 H26        -1.2950    2.4890   -4.6260 ha        1 SM7      0.159000
     49 H29        -3.8550    2.1310   -7.1250 h4        1 SM7      0.050100
@<TRIPOS>BOND
     1    1    2 1   
     2    1    5 2   
     3    1    6 1   
     4    2    3 2   
     5    2    7 1   
     6    3    4 1   
     7    4    5 1   
     8    4   13 1   
     9    5   30 1   
    10    6   19 ar  
    11    6   23 ar  
    12    7    8 ar  
    13    7   12 ar  
    14    8    9 ar  
    15    8   31 1   
    16    9   10 ar  
    17    9   32 1   
    18   10   11 ar  
    19   11   12 ar  
    20   11   33 1   
    21   12   34 1   
    22   13   14 1   
    23   13   18 1   
    24   13   35 1   
    25   14   15 1   
    26   14   36 1   
    27   14   37 1   
    28   15   16 1   
    29   15   38 1   
    30   15   39 1   
    31   16   17 1   
    32   16   40 1   
    33   17   18 1   
    34   17   41 1   
    35   17   42 1   
    36   18   43 1   
    37   18   44 1   
    38   19   20 ar  
    39   19   45 1   
    40   20   21 ar  
    41   20   46 1   
    42   21   22 ar  
    43   21   24 2   
    44   22   23 ar  
    45   22   26 2   
    46   23   47 1   
    47   24   25 1   
    48   24   27 1   
    49   25   26 1   
    50   25   29 2   
    51   26   48 1   
    52   27   28 2   
    53   28   29 1   
    54   29   49 1   
@<TRIPOS>SUBSTRUCTURE
     1 SM7         1 TEMP              0 ****  ****    0 ROOT
