@<TRIPOS>MOLECULE
SM7
   49    54     1     0     0
SMALL
bcc


@<TRIPOS>ATOM
      1 C1         -0.7340    0.1090   -0.1220 cc        1 SM7     -0.204300
      2 C2         -1.2670   -1.1700    0.3250 cc        1 SM7      0.361800
      3 N3         -2.6330   -1.0970    0.4020 nd        1 SM7     -0.491800
      4 N4         -2.9830    0.1410    0.0310 na        1 SM7      0.106400
      5 C5         -1.8730    0.9190   -0.3030 cd        1 SM7     -0.130300
      6 C6          0.6310    0.5230   -0.3210 ca        1 SM7      0.010000
      7 C7         -0.5290   -2.3860    0.6290 ca        1 SM7     -0.080500
      8 C8         -0.8960   -3.1980    1.7130 ca        1 SM7     -0.227800
      9 C9         -0.1560   -4.3700    1.9530 ca        1 SM7      0.387200
     10 N10         0.8870   -4.7650    1.1970 nb        1 SM7     -0.661000
     11 C11         1.2240   -3.9780    0.1570 ca        1 SM7      0.387200
     12 C12         0.5530   -2.7860   -0.1680 ca        1 SM7     -0.227800
     13 C13        -4.3720    0.6060   -0.0260 c3        1 SM7      0.064000
     14 C14        -4.7880    0.9940   -1.4530 c3        1 SM7     -0.132400
     15 C15        -6.2460    1.4620   -1.4510 c3        1 SM7      0.151800
     16 N16        -6.5600    2.5140   -0.5070 n3        1 SM7     -0.798200
     17 C17        -6.0840    2.2230    0.8290 c3        1 SM7      0.151800
     18 C18        -4.6190    1.7880    0.9250 c3        1 SM7     -0.132400
     19 C19         0.9500    1.4150   -1.3440 ca        1 SM7     -0.122000
     20 C20         2.2700    1.8660   -1.5460 ca        1 SM7     -0.078000
     21 C21         3.2550    1.4080   -0.7050 ca        1 SM7     -0.019000
     22 C22         2.9390    0.4820    0.3590 ca        1 SM7     -0.091000
     23 C23         1.6500    0.0480    0.5480 ca        1 SM7     -0.077000
     24 C24         4.6870    1.6630   -0.6280 cc        1 SM7      0.270300
     25 C25         5.2020    0.8230    0.5580 cc        1 SM7     -0.354400
     26 C26         4.1760    0.1490    1.1140 cc        1 SM7      0.053800
     27 N27         5.6900    2.3250   -1.1760 nc        1 SM7     -0.288000
     28 N28         6.8390    2.0270   -0.4890 nd        1 SM7     -0.345000
     29 C29         6.6300    1.1740    0.5130 cd        1 SM7      0.396200
     30 H5         -1.9590    1.9570   -0.6240 h4        1 SM7      0.180000
     31 H8         -1.7430   -2.9330    2.3590 ha        1 SM7      0.154500
     32 H9         -0.4160   -5.0340    2.7970 h4        1 SM7      0.024600
     33 H11         2.0780   -4.3260   -0.4520 h4        1 SM7      0.024600
     34 H12         0.8700   -2.1810   -1.0290 ha        1 SM7      0.154500
     35 H13        -5.0330   -0.2520    0.3080 h1        1 SM7      0.094700
     36 H14        -4.1230    1.8080   -1.8420 hc        1 SM7      0.058450
     37 H14A       -4.6890    0.1130   -2.1380 hc        1 SM7      0.058450
     38 H15        -6.5140    1.8170   -2.4840 h1        1 SM7      0.061200
     39 H15A       -6.9070    0.5820   -1.2070 h1        1 SM7      0.061200
     40 HN16       -6.1790    3.3880   -0.8260 hn        1 SM7      0.354800
     41 H17        -6.2320    3.1370    1.4690 h1        1 SM7      0.061200
     42 H17A       -6.7320    1.4000    1.2460 h1        1 SM7      0.061200
     43 H18        -4.3960    1.4880    1.9800 hc        1 SM7      0.058450
     44 H18A       -3.9450    2.6440    0.6620 hc        1 SM7      0.058450
     45 H19         0.1570    1.7770   -2.0170 ha        1 SM7      0.138000
     46 H20         2.4950    2.5690   -2.3620 ha        1 SM7      0.155000
     47 H23         1.3890   -0.6590    1.3500 ha        1 SM7      0.153000
     48 H26         4.1750   -0.5360    1.9640 ha        1 SM7      0.160000
     49 H29         7.4150    0.8110    1.1800 h4        1 SM7      0.050100
@<TRIPOS>BOND
     1    1    2 1   
     2    1    5 2   
     3    1    6 1   
     4    2    3 2   
     5    2    7 1   
     6    3    4 1   
     7    4    5 1   
     8    4   13 1   
     9    5   30 1   
    10    6   19 ar  
    11    6   23 ar  
    12    7    8 ar  
    13    7   12 ar  
    14    8    9 ar  
    15    8   31 1   
    16    9   10 ar  
    17    9   32 1   
    18   10   11 ar  
    19   11   12 ar  
    20   11   33 1   
    21   12   34 1   
    22   13   14 1   
    23   13   18 1   
    24   13   35 1   
    25   14   15 1   
    26   14   36 1   
    27   14   37 1   
    28   15   16 1   
    29   15   38 1   
    30   15   39 1   
    31   16   17 1   
    32   16   40 1   
    33   17   18 1   
    34   17   41 1   
    35   17   42 1   
    36   18   43 1   
    37   18   44 1   
    38   19   20 ar  
    39   19   45 1   
    40   20   21 ar  
    41   20   46 1   
    42   21   22 ar  
    43   21   24 2   
    44   22   23 ar  
    45   22   26 2   
    46   23   47 1   
    47   24   25 1   
    48   24   27 1   
    49   25   26 1   
    50   25   29 2   
    51   26   48 1   
    52   27   28 2   
    53   28   29 1   
    54   29   49 1   
@<TRIPOS>SUBSTRUCTURE
     1 SM7         1 TEMP              0 ****  ****    0 ROOT
