@<TRIPOS>MOLECULE
SM7
   49    45     1     0     0
SMALL
bcc


@<TRIPOS>ATOM
      1 C1         -0.1580    0.0470    0.2980 c1        1 SM7     -0.136000
      2 C2          1.2070    0.0720    0.2960 c2        1 SM7     -0.072000
      3 N3          1.6240    0.1450    1.5770 n2        1 SM7     -0.060000
      4 N4          0.5160    0.1640    2.3840 n2        1 SM7     -0.109000
      5 C5         -0.5770    0.1040    1.5940 c1        1 SM7     -0.110000
      6 C6         -1.0490    0.0810   -0.9260 c1        1 SM7      0.007000
      7 C7          2.0170    0.1020   -0.8240 c1        1 SM7      0.026000
      8 C8          2.4200   -1.0640   -1.4060 c1        1 SM7     -0.157000
      9 C9          3.2610   -1.0330   -2.5070 c1        1 SM7     -0.078000
     10 N10         3.6850    0.1600   -3.0090 n1        1 SM7     -0.134000
     11 C11         3.2820    1.3250   -2.4290 c1        1 SM7     -0.121500
     12 C12         2.4420    1.2980   -1.3280 c1        1 SM7     -0.121500
     13 C13         0.5160    0.3070    3.6640 c2        1 SM7      0.057000
     14 C14         1.9650    0.2470    4.2590 c3        1 SM7     -0.204500
     15 C15         2.7020   -1.0220    3.8740 c3        1 SM7     -0.085000
     16 N16         1.8740   -1.9500    3.4930 n3        1 SM7     -0.278000
     17 C17         0.7110   -2.2330    4.0150 c3        1 SM7     -0.085000
     18 C18        -0.0350   -0.9800    4.4010 c3        1 SM7     -0.204500
     19 C19        -1.1620   -1.1180   -1.7940 c2        1 SM7     -0.110000
     20 C20        -2.1650   -1.1420   -2.9090 c1        1 SM7     -0.076000
     21 C21        -3.1080    0.0600   -3.1230 c1        1 SM7     -0.019000
     22 C22        -2.9890    1.2230   -2.2930 c2        1 SM7     -0.091000
     23 C23        -1.9180    1.2750   -1.1840 c2        1 SM7     -0.086000
     24 C24        -3.5030    0.4730   -4.5240 c1        1 SM7     -0.056000
     25 C25        -3.6490    2.0300   -4.6030 c1        1 SM7     -0.209000
     26 C26        -3.2940    2.4400   -3.0910 c2        1 SM7      0.037000
     27 N27        -4.8380    0.0410   -5.0940 n2        1 SM7     -0.023000
     28 N28        -5.6330    1.2060   -5.4480 n1        1 SM7     -0.080000
     29 C29        -4.9290    2.3670   -5.1570 c1        1 SM7     -0.071000
     30 H5         -1.5050    0.1020    1.8980 DU        1 SM7      0.179000
     31 H8          2.1170   -1.9190   -1.0470 ha        1 SM7      0.154000
     32 H9          3.5500   -1.8670   -2.9230 ha        1 SM7      0.161000
     33 H11         3.5860    2.1800   -2.7890 ha        1 SM7      0.157000
     34 H12         2.1540    2.1320   -0.9120 ha        1 SM7      0.157000
     35 H13         0.0420    1.1160    3.9450 ha        1 SM7      0.097000
     36 H14         1.9080    0.2950    5.2350 hc        1 SM7      0.104750
     37 H14A        2.4720    1.0180    3.9340 hc        1 SM7      0.104750
     38 H15         3.2120   -1.3440    4.6480 h1        1 SM7      0.096750
     39 H15A        3.3220   -0.8230    3.1410 h1        1 SM7      0.096750
     40 HN16        2.3360   -2.7260    3.3370 hn        1 SM7      0.146000
     41 H17         0.8440   -2.7870    4.8140 h1        1 SM7      0.096750
     42 H17A        0.1800   -2.7350    3.3620 h1        1 SM7      0.096750
     43 H18        -0.9800   -1.0930    4.1760 hc        1 SM7      0.104750
     44 H18A        0.0460   -0.8490    5.3660 hc        1 SM7      0.104750
     45 H19        -0.6280   -1.9130   -1.6010 ha        1 SM7      0.152000
     46 H20        -2.2410   -1.9290   -3.4800 ha        1 SM7      0.158000
     47 H23        -1.7870    2.0940   -0.6690 ha        1 SM7      0.139000
     48 H26        -2.8200    3.2730   -2.9100 ha        1 SM7      0.156000
     49 H29        -5.0210    3.1510   -5.7310 ha        1 SM7      0.187000
@<TRIPOS>BOND
     1    1    2 1   
     2    1    5 1   
     3    2    3 1   
     4    2    7 1   
     5    3    4 1   
     6    4    5 1   
     7    6   19 1   
     8    6   23 1   
     9    7    8 1   
    10    8   31 1   
    11    9   10 1   
    12    9   32 1   
    13   11   12 1   
    14   11   33 1   
    15   12   34 1   
    16   13   14 1   
    17   13   18 1   
    18   13   35 1   
    19   14   15 1   
    20   14   36 1   
    21   14   37 1   
    22   15   16 1   
    23   15   38 1   
    24   15   39 1   
    25   16   17 1   
    26   16   40 1   
    27   17   18 1   
    28   17   41 1   
    29   17   42 1   
    30   18   43 1   
    31   18   44 1   
    32   19   20 1   
    33   19   45 1   
    34   20   46 1   
    35   21   22 1   
    36   21   24 1   
    37   22   23 1   
    38   22   26 1   
    39   23   47 1   
    40   24   27 1   
    41   25   26 1   
    42   25   29 1   
    43   26   48 1   
    44   27   28 1   
    45   29   49 1   
@<TRIPOS>SUBSTRUCTURE
     1 SM7         1 TEMP              0 ****  ****    0 ROOT
