@<TRIPOS>MOLECULE
SM7
   49    54     1     0     0
SMALL
bcc


@<TRIPOS>ATOM
      1 C1         -0.2310   -0.0370    0.0070 cc        1 SM7     -0.206300
      2 C2          1.1820    0.3160    0.0210 cc        1 SM7      0.360800
      3 N3          1.6550    0.2680    1.3060 nd        1 SM7     -0.492800
      4 N4          0.6320   -0.0930    2.0880 na        1 SM7      0.106400
      5 C5         -0.5400   -0.2970    1.3570 cd        1 SM7     -0.128300
      6 C6         -1.1590   -0.0950   -1.0930 ca        1 SM7      0.011000
      7 C7          2.0290    0.6480   -1.1140 ca        1 SM7     -0.079500
      8 C8          2.9880    1.6670   -1.0220 ca        1 SM7     -0.228300
      9 C9          3.7910    1.9370   -2.1460 ca        1 SM7      0.386700
     10 N10         3.6960    1.2680   -3.3110 nb        1 SM7     -0.661000
     11 C11         2.7740    0.2870   -3.3820 ca        1 SM7      0.386700
     12 C12         1.9210   -0.0600   -2.3210 ca        1 SM7     -0.228300
     13 C13         0.7450   -0.2680    3.5400 c3        1 SM7      0.062000
     14 C14         0.4580   -1.7160    3.9660 c3        1 SM7     -0.093400
     15 C15         0.6090   -1.8460    5.4810 c3        1 SM7      0.163800
     16 N16        -0.2110   -0.9030    6.2160 n7        1 SM7     -0.825200
     17 C17        -0.0170    0.4740    5.8080 c3        1 SM7      0.163800
     18 C18        -0.1900    0.6820    4.3040 c3        1 SM7     -0.093400
     19 C19        -2.1730   -1.0510   -1.1030 ca        1 SM7     -0.121000
     20 C20        -3.1180   -1.1150   -2.1470 ca        1 SM7     -0.078000
     21 C21        -3.0240   -0.2060   -3.1730 ca        1 SM7     -0.019000
     22 C22        -1.9770    0.7910   -3.1750 ca        1 SM7     -0.091000
     23 C23        -1.0610    0.8450   -2.1540 ca        1 SM7     -0.077000
     24 C24        -3.8120    0.0100   -4.3780 cc        1 SM7      0.271300
     25 C25        -3.1600    1.2070   -5.1000 cc        1 SM7     -0.354400
     26 C26        -2.1020    1.6430   -4.3870 cc        1 SM7      0.053800
     27 N27        -4.8500   -0.4190   -5.0740 nc        1 SM7     -0.289000
     28 N28        -4.9770    0.3580   -6.1950 nd        1 SM7     -0.346000
     29 C29        -4.0440    1.3060   -6.2720 cd        1 SM7      0.396200
     30 H5         -1.4790   -0.5910    1.8260 h4        1 SM7      0.184000
     31 H8          3.1180    2.2420   -0.0960 ha        1 SM7      0.154500
     32 H9          4.5560    2.7330   -2.1100 h4        1 SM7      0.023600
     33 H11         2.7200   -0.2520   -4.3450 h4        1 SM7      0.023600
     34 H12         1.1860   -0.8680   -2.4330 ha        1 SM7      0.154500
     35 H13         1.8120   -0.0210    3.8310 h1        1 SM7      0.089700
     36 H14        -0.5790   -2.0090    3.6590 hc        1 SM7      0.061950
     37 H14A        1.1790   -2.4170    3.4740 hc        1 SM7      0.061950
     38 H15         1.7060   -1.7440    5.7350 h1        1 SM7      0.036450
     39 H15A        0.2850   -2.8810    5.7860 h1        1 SM7      0.036450
     40 HN16       -0.0510   -0.9990    7.2010 hn        1 SM7      0.371800
     41 H17         1.0020    0.8660    6.1020 h1        1 SM7      0.036450
     42 H17A       -0.7890    1.0950    6.3460 h1        1 SM7      0.036450
     43 H18         0.0530    1.7480    4.0610 hc        1 SM7      0.061950
     44 H18A       -1.2560    0.4930    4.0120 hc        1 SM7      0.061950
     45 H19        -2.2420   -1.7800   -0.2800 ha        1 SM7      0.139000
     46 H20        -3.9070   -1.8810   -2.1320 ha        1 SM7      0.155000
     47 H23        -0.2550    1.5940   -2.1390 ha        1 SM7      0.152000
     48 H26        -1.4140    2.4640   -4.5980 ha        1 SM7      0.159000
     49 H29        -3.9710    2.0280   -7.0880 h4        1 SM7      0.050100
@<TRIPOS>BOND
     1    1    2 1   
     2    1    5 2   
     3    1    6 1   
     4    2    3 2   
     5    2    7 1   
     6    3    4 1   
     7    4    5 1   
     8    4   13 1   
     9    5   30 1   
    10    6   19 ar  
    11    6   23 ar  
    12    7    8 ar  
    13    7   12 ar  
    14    8    9 ar  
    15    8   31 1   
    16    9   10 ar  
    17    9   32 1   
    18   10   11 ar  
    19   11   12 ar  
    20   11   33 1   
    21   12   34 1   
    22   13   14 1   
    23   13   18 1   
    24   13   35 1   
    25   14   15 1   
    26   14   36 1   
    27   14   37 1   
    28   15   16 1   
    29   15   38 1   
    30   15   39 1   
    31   16   17 1   
    32   16   40 1   
    33   17   18 1   
    34   17   41 1   
    35   17   42 1   
    36   18   43 1   
    37   18   44 1   
    38   19   20 ar  
    39   19   45 1   
    40   20   21 ar  
    41   20   46 1   
    42   21   22 ar  
    43   21   24 2   
    44   22   23 ar  
    45   22   26 2   
    46   23   47 1   
    47   24   25 1   
    48   24   27 1   
    49   25   26 1   
    50   25   29 2   
    51   26   48 1   
    52   27   28 2   
    53   28   29 1   
    54   29   49 1   
@<TRIPOS>SUBSTRUCTURE
     1 SM7         1 TEMP              0 ****  ****    0 ROOT
