@<TRIPOS>MOLECULE
SM9
   85    88     1     0     0
SMALL
bcc


@<TRIPOS>ATOM
      1 C1         -0.0160    0.0940   -0.0100 c3        1 SM9      0.139800
      2 C2          1.5080   -0.1010    0.1680 c3        1 SM9      0.141100
      3 C3          1.8410    0.1090    1.6560 c3        1 SM9      0.116800
      4 O4          1.9210   -1.4090   -0.1920 oh        1 SM9     -0.637800
      5 N5          3.2000   -0.2250    2.0960 n3        1 SM9     -0.899200
      6 C6          4.2610   -0.0250    1.1090 c3        1 SM9      0.118800
      7 C7          4.7010    1.4320    0.9230 c3        1 SM9      0.105400
      8 C8          4.4660   -2.9700    2.4520 ca        1 SM9     -0.577500
      9 C9          5.8130   -2.6810    2.8380 ca        1 SM9      0.097200
     10 C10         6.8820   -3.3500    2.2490 ca        1 SM9     -0.172500
     11 C11         6.6650   -4.3120    1.2620 ca        1 SM9      0.020000
     12 C12         5.3650   -4.6060    0.8590 ca        1 SM9     -0.172500
     13 C13         4.2750   -3.9540    1.4340 ca        1 SM9      0.097200
     14 C14         2.9190   -4.3290    0.9660 c3        1 SM9     -0.122300
     15 C15         6.1200   -1.6730    3.8840 c3        1 SM9     -0.122300
     16 C16        -0.5900    1.1770   -3.6070 c3        1 SM9     -0.066000
     17 C17        -1.9340    0.4970   -3.8320 c3        1 SM9     -0.073400
     18 C18        -2.0470   -0.8110   -3.0790 c3        1 SM9     -0.078400
     19 C19        -1.6900   -0.6510   -1.6040 c3        1 SM9      0.171800
     20 N20        -0.4040    0.0070   -1.4070 n3        1 SM9     -0.755600
     21 C21        -0.3140    1.2860   -2.0990 c3        1 SM9      0.181800
     22 C22        -0.5800    2.5800   -4.2370 c3        1 SM9     -0.100400
     23 C23         0.5480    2.5770   -5.2810 c3        1 SM9      0.165800
     24 N24         1.0240    1.2000   -5.4700 nh        1 SM9     -0.720300
     25 C25         0.5580    0.4160   -4.3250 c3        1 SM9      0.178800
     26 C26         0.8080    0.6810   -6.7850 ca        1 SM9      0.656200
     27 C27         1.5730    1.2700   -7.8850 ca        1 SM9     -0.262600
     28 C28         1.3750    0.6980   -9.1830 ca        1 SM9      0.419600
     29 N29         0.5150   -0.3690   -9.3800 nb        1 SM9     -0.687000
     30 C30        -0.1110   -0.8240   -8.3000 ca        1 SM9      0.653900
     31 N31        -0.0240   -0.3530   -7.0060 nb        1 SM9     -0.764000
     32 C32         2.4920    2.3330   -7.7330 ca        1 SM9     -0.092000
     33 C33         3.1730    2.8330   -8.8190 ca        1 SM9     -0.138000
     34 C34         2.9660    2.2880  -10.1060 ca        1 SM9     -0.102000
     35 C35         2.0930    1.2440  -10.2930 ca        1 SM9     -0.174300
     36 O36         5.1640    1.8710    2.1940 os        1 SM9     -0.456600
     37 C37         6.1160    3.5400    3.5670 c3        1 SM9     -0.101100
     38 C38         5.6780    3.2080    2.1600 c3        1 SM9      0.133400
     39 S39         3.2440   -2.2710    3.1640 s4        1 SM9      1.647300
     40 O40         3.4700   -1.6660    4.3680 o         1 SM9     -0.444900
     41 O41         1.9760   -2.6640    2.8580 o         1 SM9     -0.444900
     42 H1         -0.2940    1.0850    0.4510 h1        1 SM9      0.054200
     43 H1A        -0.5330   -0.7170    0.5780 h1        1 SM9      0.054200
     44 H2          2.0750    0.6440   -0.4610 h1        1 SM9      0.050700
     45 H3          1.1410   -0.5340    2.2680 h1        1 SM9      0.079700
     46 H3A         1.6170    1.1910    1.8840 h1        1 SM9      0.079700
     47 HO4         1.4890   -1.6310   -1.0290 ho        1 SM9      0.447000
     48 H6          5.1550   -0.6120    1.4710 h1        1 SM9      0.087700
     49 H6A         3.9500   -0.4420    0.1100 h1        1 SM9      0.087700
     50 H7          5.5300    1.4750    0.1680 h1        1 SM9      0.051700
     51 H7A         3.8500    2.0780    0.5810 h1        1 SM9      0.051700
     52 H10         7.9130   -3.1200    2.5670 ha        1 SM9      0.171500
     53 H11         7.5220   -4.8380    0.8030 ha        1 SM9      0.170000
     54 H12         5.1940   -5.3670    0.0780 ha        1 SM9      0.171500
     55 H14         2.3560   -3.4330    0.5910 hc        1 SM9      0.088533
     56 H14A        2.3230   -4.7910    1.7960 hc        1 SM9      0.088533
     57 H14B        2.9730   -5.0730    0.1300 hc        1 SM9      0.088533
     58 H15         5.6340   -0.6870    3.6630 hc        1 SM9      0.088533
     59 H15A        7.2230   -1.4970    3.9600 hc        1 SM9      0.088533
     60 H15B        5.7600   -2.0220    4.8880 hc        1 SM9      0.088533
     61 H17        -2.7510    1.1900   -3.4940 hc        1 SM9      0.058700
     62 H17A       -2.0780    0.3090   -4.9290 hc        1 SM9      0.058700
     63 H18        -1.3790   -1.5800   -3.5480 hc        1 SM9      0.056700
     64 H18A       -3.0990   -1.1940   -3.1450 hc        1 SM9      0.056700
     65 H19        -1.6310   -1.6730   -1.1330 h1        1 SM9      0.036200
     66 H19A       -2.5210   -0.0830   -1.0900 h1        1 SM9      0.036200
     67 H21        -1.0420    2.0340   -1.6650 h1        1 SM9      0.033700
     68 H21A        0.7260    1.6910   -1.9450 h1        1 SM9      0.033700
     69 H22        -0.3920    3.3730   -3.4730 hc        1 SM9      0.058200
     70 H22A       -1.5600    2.8030   -4.7250 hc        1 SM9      0.058200
     71 H23         1.4240    3.1720   -4.8980 h1        1 SM9      0.060200
     72 H23A        0.2070    3.0400   -6.2450 h1        1 SM9      0.060200
     73 H25         0.2380   -0.6240   -4.5930 h1        1 SM9      0.066700
     74 H25A        1.4460    0.3340   -3.6370 h1        1 SM9      0.066700
     75 H30        -0.8040   -1.6810   -8.4350 h5        1 SM9      0.055100
     76 H32         2.6770    2.7610   -6.7350 ha        1 SM9      0.141000
     77 H33         3.8880    3.6600   -8.6970 ha        1 SM9      0.139000
     78 H34         3.5170    2.7100  -10.9610 ha        1 SM9      0.143000
     79 H35         1.9340    0.8120  -11.2940 ha        1 SM9      0.160000
     80 H37         6.9070    2.8320    3.9090 hc        1 SM9      0.053367
     81 H37A        6.5250    4.5790    3.5860 hc        1 SM9      0.053367
     82 H37B        5.2540    3.4750    4.2730 hc        1 SM9      0.053367
     83 H38         4.8710    3.9040    1.8090 h1        1 SM9      0.037700
     84 H38A        6.5400    3.2510    1.4430 h1        1 SM9      0.037700
     85 H51         3.4140    0.3740    2.8920 hn        1 SM9      0.415800
@<TRIPOS>BOND
     1    1    2 1   
     2    1   20 1   
     3    1   42 1   
     4    1   43 1   
     5    2    3 1   
     6    2    4 1   
     7    2   44 1   
     8    3    5 1   
     9    3   45 1   
    10    3   46 1   
    11    4   47 1   
    12    5    6 1   
    13    5   85 1   
    14    6    7 1   
    15    6   48 1   
    16    6   49 1   
    17    7   36 1   
    18    7   50 1   
    19    7   51 1   
    20    8    9 ar  
    21    8   13 ar  
    22    8   39 1   
    23    9   10 ar  
    24    9   15 1   
    25   10   11 ar  
    26   10   52 1   
    27   11   12 ar  
    28   11   53 1   
    29   12   13 ar  
    30   12   54 1   
    31   13   14 1   
    32   14   55 1   
    33   14   56 1   
    34   14   57 1   
    35   15   58 1   
    36   15   59 1   
    37   15   60 1   
    38   16   17 1   
    39   16   21 1   
    40   16   22 1   
    41   16   25 1   
    42   17   18 1   
    43   17   61 1   
    44   17   62 1   
    45   18   19 1   
    46   18   63 1   
    47   18   64 1   
    48   19   20 1   
    49   19   65 1   
    50   19   66 1   
    51   20   21 1   
    52   21   67 1   
    53   21   68 1   
    54   22   23 1   
    55   22   69 1   
    56   22   70 1   
    57   23   24 1   
    58   23   71 1   
    59   23   72 1   
    60   24   25 1   
    61   24   26 1   
    62   25   73 1   
    63   25   74 1   
    64   26   27 ar  
    65   26   31 ar  
    66   27   28 ar  
    67   27   32 ar  
    68   28   29 ar  
    69   28   35 ar  
    70   29   30 ar  
    71   30   31 ar  
    72   30   75 1   
    73   32   33 ar  
    74   32   76 1   
    75   33   34 ar  
    76   33   77 1   
    77   34   35 ar  
    78   34   78 1   
    79   35   79 1   
    80   36   38 1   
    81   37   38 1   
    82   37   80 1   
    83   37   81 1   
    84   37   82 1   
    85   38   83 1   
    86   38   84 1   
    87   39   40 1   
    88   39   41 1   
@<TRIPOS>SUBSTRUCTURE
     1 SM9         1 TEMP              0 ****  ****    0 ROOT
