@<TRIPOS>MOLECULE
SM9
   84    88     1     0     0
SMALL
bcc


@<TRIPOS>ATOM
      1 C1         -0.6900    1.8330   -1.1610 c3        1 SM9      0.136800
      2 C2         -1.4450    1.1310   -0.0160 c3        1 SM9      0.127100
      3 C3         -2.9100    0.9490   -0.4760 c3        1 SM9      0.198800
      4 O4         -0.8530   -0.0870    0.3830 oh        1 SM9     -0.585800
      5 N5         -3.7480    0.1650    0.3860 n3        1 SM9     -0.793500
      6 C6         -3.6630    0.4090    1.8000 c3        1 SM9      0.209800
      7 C7         -4.1020    1.8060    2.2610 c3        1 SM9      0.111400
      8 C8         -3.8450   -1.9440   -1.1530 ca        1 SM9     -0.371500
      9 C9         -2.9890   -2.8540   -0.4950 ca        1 SM9      0.047700
     10 C10        -2.2540   -3.7990   -1.2200 ca        1 SM9     -0.175000
     11 C11        -2.3420   -3.8490   -2.6070 ca        1 SM9     -0.061000
     12 C12        -3.1560   -2.9400   -3.2740 ca        1 SM9     -0.175000
     13 C13        -3.9000   -1.9900   -2.5620 ca        1 SM9      0.047700
     14 C14        -4.7320   -1.0570   -3.3650 c3        1 SM9     -0.097800
     15 C15        -2.8040   -2.8440    0.9800 c3        1 SM9     -0.097800
     16 C16         2.7600    2.3100    0.3940 c3        1 SM9     -0.065000
     17 C17         3.3990    3.0490   -0.7740 c3        1 SM9     -0.072400
     18 C18         2.8950    2.5440   -2.1070 c3        1 SM9     -0.078400
     19 C19         1.3710    2.5390   -2.1650 c3        1 SM9      0.166800
     20 N20         0.7590    1.8410   -1.0380 n3        1 SM9     -0.725600
     21 C21         1.2290    2.3320    0.2490 c3        1 SM9      0.171800
     22 C22         3.1630    2.9540    1.7310 c3        1 SM9     -0.099400
     23 C23         3.8800    1.8590    2.5380 c3        1 SM9      0.166800
     24 N24         4.1630    0.7250    1.6560 nh        1 SM9     -0.718300
     25 C25         3.2780    0.8490    0.4900 c3        1 SM9      0.175800
     26 C26         5.5210    0.4230    1.3430 ca        1 SM9      0.667200
     27 C27         5.8130   -0.8810    0.7420 ca        1 SM9     -0.265600
     28 C28         7.1890   -1.1770    0.4810 ca        1 SM9      0.420600
     29 N29         8.1960   -0.2830    0.8020 nb        1 SM9     -0.702000
     30 C30         7.8050    0.8570    1.3660 ca        1 SM9      0.657900
     31 N31         6.5220    1.2720    1.6470 nb        1 SM9     -0.765000
     32 C32         4.8300   -1.8520    0.4420 ca        1 SM9     -0.083000
     33 C33         5.1820   -3.0560   -0.1240 ca        1 SM9     -0.147000
     34 C34         6.5350   -3.3420   -0.4110 ca        1 SM9     -0.105000
     35 C35         7.5210   -2.4330   -0.1160 ca        1 SM9     -0.182300
     36 O36        -5.5160    1.8600    2.1380 os        1 SM9     -0.418600
     37 C37        -7.5480    3.0410    2.3370 c3        1 SM9     -0.098100
     38 C38        -6.0510    3.1280    2.5190 c3        1 SM9      0.132400
     39 S39        -4.8360   -0.8940   -0.2350 sy        1 SM9      1.510200
     40 O40        -5.4550   -1.6290    0.7980 o         1 SM9     -0.651800
     41 O41        -5.7250   -0.2230   -1.0950 o         1 SM9     -0.651800
     42 H1         -0.9210    1.2950   -2.1260 h1        1 SM9      0.039200
     43 H1A        -1.1140    2.8780   -1.2430 h1        1 SM9      0.039200
     44 H2         -1.4180    1.7660    0.9150 h1        1 SM9      0.074700
     45 H3         -3.3480    1.9840   -0.5940 h1        1 SM9      0.048700
     46 H3A        -2.9090    0.4550   -1.4930 h1        1 SM9      0.048700
     47 HO4        -0.6990   -0.6120   -0.4120 ho        1 SM9      0.411000
     48 H6         -4.3090   -0.3520    2.3320 h1        1 SM9      0.076700
     49 H6A        -2.5950    0.2640    2.1390 h1        1 SM9      0.076700
     50 H7         -3.8090    1.9420    3.3370 h1        1 SM9      0.028700
     51 H7A        -3.6280    2.6170    1.6470 h1        1 SM9      0.028700
     52 H10        -1.6030   -4.5090   -0.6880 ha        1 SM9      0.138500
     53 H11        -1.7680   -4.5990   -3.1730 ha        1 SM9      0.135000
     54 H12        -3.2200   -2.9700   -4.3720 ha        1 SM9      0.138500
     55 H14        -5.8210   -1.2320   -3.1650 hc        1 SM9      0.068367
     56 H14A       -4.5070    0.0080   -3.1030 hc        1 SM9      0.068367
     57 H14B       -4.5490   -1.1940   -4.4590 hc        1 SM9      0.068367
     58 H15        -3.7860   -2.8650    1.5190 hc        1 SM9      0.068367
     59 H15A       -2.2160   -3.7350    1.3140 hc        1 SM9      0.068367
     60 H15B       -2.2350   -1.9260    1.2840 hc        1 SM9      0.068367
     61 H17         3.1620    4.1430   -0.6800 hc        1 SM9      0.049200
     62 H17A        4.5140    2.9400   -0.7240 hc        1 SM9      0.049200
     63 H18         3.2760    3.2030   -2.9300 hc        1 SM9      0.050200
     64 H18A        3.2820    1.5090   -2.2980 hc        1 SM9      0.050200
     65 H19         1.0110    3.6100   -2.2280 h1        1 SM9      0.031200
     66 H19A        1.0450    2.0150   -3.1070 h1        1 SM9      0.031200
     67 H21         0.7880    1.6680    1.0480 h1        1 SM9      0.041700
     68 H21A        0.8780    3.3900    0.4380 h1        1 SM9      0.041700
     69 H22         3.8470    3.8220    1.5630 hc        1 SM9      0.054700
     70 H22A        2.2720    3.3240    2.2940 hc        1 SM9      0.054700
     71 H23         4.7860    2.2710    3.0510 h1        1 SM9      0.068200
     72 H23A        3.1880    1.4570    3.3320 h1        1 SM9      0.068200
     73 H25         2.4130    0.1500    0.6680 h1        1 SM9      0.069200
     74 H25A        3.7930    0.5390   -0.4580 h1        1 SM9      0.069200
     75 H30         8.5980    1.5860    1.6400 h5        1 SM9      0.051100
     76 H32         3.7720   -1.6540    0.6760 ha        1 SM9      0.149000
     77 H33         4.4140   -3.8090   -0.3530 ha        1 SM9      0.136000
     78 H34         6.7910   -4.3100   -0.8700 ha        1 SM9      0.136000
     79 H35         8.5780   -2.6580   -0.3290 ha        1 SM9      0.153000
     80 H37        -8.0110    4.0170    2.6130 hc        1 SM9      0.048367
     81 H37A       -7.7970    2.8020    1.2750 hc        1 SM9      0.048367
     82 H37B       -7.9720    2.2360    2.9840 hc        1 SM9      0.048367
     83 H38        -5.7820    3.3400    3.5880 h1        1 SM9      0.021700
     84 H38A       -5.6090    3.9300    1.8690 h1        1 SM9      0.021700
@<TRIPOS>BOND
     1    1    2 1   
     2    1   20 1   
     3    1   42 1   
     4    1   43 1   
     5    2    3 1   
     6    2    4 1   
     7    2   44 1   
     8    3    5 1   
     9    3   45 1   
    10    3   46 1   
    11    4   47 1   
    12    5    6 1   
    13    5   39 1   
    14    6    7 1   
    15    6   48 1   
    16    6   49 1   
    17    7   36 1   
    18    7   50 1   
    19    7   51 1   
    20    8    9 ar  
    21    8   13 ar  
    22    8   39 1   
    23    9   10 ar  
    24    9   15 1   
    25   10   11 ar  
    26   10   52 1   
    27   11   12 ar  
    28   11   53 1   
    29   12   13 ar  
    30   12   54 1   
    31   13   14 1   
    32   14   55 1   
    33   14   56 1   
    34   14   57 1   
    35   15   58 1   
    36   15   59 1   
    37   15   60 1   
    38   16   17 1   
    39   16   21 1   
    40   16   22 1   
    41   16   25 1   
    42   17   18 1   
    43   17   61 1   
    44   17   62 1   
    45   18   19 1   
    46   18   63 1   
    47   18   64 1   
    48   19   20 1   
    49   19   65 1   
    50   19   66 1   
    51   20   21 1   
    52   21   67 1   
    53   21   68 1   
    54   22   23 1   
    55   22   69 1   
    56   22   70 1   
    57   23   24 1   
    58   23   71 1   
    59   23   72 1   
    60   24   25 1   
    61   24   26 1   
    62   25   73 1   
    63   25   74 1   
    64   26   27 ar  
    65   26   31 ar  
    66   27   28 ar  
    67   27   32 ar  
    68   28   29 ar  
    69   28   35 ar  
    70   29   30 ar  
    71   30   31 ar  
    72   30   75 1   
    73   32   33 ar  
    74   32   76 1   
    75   33   34 ar  
    76   33   77 1   
    77   34   35 ar  
    78   34   78 1   
    79   35   79 1   
    80   36   38 1   
    81   37   38 1   
    82   37   80 1   
    83   37   81 1   
    84   37   82 1   
    85   38   83 1   
    86   38   84 1   
    87   39   40 2   
    88   39   41 2   
@<TRIPOS>SUBSTRUCTURE
     1 SM9         1 TEMP              0 ****  ****    0 ROOT
