@<TRIPOS>MOLECULE
SM9
   85    88     1     0     0
SMALL
bcc


@<TRIPOS>ATOM
      1 C1         -0.0060    0.1160   -0.0380 c3        1 SM9      0.139800
      2 C2          1.5160   -0.0880    0.1500 c3        1 SM9      0.141100
      3 C3          1.8430    0.1220    1.6390 c3        1 SM9      0.116800
      4 O4          1.9230   -1.3990   -0.2070 oh        1 SM9     -0.637800
      5 N5          3.1970   -0.2190    2.0870 n7        1 SM9     -0.899200
      6 C6          4.2640   -0.0280    1.1050 c3        1 SM9      0.118800
      7 C7          4.7130    1.4250    0.9150 c3        1 SM9      0.105400
      8 C8          4.4420   -2.9720    2.4550 ca        1 SM9     -0.577500
      9 C9          5.7900   -2.6920    2.8460 ca        1 SM9      0.097200
     10 C10         6.8570   -3.3690    2.2640 ca        1 SM9     -0.172500
     11 C11         6.6380   -4.3320    1.2770 ca        1 SM9      0.020000
     12 C12         5.3380   -4.6180    0.8690 ca        1 SM9     -0.172500
     13 C13         4.2490   -3.9570    1.4380 ca        1 SM9      0.097200
     14 C14         2.8930   -4.3230    0.9640 c3        1 SM9     -0.122300
     15 C15         6.0990   -1.6840    3.8920 c3        1 SM9     -0.122300
     16 C16        -0.5540    1.2060   -3.6370 c3        1 SM9     -0.066000
     17 C17        -1.8990    0.5310   -3.8700 c3        1 SM9     -0.073400
     18 C18        -2.0210   -0.7770   -3.1200 c3        1 SM9     -0.078400
     19 C19        -1.6730   -0.6200   -1.6420 c3        1 SM9      0.171800
     20 N20        -0.3850    0.0320   -1.4370 n3        1 SM9     -0.755600
     21 C21        -0.2860    1.3120   -2.1270 c3        1 SM9      0.181800
     22 C22        -0.5340    2.6100   -4.2640 c3        1 SM9     -0.100400
     23 C23         0.6000    2.6050   -5.3010 c3        1 SM9      0.165800
     24 N24         1.0720    1.2270   -5.4890 nh        1 SM9     -0.720300
     25 C25         0.5950    0.4420   -4.3490 c3        1 SM9      0.178800
     26 C26         0.8630    0.7110   -6.8070 ca        1 SM9      0.656200
     27 C27         1.6360    1.2980   -7.9010 ca        1 SM9     -0.262600
     28 C28         1.4460    0.7290   -9.2010 ca        1 SM9      0.419600
     29 N29         0.5830   -0.3350   -9.4050 nb        1 SM9     -0.687000
     30 C30        -0.0510   -0.7890   -8.3290 ca        1 SM9      0.653900
     31 N31         0.0290   -0.3210   -7.0350 nb        1 SM9     -0.764000
     32 C32         2.5590    2.3580   -7.7410 ca        1 SM9     -0.092000
     33 C33         3.2480    2.8570   -8.8220 ca        1 SM9     -0.138000
     34 C34         3.0470    2.3160  -10.1110 ca        1 SM9     -0.102000
     35 C35         2.1720    1.2750  -10.3050 ca        1 SM9     -0.174300
     36 O36         5.1710    1.8670    2.1870 os        1 SM9     -0.456600
     37 C37         6.1240    3.5370    3.5580 c3        1 SM9     -0.101100
     38 C38         5.6930    3.2010    2.1510 c3        1 SM9      0.133400
     39 S39         3.2220   -2.2630    3.1590 s4        1 SM9      1.647300
     40 O40         3.4470   -1.6570    4.3640 o         1 SM9     -0.444900
     41 O41         1.9530   -2.6480    2.8490 o         1 SM9     -0.444900
     42 H1         -0.5310   -0.6920    0.5460 h1        1 SM9      0.054200
     43 H1A        -0.2810    1.1090    0.4220 h1        1 SM9      0.054200
     44 H2          2.0910    0.6530   -0.4770 h1        1 SM9      0.050700
     45 H3          1.6230    1.2060    1.8650 h1        1 SM9      0.080200
     46 H3A         1.1350   -0.5160    2.2480 h1        1 SM9      0.080200
     47 HO4         1.4950   -1.6190   -1.0460 ho        1 SM9      0.447000
     48 H6          3.9560   -0.4480    0.1060 h1        1 SM9      0.087700
     49 H6A         5.1540   -0.6190    1.4740 h1        1 SM9      0.087700
     50 H7          5.5460    1.4620    0.1650 h1        1 SM9      0.051700
     51 H7A         3.8660    2.0740    0.5660 h1        1 SM9      0.051700
     52 H10         7.8880   -3.1460    2.5860 ha        1 SM9      0.171500
     53 H11         7.4930   -4.8640    0.8240 ha        1 SM9      0.170000
     54 H12         5.1660   -5.3790    0.0880 ha        1 SM9      0.171500
     55 H14         2.2900   -4.7790    1.7920 hc        1 SM9      0.088533
     56 H14A        2.3380   -3.4240    0.5850 hc        1 SM9      0.088533
     57 H14B        2.9460   -5.0690    0.1300 hc        1 SM9      0.088533
     58 H15         5.6200   -0.6950    3.6680 hc        1 SM9      0.088533
     59 H15A        7.2020   -1.5150    3.9730 hc        1 SM9      0.088533
     60 H15B        5.7320   -2.0300    4.8950 hc        1 SM9      0.088533
     61 H17        -2.7150    1.2270   -3.5360 hc        1 SM9      0.058700
     62 H17A       -2.0370    0.3460   -4.9690 hc        1 SM9      0.058700
     63 H18        -1.3530   -1.5480   -3.5860 hc        1 SM9      0.056700
     64 H18A       -3.0740   -1.1560   -3.1930 hc        1 SM9      0.056700
     65 H19        -2.5050   -0.0500   -1.1330 h1        1 SM9      0.036200
     66 H19A       -1.6200   -1.6430   -1.1720 h1        1 SM9      0.036200
     67 H21        -1.0140    2.0630   -1.6960 h1        1 SM9      0.033700
     68 H21A        0.7540    1.7130   -1.9660 h1        1 SM9      0.033700
     69 H22        -0.3490    3.4020   -3.4980 hc        1 SM9      0.058200
     70 H22A       -1.5110    2.8370   -4.7590 hc        1 SM9      0.058200
     71 H23         1.4750    3.1960   -4.9120 h1        1 SM9      0.060200
     72 H23A        0.2670    3.0710   -6.2660 h1        1 SM9      0.060200
     73 H25         0.2740   -0.5960   -4.6210 h1        1 SM9      0.066700
     74 H25A        1.4790    0.3550   -3.6550 h1        1 SM9      0.066700
     75 H30        -0.7460   -1.6440   -8.4710 h5        1 SM9      0.055100
     76 H32         2.7380    2.7840   -6.7420 ha        1 SM9      0.141000
     77 H33         3.9640    3.6830   -8.6940 ha        1 SM9      0.139000
     78 H34         3.6050    2.7370  -10.9620 ha        1 SM9      0.143000
     79 H35         2.0180    0.8450  -11.3080 ha        1 SM9      0.160000
     80 H37         6.5390    4.5740    3.5750 hc        1 SM9      0.053367
     81 H37A        6.9100    2.8260    3.9080 hc        1 SM9      0.053367
     82 H37B        5.2580    3.4800    4.2600 hc        1 SM9      0.053367
     83 H38         4.8910    3.9000    1.7920 h1        1 SM9      0.037700
     84 H38A        6.5590    3.2370    1.4380 h1        1 SM9      0.037700
     85 H51         3.4100    0.3800    2.8830 hn        1 SM9      0.415800
@<TRIPOS>BOND
     1    1    2 1   
     2    1   20 1   
     3    1   42 1   
     4    1   43 1   
     5    2    3 1   
     6    2    4 1   
     7    2   44 1   
     8    3    5 1   
     9    3   45 1   
    10    3   46 1   
    11    4   47 1   
    12    5    6 1   
    13    5   85 1   
    14    6    7 1   
    15    6   48 1   
    16    6   49 1   
    17    7   36 1   
    18    7   50 1   
    19    7   51 1   
    20    8    9 ar  
    21    8   13 ar  
    22    8   39 1   
    23    9   10 ar  
    24    9   15 1   
    25   10   11 ar  
    26   10   52 1   
    27   11   12 ar  
    28   11   53 1   
    29   12   13 ar  
    30   12   54 1   
    31   13   14 1   
    32   14   55 1   
    33   14   56 1   
    34   14   57 1   
    35   15   58 1   
    36   15   59 1   
    37   15   60 1   
    38   16   17 1   
    39   16   21 1   
    40   16   22 1   
    41   16   25 1   
    42   17   18 1   
    43   17   61 1   
    44   17   62 1   
    45   18   19 1   
    46   18   63 1   
    47   18   64 1   
    48   19   20 1   
    49   19   65 1   
    50   19   66 1   
    51   20   21 1   
    52   21   67 1   
    53   21   68 1   
    54   22   23 1   
    55   22   69 1   
    56   22   70 1   
    57   23   24 1   
    58   23   71 1   
    59   23   72 1   
    60   24   25 1   
    61   24   26 1   
    62   25   73 1   
    63   25   74 1   
    64   26   27 ar  
    65   26   31 ar  
    66   27   28 ar  
    67   27   32 ar  
    68   28   29 ar  
    69   28   35 ar  
    70   29   30 ar  
    71   30   31 ar  
    72   30   75 1   
    73   32   33 ar  
    74   32   76 1   
    75   33   34 ar  
    76   33   77 1   
    77   34   35 ar  
    78   34   78 1   
    79   35   79 1   
    80   36   38 1   
    81   37   38 1   
    82   37   80 1   
    83   37   81 1   
    84   37   82 1   
    85   38   83 1   
    86   38   84 1   
    87   39   40 1   
    88   39   41 1   
@<TRIPOS>SUBSTRUCTURE
     1 SM9         1 TEMP              0 ****  ****    0 ROOT
