@<TRIPOS>MOLECULE
SM9
   84    81     1     0     0
SMALL
bcc


@<TRIPOS>ATOM
      1 C1         -1.3320   -0.8480    1.3710 c3        1 SM9     -0.106000
      2 C2          0.2110   -0.8990    1.3740 c3        1 SM9      0.022000
      3 C3          0.7190   -0.9320    2.8320 c3        1 SM9     -0.003000
      4 O4          0.6400   -2.0440    0.7040 oh        1 SM9     -0.327000
      5 N5          2.2140   -1.0480    2.8440 n3        1 SM9     -0.815000
      6 C6          3.0050   -0.2020    1.9930 c3        1 SM9     -0.030000
      7 C7          2.9930    1.2750    2.5560 c3        1 SM9     -0.039000
      8 C8          3.4740   -3.5100    3.2970 c1        1 SM9     -0.820000
      9 C9          4.6860   -3.5870    2.5530 c1        1 SM9      0.075000
     10 C10         5.1020   -4.8060    2.0340 c1        1 SM9     -0.171000
     11 C11         4.3330   -5.9540    2.2410 c1        1 SM9     -0.120750
     12 C12         3.1390   -5.8760    2.9740 c1        1 SM9     -0.120750
     13 C13         2.7150   -4.6410    3.5010 c1        1 SM9      0.055000
     14 C14         1.5810   -4.6040    4.5150 c3        1 SM9     -0.206000
     15 C15         5.6400   -2.3680    2.5090 c3        1 SM9     -0.240000
     16 C16        -3.6230    0.3740   -1.3830 c3        1 SM9     -0.066000
     17 C17        -3.9770   -1.0070   -1.9890 c3        1 SM9     -0.150000
     18 C18        -2.8170   -1.9410   -1.9800 c3        1 SM9     -0.157000
     19 C19        -2.1460   -2.0570   -0.5590 c3        1 SM9     -0.066000
     20 N20        -1.8000   -0.6810    0.0430 n3        1 SM9     -0.267000
     21 C21        -2.9560    0.2590    0.0360 c3        1 SM9     -0.059000
     22 C22        -4.7420    1.1360   -1.3060 c3        1 SM9     -0.179000
     23 C23        -4.8230    1.9580   -2.6950 c3        1 SM9     -0.070000
     24 N24        -3.5730    2.2740   -3.0180 n3        1 SM9     -0.209000
     25 C25        -2.6790    1.1470   -2.3450 c3        1 SM9     -0.060000
     26 C26        -3.4230    2.2050   -4.4420 c2        1 SM9      0.144000
     27 C27        -3.5630    3.5170   -4.8610 c2        1 SM9     -0.134000
     28 C28        -3.3440    3.8390   -6.1700 c1        1 SM9      0.027000
     29 N29        -2.9860    2.8660   -7.0680 n1        1 SM9     -0.173000
     30 C30        -2.8480    1.5680   -6.6540 c1        1 SM9     -0.006000
     31 N31        -3.0680    1.2390   -5.3350 n1        1 SM9     -0.237000
     32 C32        -3.8860    4.5470   -3.9100 c1        1 SM9     -0.084000
     33 C33        -3.9770    5.8650   -4.3250 c1        1 SM9     -0.120750
     34 C34        -3.7520    6.1930   -5.6650 c1        1 SM9     -0.120750
     35 C35        -3.4350    5.1840   -6.5920 c1        1 SM9     -0.115000
     36 O36         4.3220    1.7430    2.6860 os        1 SM9     -0.282000
     37 C37         5.9280    3.5390    2.5780 c3        1 SM9     -0.215000
     38 C38         4.4530    3.1600    2.5400 c3        1 SM9     -0.018000
     39 S39         2.9380   -1.9440    3.9820 s6        1 SM9      2.843000
     40 O40         4.0520   -1.2250    4.5920 o         1 SM9     -0.937500
     41 O41         2.0690   -2.1410    5.1250 o         1 SM9     -0.937500
     42 H1         -1.6400   -0.0810    1.9310 h1        1 SM9      0.086000
     43 H1A        -1.6880   -1.6880    1.7400 h1        1 SM9      0.086000
     44 H2          0.5710   -0.0890    0.9140 h1        1 SM9      0.086000
     45 H3          0.4620   -0.1320    3.2760 h1        1 SM9      0.088000
     46 H3A         0.3010   -1.7560    3.3280 h1        1 SM9      0.088000
     47 HO4         1.0360   -1.7980   -0.1240 ho        1 SM9      0.218000
     48 H6          3.9000   -0.5250    1.9680 h1        1 SM9      0.117500
     49 H6A         2.6370   -0.2090    1.1020 h1        1 SM9      0.117500
     50 H7          2.4920    1.8680    1.9240 h1        1 SM9      0.071000
     51 H7A         2.5660    1.2870    3.4110 h1        1 SM9      0.071000
     52 H10         5.9280   -4.8620    1.5270 ha        1 SM9      0.139000
     53 H11         4.6410   -6.8520    1.8590 ha        1 SM9      0.136500
     54 H12         2.5880   -6.6980    3.1230 ha        1 SM9      0.136500
     55 H14         0.9110   -4.0040    4.2170 hc        1 SM9      0.102333
     56 H14A        1.2230   -5.4430    4.6020 hc        1 SM9      0.102333
     57 H14B        1.9170   -4.3100    5.3610 hc        1 SM9      0.102333
     58 H15         5.7950   -2.0410    3.4300 hc        1 SM9      0.112667
     59 H15A        5.2130   -1.6150    1.9440 hc        1 SM9      0.112667
     60 H15B        6.5200   -2.6430    2.0960 hc        1 SM9      0.112667
     61 H17        -4.7220   -1.4110   -1.4640 hc        1 SM9      0.090000
     62 H17A       -4.2700   -0.8830   -2.9030 hc        1 SM9      0.090000
     63 H18        -2.1290   -1.6100   -2.6360 hc        1 SM9      0.091500
     64 H18A       -3.1370   -2.8700   -2.2720 hc        1 SM9      0.091500
     65 H19        -1.2890   -2.6060   -0.6450 h1        1 SM9      0.072500
     66 H19A       -2.7960   -2.5480    0.0800 h1        1 SM9      0.072500
     67 H21        -3.6410   -0.0630    0.6910 h1        1 SM9      0.074000
     68 H21A       -2.6440    1.1470    0.3130 h1        1 SM9      0.074000
     69 H22        -5.5110    0.5780   -1.2120 hc        1 SM9      0.094500
     70 H22A       -4.6730    1.8050   -0.4890 hc        1 SM9      0.094500
     71 H23        -5.3440    2.7560   -2.5770 h1        1 SM9      0.097000
     72 H23A       -5.2290    1.3860   -3.4120 h1        1 SM9      0.097000
     73 H25        -2.3370    0.5580   -3.0120 h1        1 SM9      0.114500
     74 H25A       -1.9610    1.5430   -1.8560 h1        1 SM9      0.114500
     75 H30        -2.5990    0.8850   -7.2850 ha        1 SM9      0.189000
     76 H32        -4.0440    4.3230   -2.9970 ha        1 SM9      0.146000
     77 H33        -4.1980    6.5670   -3.6790 ha        1 SM9      0.136500
     78 H34        -3.8180    7.1440   -5.9650 ha        1 SM9      0.136500
     79 H35        -3.2730    5.4200   -7.5590 ha        1 SM9      0.154000
     80 H37         6.0180    4.4980    2.4720 hc        1 SM9      0.084667
     81 H37A        6.3870    3.0960    1.8710 hc        1 SM9      0.084667
     82 H37B        6.3070    3.2710    3.4220 hc        1 SM9      0.084667
     83 H38         4.0600    3.4450    1.6680 h1        1 SM9      0.065000
     84 H38A        4.0060    3.5850    3.2350 h1        1 SM9      0.065000
@<TRIPOS>BOND
     1    1    2 1   
     2    1   20 1   
     3    1   42 1   
     4    1   43 1   
     5    2    3 1   
     6    2    4 1   
     7    2   44 1   
     8    3    5 1   
     9    3   45 1   
    10    3   46 1   
    11    4   47 1   
    12    5    6 1   
    13    5   39 1   
    14    6    7 1   
    15    6   48 1   
    16    6   49 1   
    17    7   36 1   
    18    7   50 1   
    19    7   51 1   
    20    8   13 1   
    21    8   39 1   
    22    9   10 1   
    23    9   15 1   
    24   10   52 1   
    25   11   12 1   
    26   11   53 1   
    27   12   54 1   
    28   13   14 1   
    29   14   55 1   
    30   14   56 1   
    31   14   57 1   
    32   15   58 1   
    33   15   59 1   
    34   15   60 1   
    35   16   17 1   
    36   16   21 1   
    37   16   22 1   
    38   16   25 1   
    39   17   18 1   
    40   17   61 1   
    41   17   62 1   
    42   18   19 1   
    43   18   63 1   
    44   18   64 1   
    45   19   20 1   
    46   19   65 1   
    47   19   66 1   
    48   20   21 1   
    49   21   67 1   
    50   21   68 1   
    51   22   23 1   
    52   22   69 1   
    53   22   70 1   
    54   23   24 1   
    55   23   71 1   
    56   23   72 1   
    57   24   25 1   
    58   24   26 1   
    59   25   73 1   
    60   25   74 1   
    61   26   27 1   
    62   26   31 1   
    63   27   28 1   
    64   27   32 1   
    65   28   35 1   
    66   29   30 1   
    67   30   75 1   
    68   32   76 1   
    69   33   34 1   
    70   33   77 1   
    71   34   78 1   
    72   35   79 1   
    73   36   38 1   
    74   37   38 1   
    75   37   80 1   
    76   37   81 1   
    77   37   82 1   
    78   38   83 1   
    79   38   84 1   
    80   39   40 1   
    81   39   41 1   
@<TRIPOS>SUBSTRUCTURE
     1 SM9         1 TEMP              0 ****  ****    0 ROOT
