@<TRIPOS>MOLECULE
SM9
   85    88     1     0     0
SMALL
bcc


@<TRIPOS>ATOM
      1 C1         -0.0320    0.1100   -0.0730 c3        1 SM9      0.139800
      2 C2          1.4870   -0.0920    0.1380 c3        1 SM9      0.141100
      3 C3          1.7900    0.1120    1.6330 c3        1 SM9      0.116800
      4 O4          1.9010   -1.4020   -0.2170 oh        1 SM9     -0.637800
      5 N5          3.1370   -0.2290    2.1010 n3        1 SM9     -0.899200
      6 C6          4.2200   -0.0330    1.1360 c3        1 SM9      0.118800
      7 C7          4.6700    1.4220    0.9600 c3        1 SM9      0.105400
      8 C8          4.3800   -2.9810    2.4770 ca        1 SM9     -0.577500
      9 C9          5.7210   -2.7010    2.8910 ca        1 SM9      0.097200
     10 C10         6.7980   -3.3750    2.3230 ca        1 SM9     -0.172500
     11 C11         6.5960   -4.3350    1.3290 ca        1 SM9      0.020000
     12 C12         5.3030   -4.6200    0.9000 ca        1 SM9     -0.172500
     13 C13         4.2040   -3.9620    1.4540 ca        1 SM9      0.097200
     14 C14         2.8560   -4.3290    0.9570 c3        1 SM9     -0.122300
     15 C15         6.0120   -1.6970    3.9450 c3        1 SM9     -0.122300
     16 C16        -0.5250    1.2100   -3.6770 c3        1 SM9     -0.066000
     17 C17        -1.8650    0.5350   -3.9340 c3        1 SM9     -0.073400
     18 C18        -1.9980   -0.7760   -3.1900 c3        1 SM9     -0.078400
     19 C19        -1.6730   -0.6230   -1.7060 c3        1 SM9      0.171800
     20 N20        -0.3890    0.0300   -1.4780 n3        1 SM9     -0.755600
     21 C21        -0.2810    1.3120   -2.1630 c3        1 SM9      0.181800
     22 C22        -0.4960    2.6160   -4.3000 c3        1 SM9     -0.100400
     23 C23         0.6540    2.6150   -5.3190 c3        1 SM9      0.165800
     24 N24         1.1310    1.2370   -5.5030 nh        1 SM9     -0.720300
     25 C25         0.6370    0.4490   -4.3730 c3        1 SM9      0.178800
     26 C26         0.9430    0.7250   -6.8250 ca        1 SM9      0.656200
     27 C27         1.7330    1.3160   -7.9050 ca        1 SM9     -0.262600
     28 C28         1.5640    0.7510   -9.2100 ca        1 SM9      0.419600
     29 N29         0.7060   -0.3130   -9.4310 nb        1 SM9     -0.687000
     30 C30         0.0550   -0.7720   -8.3670 ca        1 SM9      0.653900
     31 N31         0.1140   -0.3070   -7.0700 nb        1 SM9     -0.764000
     32 C32         2.6520    2.3770   -7.7280 ca        1 SM9     -0.092000
     33 C33         3.3580    2.8800   -8.7970 ca        1 SM9     -0.138000
     34 C34         3.1780    2.3410  -10.0900 ca        1 SM9     -0.102000
     35 C35         2.3080    1.3000  -10.3010 ca        1 SM9     -0.174300
     36 O36         5.1070    1.8600    2.2410 os        1 SM9     -0.456600
     37 C37         6.0370    3.5250    3.6330 c3        1 SM9     -0.101100
     38 C38         5.6280    3.1940    2.2180 c3        1 SM9      0.133400
     39 S39         3.1480   -2.2770    3.1660 s4        1 SM9      1.647300
     40 O40         3.3540   -1.6750    4.3750 o         1 SM9     -0.444900
     41 O41         1.8850   -2.6620    2.8340 o         1 SM9     -0.444900
     42 H1         -0.3150    1.1020    0.3860 h1        1 SM9      0.054200
     43 H1A        -0.5660   -0.7000    0.5000 h1        1 SM9      0.054200
     44 H2          2.0710    0.6510   -0.4770 h1        1 SM9      0.050700
     45 H3          1.5660    1.1950    1.8590 h1        1 SM9      0.080200
     46 H3A         1.0740   -0.5280    2.2280 h1        1 SM9      0.080200
     47 HO4         1.4860   -1.6200   -1.0640 ho        1 SM9      0.447000
     48 H6          5.1040   -0.6240    1.5170 h1        1 SM9      0.087700
     49 H6A         3.9280   -0.4480    0.1310 h1        1 SM9      0.087700
     50 H7          3.8280    2.0710    0.6000 h1        1 SM9      0.051700
     51 H7A         5.5140    1.4620    0.2230 h1        1 SM9      0.051700
     52 H10         7.8240   -3.1510    2.6620 ha        1 SM9      0.171500
     53 H11         7.4580   -4.8640    0.8870 ha        1 SM9      0.170000
     54 H12         5.1430   -5.3780    0.1140 ha        1 SM9      0.171500
     55 H14         2.2410   -4.7890    1.7740 hc        1 SM9      0.088533
     56 H14A        2.3060   -3.4290    0.5730 hc        1 SM9      0.088533
     57 H14B        2.9230   -5.0710    0.1220 hc        1 SM9      0.088533
     58 H15         5.5360   -0.7080    3.7170 hc        1 SM9      0.088533
     59 H15A        5.6310   -2.0470    4.9410 hc        1 SM9      0.088533
     60 H15B        7.1150   -1.5270    4.0440 hc        1 SM9      0.088533
     61 H17        -2.6870    1.2280   -3.6110 hc        1 SM9      0.058700
     62 H17A       -1.9850    0.3520   -5.0350 hc        1 SM9      0.058700
     63 H18        -3.0490   -1.1550   -3.2800 hc        1 SM9      0.056700
     64 H18A       -1.3220   -1.5450   -3.6470 hc        1 SM9      0.056700
     65 H19        -1.6270   -1.6470   -1.2380 h1        1 SM9      0.036200
     66 H19A       -2.5130   -0.0540   -1.2080 h1        1 SM9      0.036200
     67 H21        -1.0160    2.0610   -1.7420 h1        1 SM9      0.033700
     68 H21A        0.7560    1.7140   -1.9840 h1        1 SM9      0.033700
     69 H22        -0.3240    3.4060   -3.5290 hc        1 SM9      0.058200
     70 H22A       -1.4660    2.8430   -4.8100 hc        1 SM9      0.058200
     71 H23         0.3360    3.0830   -6.2880 h1        1 SM9      0.060200
     72 H23A        1.5230    3.2050   -4.9150 h1        1 SM9      0.060200
     73 H25         1.5100    0.3610   -3.6660 h1        1 SM9      0.066700
     74 H25A        0.3200   -0.5880   -4.6530 h1        1 SM9      0.066700
     75 H30        -0.6360   -1.6270   -8.5220 h5        1 SM9      0.055100
     76 H32         2.8150    2.7990   -6.7240 ha        1 SM9      0.141000
     77 H33         4.0710    3.7050   -8.6540 ha        1 SM9      0.139000
     78 H34         3.7500    2.7650  -10.9310 ha        1 SM9      0.143000
     79 H35         2.1700    0.8730  -11.3070 ha        1 SM9      0.160000
     80 H37         6.4490    4.5620    3.6600 hc        1 SM9      0.053367
     81 H37A        6.8170    2.8130    3.9930 hc        1 SM9      0.053367
     82 H37B        5.1600    3.4640    4.3200 hc        1 SM9      0.053367
     83 H38         4.8310    3.8940    1.8490 h1        1 SM9      0.037700
     84 H38A        6.5050    3.2330    1.5190 h1        1 SM9      0.037700
     85 H51         3.3370    0.3680    2.9020 hn        1 SM9      0.415800
@<TRIPOS>BOND
     1    1    2 1   
     2    1   20 1   
     3    1   42 1   
     4    1   43 1   
     5    2    3 1   
     6    2    4 1   
     7    2   44 1   
     8    3    5 1   
     9    3   45 1   
    10    3   46 1   
    11    4   47 1   
    12    5    6 1   
    13    5   85 1   
    14    6    7 1   
    15    6   48 1   
    16    6   49 1   
    17    7   36 1   
    18    7   50 1   
    19    7   51 1   
    20    8    9 ar  
    21    8   13 ar  
    22    8   39 1   
    23    9   10 ar  
    24    9   15 1   
    25   10   11 ar  
    26   10   52 1   
    27   11   12 ar  
    28   11   53 1   
    29   12   13 ar  
    30   12   54 1   
    31   13   14 1   
    32   14   55 1   
    33   14   56 1   
    34   14   57 1   
    35   15   58 1   
    36   15   59 1   
    37   15   60 1   
    38   16   17 1   
    39   16   21 1   
    40   16   22 1   
    41   16   25 1   
    42   17   18 1   
    43   17   61 1   
    44   17   62 1   
    45   18   19 1   
    46   18   63 1   
    47   18   64 1   
    48   19   20 1   
    49   19   65 1   
    50   19   66 1   
    51   20   21 1   
    52   21   67 1   
    53   21   68 1   
    54   22   23 1   
    55   22   69 1   
    56   22   70 1   
    57   23   24 1   
    58   23   71 1   
    59   23   72 1   
    60   24   25 1   
    61   24   26 1   
    62   25   73 1   
    63   25   74 1   
    64   26   27 ar  
    65   26   31 ar  
    66   27   28 ar  
    67   27   32 ar  
    68   28   29 ar  
    69   28   35 ar  
    70   29   30 ar  
    71   30   31 ar  
    72   30   75 1   
    73   32   33 ar  
    74   32   76 1   
    75   33   34 ar  
    76   33   77 1   
    77   34   35 ar  
    78   34   78 1   
    79   35   79 1   
    80   36   38 1   
    81   37   38 1   
    82   37   80 1   
    83   37   81 1   
    84   37   82 1   
    85   38   83 1   
    86   38   84 1   
    87   39   40 1   
    88   39   41 1   
@<TRIPOS>SUBSTRUCTURE
     1 SM9         1 TEMP              0 ****  ****    0 ROOT
