@<TRIPOS>MOLECULE
SMA
   79    80     1     0     0
SMALL
bcc


@<TRIPOS>ATOM
      1 C2         -1.9600    0.3670    0.6700 cc        1 SMA      0.117900
      2 C3         -2.5020   -0.3270    1.6990 cd        1 SMA     -0.256400
      3 C3M        -1.6630   -1.1410    2.6090 c3        1 SMA     -0.044900
      4 C4         -3.9520   -0.2940    1.9580 c         1 SMA      0.599900
      5 C4A        -4.7200    0.5350    1.0170 ca        1 SMA     -0.244600
      6 C5         -6.1270    0.6780    1.1110 ca        1 SMA      0.208100
      7 C5M        -8.1310    0.1040    2.2650 c3        1 SMA      0.106700
      8 C6         -6.8400    1.4710    0.2070 ca        1 SMA     -0.287000
      9 C7         -6.1510    2.1350   -0.8140 ca        1 SMA      0.127100
     10 C7M        -8.1510    3.1390   -1.6370 c3        1 SMA      0.120700
     11 C8         -4.7550    2.0200   -0.9420 ca        1 SMA      0.037100
     12 C8A        -4.0570    1.2150   -0.0160 ca        1 SMA      0.173100
     13 C9         -0.5120    0.4260    0.3090 c3        1 SMA     -0.040200
     14 C10        -0.1440   -0.6840   -0.6590 c3        1 SMA     -0.077400
     15 C11         1.3210   -0.5980   -1.0710 c3        1 SMA     -0.062700
     16 C12         1.8280   -1.9740   -1.5500 c3        1 SMA      0.146100
     17 C13         3.3440   -1.9650   -1.8210 c3        1 SMA     -0.083700
     18 C14         4.1630   -2.3680   -0.5830 c3        1 SMA      0.175300
     19 C15         5.4440   -1.5940   -0.5210 c2        1 SMA     -0.190200
     20 C16         5.5460   -0.4040    0.0870 ce        1 SMA     -0.132000
     21 C17         6.7780    0.3540    0.1360 ce        1 SMA     -0.136000
     22 C18         6.8710    1.5470    0.7490 cf        1 SMA     -0.115000
     23 C19         8.0830    2.3490    0.8280 cf        1 SMA     -0.092200
     24 C20         8.0610    3.5330    1.4730 c2        1 SMA     -0.153200
     25 C21         9.2160    4.4370    1.6230 c3        1 SMA     -0.064900
     26 C22         1.4930    0.4430   -2.1600 c3        1 SMA     -0.097100
     27 C24         3.6830   -2.8150   -3.0270 c3        1 SMA     -0.082100
     28 C26         9.3040    1.8090    0.1790 c3        1 SMA     -0.059900
     29 O1         -2.6910    1.1540   -0.2060 os        1 SMA     -0.198200
     30 O4         -4.4740   -0.9170    2.8930 o         1 SMA     -0.528100
     31 O5         -6.7170   -0.0110    2.1430 os        1 SMA     -0.279900
     32 O7         -6.7470    2.9400   -1.7660 os        1 SMA     -0.340900
     33 O8         -4.0230    2.6370   -1.9300 oh        1 SMA     -0.477100
     34 O12         1.4790   -2.9010   -0.5180 os        1 SMA     -0.427600
     35 O14         4.4480   -3.7700   -0.6870 os        1 SMA     -0.420600
     36 H1         -1.0270   -0.4760    3.2480 hc        1 SMA      0.052367
     37 H2         -2.3050   -1.7640    3.2800 hc        1 SMA      0.052367
     38 H3         -0.9890   -1.8180    2.0270 hc        1 SMA      0.052367
     39 H4         -8.3600   -0.5360    3.1550 h1        1 SMA      0.047700
     40 H5         -8.4280    1.1640    2.4550 h1        1 SMA      0.047700
     41 H6         -8.6410   -0.2910    1.3530 h1        1 SMA      0.047700
     42 H7         -7.9300    1.5740    0.2910 ha        1 SMA      0.150000
     43 H8         -8.6960    2.1710   -1.7550 h1        1 SMA      0.049367
     44 H9         -8.3940    3.6120   -0.6540 h1        1 SMA      0.049367
     45 H10        -8.3910    3.8330   -2.4820 h1        1 SMA      0.049367
     46 H11        -0.2870    1.4270   -0.1480 hc        1 SMA      0.069200
     47 H12         0.0910    0.3300    1.2520 hc        1 SMA      0.069200
     48 H13        -0.3450   -1.6740   -0.1700 hc        1 SMA      0.062200
     49 H14        -0.7950   -0.6170   -1.5690 hc        1 SMA      0.062200
     50 H15         1.9340   -0.3060   -0.1730 hc        1 SMA      0.054700
     51 H16         1.2870   -2.2470   -2.5010 h1        1 SMA      0.044700
     52 H17         3.6400   -0.9040   -2.0610 hc        1 SMA      0.062700
     53 H18         3.5480   -2.1860    0.3460 h1        1 SMA      0.064700
     54 H19         6.3010   -2.0730   -1.0210 ha        1 SMA      0.135000
     55 H21         4.6700    0.0500    0.5830 ha        1 SMA      0.122000
     56 H22         7.6510   -0.1020   -0.3630 ha        1 SMA      0.126000
     57 H23         5.9830    1.9830    1.2420 ha        1 SMA      0.121000
     58 H25         7.1240    3.8840    1.9370 ha        1 SMA      0.120000
     59 H26         8.9310    5.3510    2.2010 hc        1 SMA      0.043367
     60 H27        10.0520    3.9270    2.1670 hc        1 SMA      0.043367
     61 H28         9.6000    4.7610    0.6240 hc        1 SMA      0.043367
     62 H29         1.1500    0.0430   -3.1450 hc        1 SMA      0.039033
     63 H30         0.8870    1.3510   -1.9230 hc        1 SMA      0.039033
     64 H31         2.5580    0.7600   -2.2570 hc        1 SMA      0.039033
     65 H32         0.8810   -4.7710   -0.0900 h1        1 SMA      0.038700
     66 H33         0.6810   -4.3090   -1.8560 h1        1 SMA      0.038700
     67 H34         2.3530   -4.6730   -1.1880 h1        1 SMA      0.038700
     68 H35         3.3270   -3.8640   -2.8860 hc        1 SMA      0.039367
     69 H36         3.2060   -2.3930   -3.9440 hc        1 SMA      0.039367
     70 H37         4.7900   -2.8400   -3.1730 hc        1 SMA      0.039367
     71 H38         5.8640   -3.8160    0.8530 h1        1 SMA      0.034033
     72 H39         4.1490   -4.2470    1.3270 h1        1 SMA      0.034033
     73 H40         5.1260   -5.3990    0.2790 h1        1 SMA      0.034033
     74 H41         9.1230    1.6540   -0.9140 hc        1 SMA      0.043367
     75 H42        10.1740    2.5000    0.2950 hc        1 SMA      0.043367
     76 H43         9.5770    0.8230    0.6340 hc        1 SMA      0.043367
     77 H44        -4.6280    3.2100   -2.4260 ho        1 SMA      0.431000
     78 C23         1.3460   -4.2420   -0.9600 c3        1 SMA      0.111700
     79 C25         4.9250   -4.3270    0.5260 c3        1 SMA      0.114700
@<TRIPOS>BOND
     1    1    2 2   
     2    1   13 1   
     3    1   29 1   
     4    2    3 1   
     5    2    4 1   
     6    3   36 1   
     7    3   37 1   
     8    3   38 1   
     9    4    5 1   
    10    4   30 2   
    11    5    6 ar  
    12    5   12 ar  
    13    6    8 ar  
    14    6   31 1   
    15    7   31 1   
    16    7   39 1   
    17    7   40 1   
    18    7   41 1   
    19    8    9 ar  
    20    8   42 1   
    21    9   11 ar  
    22    9   32 1   
    23   10   32 1   
    24   10   43 1   
    25   10   44 1   
    26   10   45 1   
    27   11   12 ar  
    28   11   33 1   
    29   12   29 1   
    30   13   14 1   
    31   13   46 1   
    32   13   47 1   
    33   14   15 1   
    34   14   48 1   
    35   14   49 1   
    36   15   16 1   
    37   15   26 1   
    38   15   50 1   
    39   16   17 1   
    40   16   34 1   
    41   16   51 1   
    42   17   18 1   
    43   17   27 1   
    44   17   52 1   
    45   18   19 1   
    46   18   35 1   
    47   18   53 1   
    48   19   20 2   
    49   19   54 1   
    50   20   21 1   
    51   20   55 1   
    52   21   22 2   
    53   21   56 1   
    54   22   23 1   
    55   22   57 1   
    56   23   24 2   
    57   23   28 1   
    58   24   25 1   
    59   24   58 1   
    60   25   59 1   
    61   25   60 1   
    62   25   61 1   
    63   26   62 1   
    64   26   63 1   
    65   26   64 1   
    66   27   68 1   
    67   27   69 1   
    68   27   70 1   
    69   28   74 1   
    70   28   75 1   
    71   28   76 1   
    72   33   77 1   
    73   34   78 1   
    74   35   79 1   
    75   65   78 1   
    76   66   78 1   
    77   67   78 1   
    78   71   79 1   
    79   72   79 1   
    80   73   79 1   
@<TRIPOS>SUBSTRUCTURE
     1 SMA         1 TEMP              0 ****  ****    0 ROOT
