@<TRIPOS>MOLECULE
SMB
   16    15     1     0     0
SMALL
bcc


@<TRIPOS>ATOM
      1 C1         -0.0170   -0.1420   -0.0210 c3        1 SMB     -0.085100
      2 C2          1.4760    0.0600    0.0270 c3        1 SMB     -0.069400
      3 C3          2.0190    0.1010    1.4420 c3        1 SMB     -0.186700
      4 C4          1.7250    1.4180    2.1190 c3        1 SMB     -0.064100
      5 C5          3.5430   -0.1830    1.4760 c         1 SMB      0.912600
      6 O1          4.1420   -0.0190    2.5790 o         1 SMB     -0.849800
      7 O2          4.1150   -0.5900    0.4250 o         1 SMB     -0.849800
      8 H11        -0.5480    0.6820    0.5140 hc        1 SMB      0.009700
      9 H12        -0.3000   -1.1080    0.4630 hc        1 SMB      0.009700
     10 H13        -0.3770   -0.1620   -1.0790 hc        1 SMB      0.009700
     11 H21         1.7440    1.0120   -0.5010 hc        1 SMB      0.045700
     12 H22         1.9920   -0.7730   -0.5240 hc        1 SMB      0.045700
     13 H3          1.5400   -0.7250    2.0380 hc        1 SMB      0.027700
     14 H41         2.1160    2.2680    1.5100 hc        1 SMB      0.014700
     15 H42         2.2280    1.4420    3.1170 hc        1 SMB      0.014700
     16 H43         0.6260    1.5640    2.2600 hc        1 SMB      0.014700
@<TRIPOS>BOND
     1    1    2 1   
     2    1    8 1   
     3    1    9 1   
     4    1   10 1   
     5    2    3 1   
     6    2   11 1   
     7    2   12 1   
     8    3    4 1   
     9    3    5 1   
    10    3   13 1   
    11    4   14 1   
    12    4   15 1   
    13    4   16 1   
    14    5    6 1   
    15    5    7 1   
@<TRIPOS>SUBSTRUCTURE
     1 SMB         1 TEMP              0 ****  ****    0 ROOT
