@<TRIPOS>MOLECULE
SMB
   16    15     1     0     0
SMALL
bcc


@<TRIPOS>ATOM
      1 C1          2.7360    0.3240    0.3290 c3        1 SMB     -0.085100
      2 C2          1.3530    0.6570   -0.1710 c3        1 SMB     -0.069400
      3 C3          0.3150   -0.3650    0.2470 c3        1 SMB     -0.186700
      4 C4          0.4080   -1.6290   -0.5730 c3        1 SMB     -0.064100
      5 C5         -1.1210    0.2150    0.1630 c         1 SMB      0.912600
      6 O1         -2.0850   -0.5870    0.3320 o         1 SMB     -0.849800
      7 O2         -1.2720    1.4540   -0.0380 o         1 SMB     -0.849800
      8 H11         2.7520    0.2830    1.4450 hc        1 SMB      0.009700
      9 H12         3.0720   -0.6680   -0.0590 hc        1 SMB      0.009700
     10 H13         3.4710    1.0970   -0.0040 hc        1 SMB      0.009700
     11 H21         1.0370    1.6610    0.2210 hc        1 SMB      0.045700
     12 H22         1.3670    0.7360   -1.2900 hc        1 SMB      0.045700
     13 H3          0.4770   -0.6250    1.3300 hc        1 SMB      0.027700
     14 H41         0.3330   -1.3970   -1.6620 hc        1 SMB      0.014700
     15 H42         1.3760   -2.1570   -0.3920 hc        1 SMB      0.014700
     16 H43        -0.4360   -2.3100   -0.3000 hc        1 SMB      0.014700
@<TRIPOS>BOND
     1    1    2 1   
     2    1    8 1   
     3    1    9 1   
     4    1   10 1   
     5    2    3 1   
     6    2   11 1   
     7    2   12 1   
     8    3    4 1   
     9    3    5 1   
    10    3   13 1   
    11    4   14 1   
    12    4   15 1   
    13    4   16 1   
    14    5    6 1   
    15    5    7 1   
@<TRIPOS>SUBSTRUCTURE
     1 SMB         1 TEMP              0 ****  ****    0 ROOT
