@<TRIPOS>MOLECULE
SMB
   16    15     1     0     0
SMALL
bcc


@<TRIPOS>ATOM
      1 C1         -0.0120   -0.1350   -0.0330 c3        1 SMB     -0.085100
      2 C2          1.4810    0.0720    0.0240 c3        1 SMB     -0.068400
      3 C3          2.0180    0.0960    1.4410 c3        1 SMB     -0.186700
      4 C4          1.7170    1.4030    2.1340 c3        1 SMB     -0.064100
      5 C5          3.5440   -0.1820    1.4770 c         1 SMB      0.912600
      6 O1          4.1360   -0.0380    2.5860 o         1 SMB     -0.849800
      7 O2          4.1220   -0.5650    0.4200 o         1 SMB     -0.849800
      8 H11        -0.2930   -1.1080    0.4370 hc        1 SMB      0.009700
      9 H12        -0.3670   -0.1420   -1.0920 hc        1 SMB      0.009700
     10 H13        -0.5480    0.6810    0.5100 hc        1 SMB      0.009700
     11 H21         1.7480    1.0320   -0.4910 hc        1 SMB      0.045700
     12 H22         2.0020   -0.7510   -0.5360 hc        1 SMB      0.045700
     13 H3          1.5400   -0.7400    2.0240 hc        1 SMB      0.027700
     14 H41         0.6170    1.5430    2.2720 hc        1 SMB      0.014700
     15 H42         2.1070    2.2630    1.5380 hc        1 SMB      0.014700
     16 H43         2.2160    1.4150    3.1340 hc        1 SMB      0.014700
@<TRIPOS>BOND
     1    1    2 1   
     2    1    8 1   
     3    1    9 1   
     4    1   10 1   
     5    2    3 1   
     6    2   11 1   
     7    2   12 1   
     8    3    4 1   
     9    3    5 1   
    10    3   13 1   
    11    4   14 1   
    12    4   15 1   
    13    4   16 1   
    14    5    6 1   
    15    5    7 1   
@<TRIPOS>SUBSTRUCTURE
     1 SMB         1 TEMP              0 ****  ****    0 ROOT
