@<TRIPOS>MOLECULE
SMD
   48    49     1     0     0
SMALL
bcc


@<TRIPOS>ATOM
      1 O12         2.8490   -2.6840    0.0720 oh        1 SMD     -0.613800
      2 C12         2.7390   -1.4130    0.6930 c3        1 SMD      0.099100
      3 C13         4.0740   -0.6990    0.4130 c3        1 SMD      0.120100
      4 O13         4.4070   -0.7380   -0.9660 oh        1 SMD     -0.608800
      5 C14         4.0300    0.7870    0.8130 c3        1 SMD      0.117100
      6 O14         4.1640    0.9220    2.2190 oh        1 SMD     -0.583800
      7 C15         2.7170    1.4920    0.4350 c3        1 SMD      0.140100
      8 C16         2.7910    1.9410   -1.0280 c3        1 SMD      0.093400
      9 O16         1.4990    2.3940   -1.3960 oh        1 SMD     -0.600800
     10 O15         1.5650    0.7030    0.6930 os        1 SMD     -0.371600
     11 C11         1.5810   -0.5950    0.1180 c3        1 SMD      0.165200
     12 S22         0.0360   -1.3570    0.5720 ss        1 SMD     -0.226200
     13 C22        -1.0410   -0.7820   -0.7300 c3        1 SMD     -0.011600
     14 C21        -1.3330    0.7180   -0.5840 c3        1 SMD      0.322900
     15 O21        -1.9260    1.1490   -1.7980 os        1 SMD     -0.453600
     16 C27        -1.8900    2.5580   -1.9750 c3        1 SMD      0.121700
     17 O25        -2.2510    1.0530    0.4350 os        1 SMD     -0.432600
     18 C23        -2.3520   -1.5600   -0.7570 c3        1 SMD      0.167100
     19 O23        -2.0750   -2.9470   -0.7990 oh        1 SMD     -0.592800
     20 C24        -3.2090   -1.1880    0.4670 c3        1 SMD      0.075100
     21 O24        -4.4090   -1.9340    0.3340 oh        1 SMD     -0.602800
     22 C25        -3.4790    0.3220    0.4350 c3        1 SMD      0.072100
     23 C26        -4.2220    0.7930    1.6900 c3        1 SMD      0.136400
     24 O26        -4.4920    2.1760    1.6380 oh        1 SMD     -0.594800
     25 H5          1.9690   -3.0880    0.0960 ho        1 SMD      0.434000
     26 H12         2.6070   -1.5330    1.8040 h1        1 SMD      0.078700
     27 H13         4.8820   -1.2230    1.0000 h1        1 SMD      0.050700
     28 H4          4.3130   -1.6580   -1.2510 ho        1 SMD      0.432000
     29 H14         4.8860    1.3110    0.2980 h1        1 SMD      0.059700
     30 H3          5.0260    0.5590    2.4570 ho        1 SMD      0.405000
     31 H15         2.5570    2.3830    1.1100 h1        1 SMD      0.109700
     32 H161        3.5350    2.7760   -1.1220 h1        1 SMD      0.043700
     33 H162        3.1070    1.0880   -1.6880 h1        1 SMD      0.043700
     34 H16         1.5650    2.6880   -2.3130 ho        1 SMD      0.403000
     35 H11         1.6800   -0.5220   -0.9980 h2        1 SMD      0.075700
     36 H22        -0.5230   -0.9370   -1.7150 h1        1 SMD      0.099700
     37 H21        -0.3960    1.3030   -0.3280 h2        1 SMD      0.131700
     38 H271       -0.8300    2.9170   -2.0010 h1        1 SMD      0.040033
     39 H272       -2.3940    2.7270   -2.9580 h1        1 SMD      0.040033
     40 H273       -2.4470    3.0660   -1.1500 h1        1 SMD      0.040033
     41 H23        -2.9140   -1.2650   -1.6930 h1        1 SMD      0.073700
     42 H2         -2.9290   -3.3950   -0.7150 ho        1 SMD      0.425000
     43 H24        -2.6740   -1.4740    1.4150 h1        1 SMD      0.070700
     44 H1         -4.9280   -1.7750    1.1310 ho        1 SMD      0.412000
     45 H25        -4.0620    0.5880   -0.4900 h1        1 SMD      0.077700
     46 H261       -5.2290    0.3010    1.7420 h1        1 SMD      0.050700
     47 H262       -3.6210    0.5470    2.6050 h1        1 SMD      0.050700
     48 H26        -3.6450    2.6250    1.5140 ho        1 SMD      0.418000
@<TRIPOS>BOND
     1    1    2 1   
     2    1   25 1   
     3    2    3 1   
     4    2   11 1   
     5    2   26 1   
     6    3    4 1   
     7    3    5 1   
     8    3   27 1   
     9    4   28 1   
    10    5    6 1   
    11    5    7 1   
    12    5   29 1   
    13    6   30 1   
    14    7    8 1   
    15    7   10 1   
    16    7   31 1   
    17    8    9 1   
    18    8   32 1   
    19    8   33 1   
    20    9   34 1   
    21   10   11 1   
    22   11   12 1   
    23   11   35 1   
    24   12   13 1   
    25   13   14 1   
    26   13   18 1   
    27   13   36 1   
    28   14   15 1   
    29   14   17 1   
    30   14   37 1   
    31   15   16 1   
    32   16   38 1   
    33   16   39 1   
    34   16   40 1   
    35   17   22 1   
    36   18   19 1   
    37   18   20 1   
    38   18   41 1   
    39   19   42 1   
    40   20   21 1   
    41   20   22 1   
    42   20   43 1   
    43   21   44 1   
    44   22   23 1   
    45   22   45 1   
    46   23   24 1   
    47   23   46 1   
    48   23   47 1   
    49   24   48 1   
@<TRIPOS>SUBSTRUCTURE
     1 SMD         1 TEMP              0 ****  ****    0 ROOT
