@<TRIPOS>MOLECULE
SMD
   48    49     1     0     0
SMALL
bcc


@<TRIPOS>ATOM
      1 O12        -0.1510   -0.4060    0.2540 oh        1 SMD     -0.604800
      2 C12         1.2360   -0.1340    0.1540 c3        1 SMD      0.091100
      3 C13         1.7630   -0.1270    1.6030 c3        1 SMD      0.120100
      4 O13         1.3330   -1.2760    2.3130 oh        1 SMD     -0.604800
      5 C14         3.3030   -0.1150    1.6540 c3        1 SMD      0.118100
      6 O14         3.7740    1.1970    1.4180 oh        1 SMD     -0.584800
      7 C15         3.9460   -1.1010    0.6670 c3        1 SMD      0.098100
      8 C16         3.8940   -2.5270    1.2150 c3        1 SMD      0.098400
      9 O16         4.2980   -3.3960    0.1690 oh        1 SMD     -0.603800
     10 O15         3.3650   -0.9840   -0.6280 os        1 SMD     -0.385600
     11 C11         1.9620   -1.2000   -0.6720 c3        1 SMD      0.164200
     12 S22         1.4890   -1.0380   -2.3830 ss        1 SMD     -0.238200
     13 C22         1.7950   -2.6790   -3.0090 c3        1 SMD     -0.044600
     14 C21         3.2940   -3.0110   -3.0350 c3        1 SMD      0.327900
     15 O21         3.3990   -4.4150   -3.2220 os        1 SMD     -0.456600
     16 C27         4.6790   -4.9330   -2.8870 c3        1 SMD      0.121700
     17 O25         4.0210   -2.4190   -4.0880 os        1 SMD     -0.433600
     18 C23         1.2050   -2.8560   -4.4050 c3        1 SMD      0.116100
     19 O23        -0.1300   -2.3970   -4.5270 oh        1 SMD     -0.596800
     20 C24         2.0300   -2.0780   -5.4470 c3        1 SMD      0.127100
     21 O24         1.5400   -2.3210   -6.7530 oh        1 SMD     -0.593800
     22 C25         3.4750   -2.5940   -5.3990 c3        1 SMD      0.103100
     23 C26         4.3800   -1.7860   -6.3330 c3        1 SMD      0.141400
     24 O26         5.6870   -2.3170   -6.3640 oh        1 SMD     -0.597800
     25 H5         -0.4900   -0.4780   -0.6500 ho        1 SMD      0.427000
     26 H12         1.4010    0.8800   -0.3070 h1        1 SMD      0.065700
     27 H13         1.3750    0.7990    2.1150 h1        1 SMD      0.069700
     28 H4          0.3680   -1.2980    2.2480 ho        1 SMD      0.429000
     29 H14         3.6330   -0.3550    2.7050 h1        1 SMD      0.101700
     30 H3          3.6340    1.3880    0.4800 ho        1 SMD      0.411000
     31 H15         5.0200   -0.8040    0.4780 h1        1 SMD      0.104700
     32 H161        2.8560   -2.7880    1.5560 h1        1 SMD      0.047200
     33 H162        4.5990   -2.6100    2.0850 h1        1 SMD      0.047200
     34 H16         4.3260   -4.2830    0.5470 ho        1 SMD      0.405000
     35 H11         1.7170   -2.2240   -0.2820 h2        1 SMD      0.080700
     36 H22         1.3040   -3.4130   -2.3160 h1        1 SMD      0.084700
     37 H21         3.8170   -2.6640   -2.0920 h2        1 SMD      0.128700
     38 H271        4.5990   -6.0270   -3.1010 h1        1 SMD      0.040700
     39 H272        5.4660   -4.4600   -3.5240 h1        1 SMD      0.040700
     40 H273        4.8970   -4.7510   -1.8050 h1        1 SMD      0.040700
     41 H23         1.2460   -3.9580   -4.6550 h1        1 SMD      0.074700
     42 H2         -0.6580   -2.8860   -3.8850 ho        1 SMD      0.411000
     43 H24         1.9900   -0.9770   -5.2170 h1        1 SMD      0.068700
     44 H1          0.6010   -2.0870   -6.7400 ho        1 SMD      0.423000
     45 H25         3.5050   -3.6850   -5.6660 h1        1 SMD      0.077700
     46 H261        4.4020   -0.7120   -6.0110 h1        1 SMD      0.062200
     47 H262        3.9930   -1.8730   -7.3840 h1        1 SMD      0.062200
     48 H26         6.0170   -2.3050   -5.4560 ho        1 SMD      0.409000
@<TRIPOS>BOND
     1    1    2 1   
     2    1   25 1   
     3    2    3 1   
     4    2   11 1   
     5    2   26 1   
     6    3    4 1   
     7    3    5 1   
     8    3   27 1   
     9    4   28 1   
    10    5    6 1   
    11    5    7 1   
    12    5   29 1   
    13    6   30 1   
    14    7    8 1   
    15    7   10 1   
    16    7   31 1   
    17    8    9 1   
    18    8   32 1   
    19    8   33 1   
    20    9   34 1   
    21   10   11 1   
    22   11   12 1   
    23   11   35 1   
    24   12   13 1   
    25   13   14 1   
    26   13   18 1   
    27   13   36 1   
    28   14   15 1   
    29   14   17 1   
    30   14   37 1   
    31   15   16 1   
    32   16   38 1   
    33   16   39 1   
    34   16   40 1   
    35   17   22 1   
    36   18   19 1   
    37   18   20 1   
    38   18   41 1   
    39   19   42 1   
    40   20   21 1   
    41   20   22 1   
    42   20   43 1   
    43   21   44 1   
    44   22   23 1   
    45   22   45 1   
    46   23   24 1   
    47   23   46 1   
    48   23   47 1   
    49   24   48 1   
@<TRIPOS>SUBSTRUCTURE
     1 SMD         1 TEMP              0 ****  ****    0 ROOT
