@<TRIPOS>MOLECULE
SMD
   48    49     1     0     0
SMALL
bcc


@<TRIPOS>ATOM
      1 O12        -0.1340   -0.2850    0.1640 oh        1 SMD     -0.611800
      2 C12         1.2690   -0.0790    0.1140 c3        1 SMD      0.097100
      3 C13         1.7460   -0.1280    1.5770 c3        1 SMD      0.121100
      4 O13         1.2740   -1.2890    2.2400 oh        1 SMD     -0.607800
      5 C14         3.2820   -0.1530    1.6810 c3        1 SMD      0.117100
      6 O14         3.8100    1.1450    1.4650 oh        1 SMD     -0.582800
      7 C15         3.9570   -1.0710    0.6480 c3        1 SMD      0.140100
      8 C16         3.9540   -2.5100    1.1750 c3        1 SMD      0.093400
      9 O16         4.3880   -3.3470    0.1160 oh        1 SMD     -0.599800
     10 O15         3.3810   -0.9760   -0.6470 os        1 SMD     -0.369600
     11 C11         1.9760   -1.1670   -0.6980 c3        1 SMD      0.168200
     12 S22         1.5160   -1.0190   -2.4150 ss        1 SMD     -0.234200
     13 C22         1.8120   -2.6710   -3.0170 c3        1 SMD     -0.045600
     14 C21         3.3130   -2.9960   -3.0670 c3        1 SMD      0.328900
     15 O21         3.4210   -4.4030   -3.2290 os        1 SMD     -0.457600
     16 C27         4.7150   -4.9060   -2.9270 c3        1 SMD      0.122700
     17 O25         4.0140   -2.4230   -4.1480 os        1 SMD     -0.432600
     18 C23         1.1940   -2.8770   -4.3960 c3        1 SMD      0.116100
     19 O23        -0.1460   -2.4270   -4.4980 oh        1 SMD     -0.596800
     20 C24         1.9930   -2.1140   -5.4690 c3        1 SMD      0.127100
     21 O24         1.4760   -2.3820   -6.7600 oh        1 SMD     -0.593800
     22 C25         3.4410   -2.6230   -5.4420 c3        1 SMD      0.104100
     23 C26         4.3220   -1.8290   -6.4110 c3        1 SMD      0.141400
     24 O26         5.6320   -2.3520   -6.4560 oh        1 SMD     -0.598800
     25 H5         -0.4420   -0.3460   -0.7520 ho        1 SMD      0.429000
     26 H12         1.5020    0.9320   -0.3210 h1        1 SMD      0.081700
     27 H13         1.3490    0.7860    2.1060 h1        1 SMD      0.051700
     28 H4          0.3200   -1.3300    2.0880 ho        1 SMD      0.430000
     29 H14         3.5540   -0.5080    2.7160 h1        1 SMD      0.060700
     30 H3          3.4720    1.7090    2.1720 ho        1 SMD      0.405000
     31 H15         5.0170   -0.7230    0.4670 h1        1 SMD      0.111700
     32 H161        4.6590   -2.5870    2.0450 h1        1 SMD      0.043200
     33 H162        2.9220   -2.8070    1.5070 h1        1 SMD      0.043200
     34 H16         4.4270   -4.2420    0.4760 ho        1 SMD      0.404000
     35 H11         1.7090   -2.1820   -0.2980 h2        1 SMD      0.073700
     36 H22         1.3400   -3.3950   -2.3000 h1        1 SMD      0.083700
     37 H21         3.8530   -2.6270   -2.1430 h2        1 SMD      0.129700
     38 H271        4.6360   -6.0050   -3.1170 h1        1 SMD      0.040367
     39 H272        4.9680   -4.7020   -1.8560 h1        1 SMD      0.040367
     40 H273        5.4770   -4.4410   -3.5990 h1        1 SMD      0.040367
     41 H23         1.2350   -3.9830   -4.6260 h1        1 SMD      0.073700
     42 H2         -0.6540   -2.8920   -3.8230 ho        1 SMD      0.411000
     43 H24         1.9530   -1.0100   -5.2580 h1        1 SMD      0.068700
     44 H1          0.5370   -2.1520   -6.7310 ho        1 SMD      0.423000
     45 H25         3.4700   -3.7200   -5.6910 h1        1 SMD      0.076700
     46 H261        3.9150   -1.9400   -7.4510 h1        1 SMD      0.062200
     47 H262        4.3430   -0.7480   -6.1110 h1        1 SMD      0.062200
     48 H26         5.9800   -2.3170   -5.5550 ho        1 SMD      0.410000
@<TRIPOS>BOND
     1    1    2 1   
     2    1   25 1   
     3    2    3 1   
     4    2   11 1   
     5    2   26 1   
     6    3    4 1   
     7    3    5 1   
     8    3   27 1   
     9    4   28 1   
    10    5    6 1   
    11    5    7 1   
    12    5   29 1   
    13    6   30 1   
    14    7    8 1   
    15    7   10 1   
    16    7   31 1   
    17    8    9 1   
    18    8   32 1   
    19    8   33 1   
    20    9   34 1   
    21   10   11 1   
    22   11   12 1   
    23   11   35 1   
    24   12   13 1   
    25   13   14 1   
    26   13   18 1   
    27   13   36 1   
    28   14   15 1   
    29   14   17 1   
    30   14   37 1   
    31   15   16 1   
    32   16   38 1   
    33   16   39 1   
    34   16   40 1   
    35   17   22 1   
    36   18   19 1   
    37   18   20 1   
    38   18   41 1   
    39   19   42 1   
    40   20   21 1   
    41   20   22 1   
    42   20   43 1   
    43   21   44 1   
    44   22   23 1   
    45   22   45 1   
    46   23   24 1   
    47   23   46 1   
    48   23   47 1   
    49   24   48 1   
@<TRIPOS>SUBSTRUCTURE
     1 SMD         1 TEMP              0 ****  ****    0 ROOT
