@<TRIPOS>MOLECULE
SME
   20    19     1     0     0
SMALL
bcc


@<TRIPOS>ATOM
      1 N          -1.5880   -0.9560   -1.7320 n3        1 SME     -0.889800
      2 CA         -0.8230    0.1860   -1.2470 c3        1 SME      0.021500
      3 CB         -0.0490   -0.1090    0.0380 c3        1 SME     -0.047400
      4 CG         -0.9490   -0.3360    1.2280 c3        1 SME     -0.075100
      5 S           0.0290   -0.5300    2.6660 s4        1 SME      0.215600
      6 OE         -0.8870   -1.1120    3.7110 o         1 SME     -0.540200
      7 CE          0.2390    1.1370    3.1350 c3        1 SME     -0.112800
      8 C           0.1820    0.7860   -2.2890 c         1 SME      0.887600
      9 O           0.1610    0.3250   -3.4650 o         1 SME     -0.841300
     10 OXT         0.9430    1.7130   -1.8940 o         1 SME     -0.841300
     11 H          -0.9620   -1.7350   -1.8380 hn        1 SME      0.331800
     12 H2         -1.9060   -0.7250   -2.6600 hn        1 SME      0.331800
     13 HA         -1.5720    1.0020   -1.0270 h1        1 SME      0.042700
     14 HB2         0.6170    0.7800    0.2210 hc        1 SME      0.048700
     15 HB3         0.6120   -1.0030   -0.1120 hc        1 SME      0.048700
     16 HG2        -1.5610   -1.2620    1.0740 h1        1 SME      0.091200
     17 HG3        -1.6830    0.5040    1.3070 h1        1 SME      0.091200
     18 HE1         1.0430    1.1940    3.9030 h1        1 SME      0.079700
     19 HE2         0.5440    1.7550    2.2590 h1        1 SME      0.079700
     20 HE3        -0.6790    1.5890    3.5730 h1        1 SME      0.079700
@<TRIPOS>BOND
     1    1    2 1   
     2    1   11 1   
     3    1   12 1   
     4    2    3 1   
     5    2    8 1   
     6    2   13 1   
     7    3    4 1   
     8    3   14 1   
     9    3   15 1   
    10    4    5 1   
    11    4   16 1   
    12    4   17 1   
    13    5    6 2   
    14    5    7 1   
    15    7   18 1   
    16    7   19 1   
    17    7   20 1   
    18    8    9 1   
    19    8   10 1   
@<TRIPOS>SUBSTRUCTURE
     1 SME         1 TEMP              0 ****  ****    0 ROOT
