@<TRIPOS>MOLECULE
SMF
   28    28     1     0     0
SMALL
bcc


@<TRIPOS>ATOM
      1 N           1.2190   -2.2300    0.0980 n3        1 SMF     -0.901800
      2 CA          0.7930   -2.5450    1.4460 c3        1 SMF      0.043500
      3 CB          1.3790   -1.6530    2.5570 c3        1 SMF     -0.060100
      4 CG          2.8620   -1.5490    2.5670 ca        1 SMF     -0.080300
      5 CD1         3.6450   -2.4440    3.3080 ca        1 SMF     -0.142000
      6 CE1         5.0250   -2.2850    3.4010 ca        1 SMF     -0.144500
      7 CD2         3.5090   -0.5160    1.8780 ca        1 SMF     -0.142000
      8 CE2         4.8900   -0.3550    1.9670 ca        1 SMF     -0.144500
      9 CZ          5.6670   -1.2200    2.7500 ca        1 SMF     -0.011300
     10 CH          7.1050   -0.9560    2.9440 c3        1 SMF     -0.239300
     11 S           8.3100   -2.2710    2.7780 s6        1 SMF      1.421800
     12 O1          8.3760   -2.5940    1.4050 o         1 SMF     -0.752200
     13 O2          7.8820   -3.3270    3.6160 o         1 SMF     -0.752200
     14 O3          9.4970   -1.6440    3.2510 o         1 SMF     -0.752200
     15 C          -0.7620   -2.4680    1.6160 c         1 SMF      0.912600
     16 O          -1.3840   -1.5330    1.0320 o         1 SMF     -0.852300
     17 OXT        -1.3120   -3.3330    2.3520 o         1 SMF     -0.852300
     18 H           0.5580   -1.5950   -0.3160 hn        1 SMF      0.333800
     19 H2          2.1160   -1.7800    0.1160 hn        1 SMF      0.333800
     20 HA          1.1160   -3.6070    1.6490 h1        1 SMF      0.049700
     21 HB2         0.9350   -0.6260    2.4540 hc        1 SMF      0.046200
     22 HB3         1.0240   -2.0760    3.5340 hc        1 SMF      0.046200
     23 HD1         3.1570   -3.2830    3.8260 ha        1 SMF      0.116500
     24 HE1         5.6350   -3.0020    3.9780 ha        1 SMF      0.136000
     25 HD2         2.9160    0.1830    1.2710 ha        1 SMF      0.116500
     26 HE2         5.3760    0.4650    1.4200 ha        1 SMF      0.136000
     27 HH2         7.2350   -0.5480    3.9810 h1        1 SMF      0.067200
     28 HH3         7.4330   -0.1460    2.2430 h1        1 SMF      0.067200
@<TRIPOS>BOND
     1    1    2 1   
     2    1   18 1   
     3    1   19 1   
     4    2    3 1   
     5    2   15 1   
     6    2   20 1   
     7    3    4 1   
     8    3   21 1   
     9    3   22 1   
    10    4    5 ar  
    11    4    7 ar  
    12    5    6 ar  
    13    5   23 1   
    14    6    9 ar  
    15    6   24 1   
    16    7    8 ar  
    17    7   25 1   
    18    8    9 ar  
    19    8   26 1   
    20    9   10 1   
    21   10   11 1   
    22   10   27 1   
    23   10   28 1   
    24   11   12 1   
    25   11   13 1   
    26   11   14 1   
    27   15   16 1   
    28   15   17 1   
@<TRIPOS>SUBSTRUCTURE
     1 SMF         1 TEMP              0 ****  ****    0 ROOT
