@<TRIPOS>MOLECULE
SMG
   30    27     1     0     0
SMALL
bcc


@<TRIPOS>ATOM
      1 O61         0.7590   -3.7780   -0.6830 o         1 SMG     -0.470500
      2 O62         2.5020   -4.6910    0.6530 o         1 SMG     -0.470500
      3 C6          1.6600   -4.1750   -0.0120 c1        1 SMG      0.927000
      4 C5          0.3420   -0.6250    0.8450 c3        1 SMG      0.016100
      5 C4          1.7300   -0.2460    1.1340 c2        1 SMG     -0.484200
      6 O31         2.8340   -2.0750    0.0140 o         1 SMG     -0.798300
      7 C3          2.7800   -1.0000    0.6860 c2        1 SMG      0.496300
      8 N1          4.1670   -0.5000    1.0280 n4        1 SMG     -0.726400
      9 C2          6.5610    1.2440    2.0480 c         1 SMG      0.893800
     10 C1          7.7560    2.0330    2.4840 ce        1 SMG     -0.172200
     11 CB          8.2660    1.9560    3.7160 c2        1 SMG     -0.181200
     12 CG          9.4670    2.6900    4.1510 c3        1 SMG      0.041900
     13 SD          8.9990    3.7570    5.4940 ss        1 SMG     -0.296200
     14 CE         10.5400    4.4600    5.9380 c3        1 SMG     -0.048000
     15 H51        -0.1820    0.1900    0.2830 hc        1 SMG      0.007367
     16 H52         1.8830    0.6690    1.7150 ha        1 SMG      0.112000
     17 H41         0.2940   -1.5600    0.2320 hc        1 SMG      0.007367
     18 H42        -0.2280   -0.7970    1.7940 hc        1 SMG      0.007367
     19 HN1         4.3010   -0.3710    2.0400 hn        1 SMG      0.446133
     20 H1          4.3720    0.4100    0.5940 hn        1 SMG      0.446133
     21 HB1         7.7960    1.2990    4.4690 ha        1 SMG      0.152000
     22 HB2         8.1870    2.6800    1.7040 ha        1 SMG      0.113000
     23 HG1         9.9070    3.2990    3.3230 h1        1 SMG      0.049700
     24 HG2        10.2520    1.9750    4.5040 h1        1 SMG      0.049700
     25 HE1        11.2710    3.6860    6.2630 h1        1 SMG      0.051367
     26 HE2        10.9910    5.0360    5.0990 h1        1 SMG      0.051367
     27 HE3        10.3410    5.1520    6.7870 h1        1 SMG      0.051367
     28 O11         6.1200    1.4150    0.8680 o         1 SMG     -0.860300
     29 O12         6.0100    0.4150    2.8370 o         1 SMG     -0.860300
     30 H12         4.8660   -1.1640    0.7010 hn        1 SMG      0.446133
@<TRIPOS>BOND
     1    1    3 2   
     2    2    3 2   
     3    4    5 1   
     4    4   15 1   
     5    4   17 1   
     6    4   18 1   
     7    5    7 2   
     8    5   16 1   
     9    6    7 1   
    10    7    8 1   
    11    8   19 1   
    12    8   20 1   
    13    8   30 1   
    14    9   10 1   
    15    9   28 1   
    16    9   29 1   
    17   10   11 2   
    18   10   22 1   
    19   11   12 1   
    20   11   21 1   
    21   12   13 1   
    22   12   23 1   
    23   12   24 1   
    24   13   14 1   
    25   14   25 1   
    26   14   26 1   
    27   14   27 1   
@<TRIPOS>SUBSTRUCTURE
     1 SMG         1 TEMP              0 ****  ****    0 ROOT
