@<TRIPOS>MOLECULE
SMG
   30    27     1     0     0
SMALL
bcc


@<TRIPOS>ATOM
      1 O61        -0.9220   -0.1510    0.1330 o         1 SMG     -0.470500
      2 O62         0.6710    0.7580   -1.3820 o         1 SMG     -0.470500
      3 C6         -0.0790    0.2990   -0.5780 c1        1 SMG      0.927000
      4 C5          1.0500   -2.5760    1.7720 c3        1 SMG      0.016100
      5 C4          2.3300   -1.8730    1.9160 c2        1 SMG     -0.484200
      6 O31         1.6350    0.2930    1.1110 o         1 SMG     -0.798300
      7 C3          2.4570   -0.5530    1.5800 c2        1 SMG      0.497300
      8 N1          3.8200    0.0720    1.7890 nz        1 SMG     -0.727400
      9 C2          6.8220    0.4420    2.6100 c         1 SMG      0.911600
     10 C1          8.2880    0.6510    2.9780 c3        1 SMG     -0.158200
     11 CB          8.4920    1.8520    3.8150 c2        1 SMG     -0.067200
     12 CG          9.6130    2.5810    3.7930 c2        1 SMG     -0.162400
     13 SD          9.8870    3.8770    4.8520 ss        1 SMG     -0.248700
     14 CE         10.9890    4.8850    3.9330 c3        1 SMG     -0.052000
     15 H51         0.7100   -2.9840    2.7580 hc        1 SMG      0.007367
     16 H52         3.1710   -2.4510    2.3110 ha        1 SMG      0.112000
     17 H41         0.2530   -1.8940    1.3800 hc        1 SMG      0.007367
     18 H42         1.1500   -3.4420    1.0670 hc        1 SMG      0.007367
     19 HN1         4.5630   -0.4290    1.2830 hn        1 SMG      0.446467
     20 H1          4.0990    0.0740    2.7800 hn        1 SMG      0.446467
     21 HB1         8.6150   -0.2550    3.5570 hc        1 SMG      0.052200
     22 HB2         8.8990    0.6960    2.0400 hc        1 SMG      0.052200
     23 HG1         7.6410    2.0990    4.4780 ha        1 SMG      0.156000
     24 HG2        10.4310    2.3360    3.1020 h4        1 SMG      0.122000
     25 HE1        11.8960    4.3260    3.6130 h1        1 SMG      0.054367
     26 HE2        10.5050    5.3130    3.0280 h1        1 SMG      0.054367
     27 HE3        11.2910    5.7150    4.6100 h1        1 SMG      0.054367
     28 O11         5.9100    0.7100    3.4510 o         1 SMG     -0.864800
     29 O12         6.5450   -0.0250    1.4630 o         1 SMG     -0.864800
     30 H12         3.8120    1.0360    1.4650 hn        1 SMG      0.446467
@<TRIPOS>BOND
     1    1    3 2   
     2    2    3 2   
     3    4    5 1   
     4    4   15 1   
     5    4   17 1   
     6    4   18 1   
     7    5    7 2   
     8    5   16 1   
     9    6    7 1   
    10    7    8 1   
    11    8   19 1   
    12    8   20 1   
    13    8   30 1   
    14    9   10 1   
    15    9   28 1   
    16    9   29 1   
    17   10   11 1   
    18   10   21 1   
    19   10   22 1   
    20   11   12 2   
    21   11   23 1   
    22   12   13 1   
    23   12   24 1   
    24   13   14 1   
    25   14   25 1   
    26   14   26 1   
    27   14   27 1   
@<TRIPOS>SUBSTRUCTURE
     1 SMG         1 TEMP              0 ****  ****    0 ROOT
