@<TRIPOS>MOLECULE
SMG
   29    28     1     0     0
SMALL
bcc


@<TRIPOS>ATOM
      1 O61         1.3250    0.5210   -5.4790 o         1 SMG     -0.865300
      2 O62         1.7980   -1.2970   -4.2860 o         1 SMG     -0.865300
      3 C6          1.3440   -0.1190   -4.3840 c         1 SMG      0.903600
      4 C5          0.8180    0.5920   -3.1290 c3        1 SMG     -0.179400
      5 C4          0.1190   -0.3590   -2.1900 c3        1 SMG     -0.132400
      6 O31         0.4180    1.3060   -0.4410 o         1 SMG     -0.679100
      7 C3         -0.1370    0.2460   -0.8190 c         1 SMG      0.642100
      8 N1         -0.9640   -0.4560    0.0300 n         1 SMG     -0.549900
      9 C2         -2.8260   -0.5010    1.7120 c         1 SMG      0.910600
     10 C1         -1.4070    0.0380    1.3110 c3        1 SMG     -0.023300
     11 CB         -0.4580   -0.3110    2.4730 c3        1 SMG     -0.069400
     12 CG          0.8770    0.3620    2.3140 c3        1 SMG      0.028700
     13 SD          1.8210    0.1390    3.8150 ss        1 SMG     -0.384200
     14 CE          3.3940    0.7450    3.3280 c3        1 SMG     -0.026000
     15 H51         0.1250    1.4150   -3.4330 hc        1 SMG      0.034700
     16 H52         1.6910    1.0630   -2.6080 hc        1 SMG      0.034700
     17 H41         0.7610   -1.2740   -2.0630 hc        1 SMG      0.063200
     18 H42        -0.8510   -0.6900   -2.6460 hc        1 SMG      0.063200
     19 HN1        -1.4890   -1.2260   -0.3230 hn        1 SMG      0.324500
     20 H1         -1.4760    1.1650    1.2560 h1        1 SMG      0.053700
     21 HB1        -0.3280   -1.4220    2.5390 hc        1 SMG      0.054200
     22 HB2        -0.9620    0.0340    3.4150 hc        1 SMG      0.054200
     23 HG1         0.7470    1.4530    2.1130 h1        1 SMG      0.073700
     24 HG2         1.4420   -0.0680    1.4520 h1        1 SMG      0.073700
     25 HE1         4.0800    0.6050    4.1920 h1        1 SMG      0.048033
     26 HE2         3.7900    0.1880    2.4490 h1        1 SMG      0.048033
     27 HE3         3.3500    1.8250    3.0640 h1        1 SMG      0.048033
     28 O11        -3.4080    0.1090    2.6530 o         1 SMG     -0.842800
     29 O12        -3.3080   -1.4940    1.1000 o         1 SMG     -0.842800
@<TRIPOS>BOND
     1    1    3 1   
     2    2    3 1   
     3    3    4 1   
     4    4    5 1   
     5    4   15 1   
     6    4   16 1   
     7    5    7 1   
     8    5   17 1   
     9    5   18 1   
    10    6    7 2   
    11    7    8 1   
    12    8   10 1   
    13    8   19 1   
    14    9   10 1   
    15    9   28 1   
    16    9   29 1   
    17   10   11 1   
    18   10   20 1   
    19   11   12 1   
    20   11   21 1   
    21   11   22 1   
    22   12   13 1   
    23   12   23 1   
    24   12   24 1   
    25   13   14 1   
    26   14   25 1   
    27   14   26 1   
    28   14   27 1   
@<TRIPOS>SUBSTRUCTURE
     1 SMG         1 TEMP              0 ****  ****    0 ROOT
