@<TRIPOS>MOLECULE
SMG
   30    27     1     0     0
SMALL
bcc


@<TRIPOS>ATOM
      1 O61         1.6730   -0.3870   -1.2280 o         1 SMG     -0.468000
      2 O62         3.9970   -0.3980   -0.7230 o         1 SMG     -0.468000
      3 C6          2.8170   -0.3920   -0.8990 c1        1 SMG      0.919000
      4 C5          0.9710   -0.2640    1.8490 c3        1 SMG      0.015100
      5 C4          2.3880   -0.6340    1.7350 c2        1 SMG     -0.545200
      6 O31         3.3400    1.2900    2.8390 o         1 SMG     -0.725300
      7 C3          3.3640    0.1580    2.2950 c2        1 SMG      0.516300
      8 N1          4.7860   -0.3860    2.2050 n4        1 SMG     -0.731400
      9 C2          7.7640   -1.6020    3.4650 c         1 SMG      0.901800
     10 C1          7.8420   -0.1510    3.8770 ce        1 SMG     -0.179200
     11 CB          7.7530    0.8640    3.0120 c2        1 SMG     -0.225200
     12 CG          7.7930    2.2840    3.4020 c3        1 SMG      0.041900
     13 SD          9.1450    3.0530    2.5400 ss        1 SMG     -0.305200
     14 CE          8.8610    4.7470    2.8770 c3        1 SMG     -0.046000
     15 H51         0.8520    0.7620    2.2780 hc        1 SMG      0.011033
     16 H52         2.6120   -1.6270    1.3320 ha        1 SMG      0.107000
     17 H41         0.4230   -0.9840    2.5100 hc        1 SMG      0.011033
     18 H42         0.4780   -0.2860    0.8420 hc        1 SMG      0.011033
     19 HN1         5.0620   -0.5420    1.2360 hn        1 SMG      0.442467
     20 H1          4.8900   -1.2840    2.6930 hn        1 SMG      0.442467
     21 HB1         7.6410    0.6690    1.9310 ha        1 SMG      0.132000
     22 HB2         7.9920    0.0120    4.9560 ha        1 SMG      0.113000
     23 HG1         7.9310    2.4090    4.5040 h1        1 SMG      0.056700
     24 HG2         6.8360    2.7910    3.1180 h1        1 SMG      0.056700
     25 HE1         7.8630    5.0810    2.5140 h1        1 SMG      0.052033
     26 HE2         8.9290    4.9710    3.9650 h1        1 SMG      0.052033
     27 HE3         9.6530    5.3170    2.3400 h1        1 SMG      0.052033
     28 O11         8.5610   -2.4150    3.9990 o         1 SMG     -0.842300
     29 O12         6.8780   -1.9390    2.6150 o         1 SMG     -0.842300
     30 H12         5.4500    0.2670    2.6300 hn        1 SMG      0.442467
@<TRIPOS>BOND
     1    1    3 2   
     2    2    3 2   
     3    4    5 1   
     4    4   15 1   
     5    4   17 1   
     6    4   18 1   
     7    5    7 2   
     8    5   16 1   
     9    6    7 1   
    10    7    8 1   
    11    8   19 1   
    12    8   20 1   
    13    8   30 1   
    14    9   10 1   
    15    9   28 1   
    16    9   29 1   
    17   10   11 2   
    18   10   22 1   
    19   11   12 1   
    20   11   21 1   
    21   12   13 1   
    22   12   23 1   
    23   12   24 1   
    24   13   14 1   
    25   14   25 1   
    26   14   26 1   
    27   14   27 1   
@<TRIPOS>SUBSTRUCTURE
     1 SMG         1 TEMP              0 ****  ****    0 ROOT
