@<TRIPOS>MOLECULE
SMH
   77    79     1     0     0
SMALL
bcc


@<TRIPOS>ATOM
      1 C1         -1.5720   -1.2520    1.3990 ca        1 SMH      0.080100
      2 C2         -0.2380   -1.5790    1.0820 ca        1 SMH     -0.096000
      3 C3          0.7710   -1.2910    1.9860 ca        1 SMH     -0.142000
      4 C4          0.4510   -0.6870    3.2180 ca        1 SMH      0.134100
      5 C5         -0.8800   -0.3760    3.5420 ca        1 SMH     -0.216600
      6 C6         -1.8960   -0.6560    2.6190 ca        1 SMH     -0.130000
      7 O7          1.5140   -0.4720    4.0700 os        1 SMH     -0.307900
      8 C8          1.2840    0.4650    5.1430 c3        1 SMH      0.164800
      9 C9         -0.0540    0.1990    5.8290 c3        1 SMH     -0.211400
     10 C10        -1.1960    0.2150    4.8510 c         1 SMH      0.583700
     11 C11         1.3000    1.9130    4.6010 c3        1 SMH      0.148800
     12 N12         2.5900    2.3280    4.0740 n3        1 SMH     -0.743600
     13 C13         3.6870    2.1220    5.0120 c3        1 SMH      0.173800
     14 C14         3.7550    0.6850    5.5250 c3        1 SMH     -0.078400
     15 C15         2.4390    0.2440    6.1220 c3        1 SMH     -0.073400
     16 O16        -2.5120   -1.5340    0.4330 oh        1 SMH     -0.495100
     17 O17        -2.3060    0.6710    5.1430 o         1 SMH     -0.520100
     18 C18         2.5580    3.6660    3.5110 c3        1 SMH      0.144800
     19 C19         2.0640    3.6540    2.0500 c3        1 SMH      0.126100
     20 O20         3.0000    3.0410    1.1780 oh        1 SMH     -0.629800
     21 C21         1.9140    5.1080    1.5640 c3        1 SMH      0.114800
     22 N22         1.5750    5.2480    0.1440 n7        1 SMH     -0.899200
     23 C23         0.2600    4.7000   -0.2210 c3        1 SMH      0.105800
     24 C24        -0.9110    5.1250    0.6710 c3        1 SMH      0.122400
     25 C25         3.2400    7.2080   -0.9680 ca        1 SMH     -0.562500
     26 C26         3.5320    6.6500   -2.2480 ca        1 SMH      0.080200
     27 C27         4.8450    6.5410   -2.7000 ca        1 SMH     -0.164500
     28 C28         5.9080    6.9790   -1.9120 ca        1 SMH      0.010000
     29 C29         5.6520    7.5360   -0.6610 ca        1 SMH     -0.164500
     30 C30         4.3460    7.6560   -0.1860 ca        1 SMH      0.080200
     31 C31         4.1630    8.2890    1.1450 c3        1 SMH     -0.108300
     32 C32         2.4560    6.1880   -3.1620 c3        1 SMH     -0.108300
     33 S33         1.7300    7.3630   -0.4600 s4        1 SMH      1.649300
     34 O34         0.7730    7.3750   -1.4330 o         1 SMH     -0.441400
     35 O35         1.5540    7.9730    0.7480 o         1 SMH     -0.441400
     36 O36        -0.8480    6.5370    0.8110 os        1 SMH     -0.472600
     37 C37        -1.7690    8.5740    1.5640 c3        1 SMH     -0.107100
     38 C38        -1.9750    7.0790    1.5150 c3        1 SMH      0.141400
     39 H2         -0.0170   -2.0630    0.1190 ha        1 SMH      0.161000
     40 H3          1.8190   -1.5430    1.7660 ha        1 SMH      0.158000
     41 H6         -2.9380   -0.4130    2.8790 ha        1 SMH      0.161000
     42 H9         -0.0270   -0.8180    6.3080 hc        1 SMH      0.094200
     43 H9A        -0.2260    0.9540    6.6390 hc        1 SMH      0.094200
     44 H11         0.9570    2.5900    5.4390 h1        1 SMH      0.043700
     45 H11A        0.5470    1.9800    3.7650 h1        1 SMH      0.043700
     46 H13         4.6470    2.3570    4.4730 h1        1 SMH      0.037200
     47 H13A        3.6070    2.8210    5.8960 h1        1 SMH      0.037200
     48 H14         4.5640    0.6250    6.2980 hc        1 SMH      0.065200
     49 H14A        4.0270   -0.0040    4.6820 hc        1 SMH      0.065200
     50 H15         2.2180    0.8250    7.0550 hc        1 SMH      0.065200
     51 H15A        2.4920   -0.8430    6.3900 hc        1 SMH      0.065200
     52 HO16       -3.3890   -1.4360    0.8320 ho        1 SMH      0.426000
     53 H18         3.6000    4.0970    3.5160 h1        1 SMH      0.050200
     54 H18A        1.8920    4.3630    4.0980 h1        1 SMH      0.050200
     55 H19         1.0750    3.1190    1.9660 h1        1 SMH      0.054700
     56 HO20        3.2240    2.1780    1.5520 ho        1 SMH      0.450000
     57 H21         2.8980    5.6360    1.7220 h1        1 SMH      0.089200
     58 H21A        1.1220    5.6260    2.1780 h1        1 SMH      0.089200
     59 H23         0.0470    5.0450   -1.2760 h1        1 SMH      0.090200
     60 H23A        0.2930    3.5720   -0.2120 h1        1 SMH      0.090200
     61 H24        -1.8690    4.8220    0.1690 h1        1 SMH      0.057200
     62 H24A       -0.8530    4.6400    1.6820 h1        1 SMH      0.057200
     63 H27         5.0480    6.1080   -3.6950 ha        1 SMH      0.169000
     64 H28         6.9460    6.8880   -2.2780 ha        1 SMH      0.169000
     65 H29         6.4930    7.8910   -0.0410 ha        1 SMH      0.169000
     66 H31         3.5650    9.2340    1.0580 hc        1 SMH      0.079867
     67 H31A        5.1490    8.5510    1.6040 hc        1 SMH      0.079867
     68 H31B        3.6270    7.6060    1.8530 hc        1 SMH      0.079867
     69 H32         1.8530    7.0600   -3.5300 hc        1 SMH      0.079867
     70 H32A        1.7590    5.4740   -2.6560 hc        1 SMH      0.079867
     71 H32B        2.8840    5.6680   -4.0570 hc        1 SMH      0.079867
     72 H37        -2.5030    9.0210    2.2760 hc        1 SMH      0.056700
     73 H37A       -0.7320    8.8130    1.9050 hc        1 SMH      0.056700
     74 H37B       -1.9210    9.0240    0.5540 hc        1 SMH      0.056700
     75 H38        -2.0030    6.6340    2.5460 h1        1 SMH      0.041200
     76 H38A       -2.9150    6.8080    0.9670 h1        1 SMH      0.041200
     77 H221        2.2750    4.7390   -0.3890 hn        1 SMH      0.422800
@<TRIPOS>BOND
     1    1    2 ar  
     2    1    6 ar  
     3    1   16 1   
     4    2    3 ar  
     5    2   39 1   
     6    3    4 ar  
     7    3   40 1   
     8    4    5 ar  
     9    4    7 1   
    10    5    6 ar  
    11    5   10 1   
    12    6   41 1   
    13    7    8 1   
    14    8    9 1   
    15    8   11 1   
    16    8   15 1   
    17    9   10 1   
    18    9   42 1   
    19    9   43 1   
    20   10   17 2   
    21   11   12 1   
    22   11   44 1   
    23   11   45 1   
    24   12   13 1   
    25   12   18 1   
    26   13   14 1   
    27   13   46 1   
    28   13   47 1   
    29   14   15 1   
    30   14   48 1   
    31   14   49 1   
    32   15   50 1   
    33   15   51 1   
    34   16   52 1   
    35   18   19 1   
    36   18   53 1   
    37   18   54 1   
    38   19   20 1   
    39   19   21 1   
    40   19   55 1   
    41   20   56 1   
    42   21   22 1   
    43   21   57 1   
    44   21   58 1   
    45   22   23 1   
    46   22   77 1   
    47   23   24 1   
    48   23   59 1   
    49   23   60 1   
    50   24   36 1   
    51   24   61 1   
    52   24   62 1   
    53   25   26 ar  
    54   25   30 ar  
    55   25   33 1   
    56   26   27 ar  
    57   26   32 1   
    58   27   28 ar  
    59   27   63 1   
    60   28   29 ar  
    61   28   64 1   
    62   29   30 ar  
    63   29   65 1   
    64   30   31 1   
    65   31   66 1   
    66   31   67 1   
    67   31   68 1   
    68   32   69 1   
    69   32   70 1   
    70   32   71 1   
    71   33   34 1   
    72   33   35 1   
    73   36   38 1   
    74   37   38 1   
    75   37   72 1   
    76   37   73 1   
    77   37   74 1   
    78   38   75 1   
    79   38   76 1   
@<TRIPOS>SUBSTRUCTURE
     1 SMH         1 TEMP              0 ****  ****    0 ROOT
