@<TRIPOS>MOLECULE
SMH
   76    79     1     0     0
SMALL
bcc


@<TRIPOS>ATOM
      1 C1          3.7030    0.3230   -3.9750 ca        1 SMH      0.079100
      2 C2          3.7680    1.5780   -3.3370 ca        1 SMH     -0.095000
      3 C3          4.0180    1.6420   -1.9760 ca        1 SMH     -0.135000
      4 C4          4.2160    0.4520   -1.2490 ca        1 SMH      0.146100
      5 C5          4.1650   -0.7980   -1.8850 ca        1 SMH     -0.211600
      6 C6          3.8970   -0.8590   -3.2590 ca        1 SMH     -0.127000
      7 O7          4.5110    0.6100    0.0890 os        1 SMH     -0.309900
      8 C8          4.2710   -0.5440    0.9230 c3        1 SMH      0.164800
      9 C9          4.8700   -1.8020    0.2980 c3        1 SMH     -0.209400
     10 C10         4.4040   -2.0260   -1.1140 c         1 SMH      0.588700
     11 C11         2.7540   -0.7460    1.1410 c3        1 SMH      0.141800
     12 N12         2.1130    0.2910    1.9300 n3        1 SMH     -0.716600
     13 C13         2.8110    0.5970    3.1750 c3        1 SMH      0.167800
     14 C14         4.2900    0.9020    2.9690 c3        1 SMH     -0.076400
     15 C15         4.9820   -0.2270    2.2420 c3        1 SMH     -0.071400
     16 O16         3.4420    0.3430   -5.3290 oh        1 SMH     -0.498100
     17 O17         4.2730   -3.1630   -1.5810 o         1 SMH     -0.532100
     18 C18         0.7030    0.0350    2.1830 c3        1 SMH      0.136800
     19 C19        -0.1230   -0.3960    0.9560 c3        1 SMH      0.126100
     20 O20         0.1370    0.3750   -0.1970 oh        1 SMH     -0.584800
     21 C21        -1.6130   -0.3510    1.3680 c3        1 SMH      0.199800
     22 N22        -2.5640   -0.5620    0.3150 n3        1 SMH     -0.792500
     23 C23        -2.3010   -1.6220   -0.6190 c3        1 SMH      0.209800
     24 C24        -2.2890   -3.0400   -0.0300 c3        1 SMH      0.111400
     25 C25        -3.3680    1.9200    0.1490 ca        1 SMH     -0.371500
     26 C26        -2.7450    2.3680   -1.0370 ca        1 SMH      0.047700
     27 C27        -2.3610    3.7070   -1.1820 ca        1 SMH     -0.175000
     28 C28        -2.5730    4.6180   -0.1540 ca        1 SMH     -0.061000
     29 C29        -3.1560    4.1870    1.0320 ca        1 SMH     -0.175000
     30 C30        -3.5480    2.8510    1.1930 ca        1 SMH      0.047700
     31 C31        -4.1520    2.4860    2.5000 c3        1 SMH     -0.097800
     32 C32        -2.4420    1.4540   -2.1690 c3        1 SMH     -0.097800
     33 S33        -3.9490    0.3140    0.2470 sy        1 SMH      1.510200
     34 O34        -4.6690    0.0110   -0.9280 o         1 SMH     -0.652800
     35 O35        -4.6780    0.1550    1.4410 o         1 SMH     -0.652800
     36 O36        -3.6360   -3.3760    0.2760 os        1 SMH     -0.419600
     37 C37        -5.2290   -4.8970    1.1170 c3        1 SMH     -0.098100
     38 C38        -3.7590   -4.6790    0.8460 c3        1 SMH      0.132400
     39 H2          3.6120    2.4920   -3.9300 ha        1 SMH      0.155000
     40 H3          4.0660    2.6070   -1.4520 ha        1 SMH      0.157000
     41 H6          3.8460   -1.8430   -3.7520 ha        1 SMH      0.156000
     42 H9          5.9890   -1.7010    0.2710 hc        1 SMH      0.086200
     43 H9A         4.6230   -2.6950    0.9300 hc        1 SMH      0.086200
     44 H11         2.2600   -0.7410    0.1250 h1        1 SMH      0.053200
     45 H11A        2.6150   -1.7680    1.6030 h1        1 SMH      0.053200
     46 H13         2.3130    1.5020    3.6250 h1        1 SMH      0.031700
     47 H13A        2.7180   -0.2500    3.9200 h1        1 SMH      0.031700
     48 H14         4.4040    1.8480    2.3760 hc        1 SMH      0.059200
     49 H14A        4.7650    1.0600    3.9710 hc        1 SMH      0.059200
     50 H15         4.9800   -1.1560    2.8690 hc        1 SMH      0.055700
     51 H15A        6.0460    0.0530    2.0300 hc        1 SMH      0.055700
     52 HO16        3.4150   -0.5740   -5.6390 ho        1 SMH      0.421000
     53 H18         0.5520   -0.7580    2.9740 h1        1 SMH      0.039700
     54 H18A        0.2780    1.0010    2.5800 h1        1 SMH      0.039700
     55 H19         0.1520   -1.4470    0.6510 h1        1 SMH      0.074700
     56 HO20        0.1070    1.3060    0.0590 ho        1 SMH      0.413000
     57 H21        -1.7560   -1.1320    2.1710 h1        1 SMH      0.048700
     58 H21A       -1.8280    0.6610    1.8260 h1        1 SMH      0.048700
     59 H23        -3.0910   -1.5880   -1.4280 h1        1 SMH      0.076700
     60 H23A       -1.2940   -1.4520   -1.1020 h1        1 SMH      0.076700
     61 H24        -1.8860   -3.7500   -0.8010 h1        1 SMH      0.029200
     62 H24A       -1.6560   -3.1030    0.8950 h1        1 SMH      0.029200
     63 H27        -1.8900    4.0400   -2.1200 ha        1 SMH      0.139000
     64 H28        -2.2770    5.6710   -0.2760 ha        1 SMH      0.135000
     65 H29        -3.3170    4.9030    1.8530 ha        1 SMH      0.139000
     66 H31        -5.2260    2.1930    2.3680 hc        1 SMH      0.068533
     67 H31A       -3.6180    1.6160    2.9590 hc        1 SMH      0.068533
     68 H31B       -4.1080    3.3420    3.2180 hc        1 SMH      0.068533
     69 H32        -3.3380    0.8500   -2.4640 hc        1 SMH      0.068533
     70 H32A       -2.1130    2.0310   -3.0690 hc        1 SMH      0.068533
     71 H32B       -1.6070    0.7610   -1.8830 hc        1 SMH      0.068533
     72 H37        -5.8120   -4.8380    0.1680 hc        1 SMH      0.048367
     73 H37A       -5.3730   -5.9040    1.5760 hc        1 SMH      0.048367
     74 H37B       -5.6150   -4.1160    1.8140 hc        1 SMH      0.048367
     75 H38        -3.3600   -5.4410    0.1240 h1        1 SMH      0.022200
     76 H38A       -3.1590   -4.7300    1.7940 h1        1 SMH      0.022200
@<TRIPOS>BOND
     1    1    2 ar  
     2    1    6 ar  
     3    1   16 1   
     4    2    3 ar  
     5    2   39 1   
     6    3    4 ar  
     7    3   40 1   
     8    4    5 ar  
     9    4    7 1   
    10    5    6 ar  
    11    5   10 1   
    12    6   41 1   
    13    7    8 1   
    14    8    9 1   
    15    8   11 1   
    16    8   15 1   
    17    9   10 1   
    18    9   42 1   
    19    9   43 1   
    20   10   17 2   
    21   11   12 1   
    22   11   44 1   
    23   11   45 1   
    24   12   13 1   
    25   12   18 1   
    26   13   14 1   
    27   13   46 1   
    28   13   47 1   
    29   14   15 1   
    30   14   48 1   
    31   14   49 1   
    32   15   50 1   
    33   15   51 1   
    34   16   52 1   
    35   18   19 1   
    36   18   53 1   
    37   18   54 1   
    38   19   20 1   
    39   19   21 1   
    40   19   55 1   
    41   20   56 1   
    42   21   22 1   
    43   21   57 1   
    44   21   58 1   
    45   22   23 1   
    46   22   33 1   
    47   23   24 1   
    48   23   59 1   
    49   23   60 1   
    50   24   36 1   
    51   24   61 1   
    52   24   62 1   
    53   25   26 ar  
    54   25   30 ar  
    55   25   33 1   
    56   26   27 ar  
    57   26   32 1   
    58   27   28 ar  
    59   27   63 1   
    60   28   29 ar  
    61   28   64 1   
    62   29   30 ar  
    63   29   65 1   
    64   30   31 1   
    65   31   66 1   
    66   31   67 1   
    67   31   68 1   
    68   32   69 1   
    69   32   70 1   
    70   32   71 1   
    71   33   34 2   
    72   33   35 2   
    73   36   38 1   
    74   37   38 1   
    75   37   72 1   
    76   37   73 1   
    77   37   74 1   
    78   38   75 1   
    79   38   76 1   
@<TRIPOS>SUBSTRUCTURE
     1 SMH         1 TEMP              0 ****  ****    0 ROOT
