@<TRIPOS>MOLECULE
SMH
   77    79     1     0     0
SMALL
bcc


@<TRIPOS>ATOM
      1 C1         -1.5700   -1.2590    1.4210 ca        1 SMH      0.080100
      2 C2         -0.2350   -1.5860    1.1090 ca        1 SMH     -0.096000
      3 C3          0.7730   -1.2910    2.0130 ca        1 SMH     -0.142000
      4 C4          0.4490   -0.6800    3.2400 ca        1 SMH      0.134100
      5 C5         -0.8830   -0.3690    3.5600 ca        1 SMH     -0.216600
      6 C6         -1.8970   -0.6560    2.6380 ca        1 SMH     -0.130000
      7 O7          1.5110   -0.4590    4.0930 os        1 SMH     -0.307900
      8 C8          1.2760    0.4830    5.1600 c3        1 SMH      0.164800
      9 C9         -0.0620    0.2200    5.8460 c3        1 SMH     -0.211400
     10 C10        -1.2030    0.2290    4.8650 c         1 SMH      0.583700
     11 C11         1.2930    1.9290    4.6110 c3        1 SMH      0.148800
     12 N12         2.5830    2.3420    4.0850 n3        1 SMH     -0.743600
     13 C13         3.6780    2.1420    5.0260 c3        1 SMH      0.173800
     14 C14         3.7470    0.7080    5.5470 c3        1 SMH     -0.078400
     15 C15         2.4300    0.2690    6.1440 c3        1 SMH     -0.073400
     16 O16        -2.5070   -1.5470    0.4550 oh        1 SMH     -0.495100
     17 O17        -2.3130    0.6860    5.1530 o         1 SMH     -0.520100
     18 C18         2.5510    3.6770    3.5150 c3        1 SMH      0.144800
     19 C19         2.0590    3.6570    2.0530 c3        1 SMH      0.126100
     20 O20         2.9960    3.0380    1.1860 oh        1 SMH     -0.629800
     21 C21         1.9120    5.1090    1.5580 c3        1 SMH      0.114800
     22 N22         1.5750    5.2410    0.1370 n3        1 SMH     -0.899200
     23 C23         0.2590    4.6940   -0.2260 c3        1 SMH      0.105800
     24 C24        -0.9120    5.1290    0.6610 c3        1 SMH      0.122400
     25 C25         3.2470    7.1880   -0.9840 ca        1 SMH     -0.562500
     26 C26         3.5390    6.6210   -2.2610 ca        1 SMH      0.080200
     27 C27         4.8530    6.5050   -2.7100 ca        1 SMH     -0.164500
     28 C28         5.9160    6.9440   -1.9220 ca        1 SMH      0.010000
     29 C29         5.6600    7.5100   -0.6760 ca        1 SMH     -0.164500
     30 C30         4.3530    7.6380   -0.2040 ca        1 SMH      0.080200
     31 C31         4.1700    8.2800    1.1220 c3        1 SMH     -0.108300
     32 C32         2.4640    6.1560   -3.1740 c3        1 SMH     -0.108300
     33 S33         1.7370    7.3510   -0.4800 s4        1 SMH      1.649300
     34 O34         0.7820    7.3600   -1.4540 o         1 SMH     -0.441400
     35 O35         1.5610    7.9690    0.7230 o         1 SMH     -0.441400
     36 O36        -0.8450    6.5420    0.7920 os        1 SMH     -0.472600
     37 C37        -1.7620    8.5860    1.5280 c3        1 SMH     -0.107100
     38 C38        -1.9720    7.0910    1.4900 c3        1 SMH      0.141400
     39 H2         -0.0110   -2.0750    0.1480 ha        1 SMH      0.161000
     40 H3          1.8210   -1.5430    1.7960 ha        1 SMH      0.158000
     41 H6         -2.9400   -0.4120    2.8940 ha        1 SMH      0.161000
     42 H9         -0.2370    0.9790    6.6510 hc        1 SMH      0.094200
     43 H9A        -0.0350   -0.7950    6.3300 hc        1 SMH      0.094200
     44 H11         0.5410    1.9900    3.7740 h1        1 SMH      0.043700
     45 H11A        0.9470    2.6090    5.4450 h1        1 SMH      0.043700
     46 H13         3.5950    2.8460    5.9060 h1        1 SMH      0.037200
     47 H13A        4.6400    2.3760    4.4870 h1        1 SMH      0.037200
     48 H14         4.5540    0.6530    6.3220 hc        1 SMH      0.065200
     49 H14A        4.0210    0.0150    4.7080 hc        1 SMH      0.065200
     50 H15         2.2060    0.8550    7.0730 hc        1 SMH      0.065200
     51 H15A        2.4840   -0.8170    6.4170 hc        1 SMH      0.065200
     52 HO16       -3.3860   -1.4470    0.8510 ho        1 SMH      0.426000
     53 H18         3.5920    4.1090    3.5190 h1        1 SMH      0.050200
     54 H18A        1.8840    4.3770    4.0970 h1        1 SMH      0.050200
     55 H19         1.0700    3.1230    1.9710 h1        1 SMH      0.054700
     56 HO20        3.2180    2.1760    1.5660 ho        1 SMH      0.450000
     57 H21         1.1210    5.6310    2.1680 h1        1 SMH      0.089200
     58 H21A        2.8970    5.6360    1.7140 h1        1 SMH      0.089200
     59 H23         0.2890    3.5660   -0.2100 h1        1 SMH      0.090200
     60 H23A        0.0480    5.0320   -1.2840 h1        1 SMH      0.090200
     61 H24        -0.8570    4.6500    1.6760 h1        1 SMH      0.057200
     62 H24A       -1.8710    4.8250    0.1600 h1        1 SMH      0.057200
     63 H27         5.0560    6.0640   -3.7010 ha        1 SMH      0.169000
     64 H28         6.9540    6.8470   -2.2860 ha        1 SMH      0.169000
     65 H29         6.5010    7.8670   -0.0570 ha        1 SMH      0.169000
     66 H31         5.1560    8.5430    1.5820 hc        1 SMH      0.079867
     67 H31A        3.5750    9.2260    1.0280 hc        1 SMH      0.079867
     68 H31B        3.6310    7.6040    1.8340 hc        1 SMH      0.079867
     69 H32         2.8920    5.6290   -4.0640 hc        1 SMH      0.079867
     70 H32A        1.8640    7.0290   -3.5480 hc        1 SMH      0.079867
     71 H32B        1.7640    5.4480   -2.6640 hc        1 SMH      0.079867
     72 H37        -0.7250    8.8250    1.8690 hc        1 SMH      0.056700
     73 H37A       -2.4960    9.0410    2.2350 hc        1 SMH      0.056700
     74 H37B       -1.9100    9.0290    0.5150 hc        1 SMH      0.056700
     75 H38        -2.9120    6.8200    0.9420 h1        1 SMH      0.041200
     76 H38A       -2.0040    6.6540    2.5230 h1        1 SMH      0.041200
     77 H221        2.2750    4.7260   -0.3920 hn        1 SMH      0.422800
@<TRIPOS>BOND
     1    1    2 ar  
     2    1    6 ar  
     3    1   16 1   
     4    2    3 ar  
     5    2   39 1   
     6    3    4 ar  
     7    3   40 1   
     8    4    5 ar  
     9    4    7 1   
    10    5    6 ar  
    11    5   10 1   
    12    6   41 1   
    13    7    8 1   
    14    8    9 1   
    15    8   11 1   
    16    8   15 1   
    17    9   10 1   
    18    9   42 1   
    19    9   43 1   
    20   10   17 2   
    21   11   12 1   
    22   11   44 1   
    23   11   45 1   
    24   12   13 1   
    25   12   18 1   
    26   13   14 1   
    27   13   46 1   
    28   13   47 1   
    29   14   15 1   
    30   14   48 1   
    31   14   49 1   
    32   15   50 1   
    33   15   51 1   
    34   16   52 1   
    35   18   19 1   
    36   18   53 1   
    37   18   54 1   
    38   19   20 1   
    39   19   21 1   
    40   19   55 1   
    41   20   56 1   
    42   21   22 1   
    43   21   57 1   
    44   21   58 1   
    45   22   23 1   
    46   22   77 1   
    47   23   24 1   
    48   23   59 1   
    49   23   60 1   
    50   24   36 1   
    51   24   61 1   
    52   24   62 1   
    53   25   26 ar  
    54   25   30 ar  
    55   25   33 1   
    56   26   27 ar  
    57   26   32 1   
    58   27   28 ar  
    59   27   63 1   
    60   28   29 ar  
    61   28   64 1   
    62   29   30 ar  
    63   29   65 1   
    64   30   31 1   
    65   31   66 1   
    66   31   67 1   
    67   31   68 1   
    68   32   69 1   
    69   32   70 1   
    70   32   71 1   
    71   33   34 1   
    72   33   35 1   
    73   36   38 1   
    74   37   38 1   
    75   37   72 1   
    76   37   73 1   
    77   37   74 1   
    78   38   75 1   
    79   38   76 1   
@<TRIPOS>SUBSTRUCTURE
     1 SMH         1 TEMP              0 ****  ****    0 ROOT
