@<TRIPOS>MOLECULE
SMH
   77    79     1     0     0
SMALL
bcc


@<TRIPOS>ATOM
      1 C1         -0.2820   -1.5960    1.0080 ca        1 SMH      0.080100
      2 C2          1.1260   -1.5960    0.9820 ca        1 SMH     -0.097000
      3 C3          1.8320   -1.1330    2.0810 ca        1 SMH     -0.143000
      4 C4          1.1320   -0.6800    3.2170 ca        1 SMH      0.134100
      5 C5         -0.2720   -0.6970    3.2510 ca        1 SMH     -0.215600
      6 C6         -0.9810   -1.1520    2.1320 ca        1 SMH     -0.129000
      7 O7          1.9170   -0.2720    4.2760 os        1 SMH     -0.307900
      8 C8          1.2570    0.5320    5.2760 c3        1 SMH      0.164800
      9 C9         -0.0940   -0.0650    5.6620 c3        1 SMH     -0.211400
     10 C10        -0.9810   -0.2620    4.4640 c         1 SMH      0.583700
     11 C11         1.0490    1.9720    4.7520 c3        1 SMH      0.147800
     12 N12         2.2870    2.6940    4.5120 n3        1 SMH     -0.744600
     13 C13         3.1830    2.6960    5.6630 c3        1 SMH      0.172800
     14 C14         3.4760    1.2880    6.1760 c3        1 SMH     -0.078400
     15 C15         2.2040    0.5300    6.4790 c3        1 SMH     -0.073400
     16 O16        -0.9100   -2.0330   -0.1370 oh        1 SMH     -0.495100
     17 O17        -2.2030   -0.0890    4.5140 o         1 SMH     -0.520100
     18 C18         2.0620    4.0190    3.9610 c3        1 SMH      0.144800
     19 C19         1.8780    3.9740    2.4300 c3        1 SMH      0.123100
     20 O20         3.0710    3.5860    1.7630 oh        1 SMH     -0.639800
     21 C21         1.5590    5.3930    1.9240 c3        1 SMH      0.103800
     22 N22         1.3930    5.4840    0.4680 n3        1 SMH     -0.900200
     23 C23         0.0460    5.1730   -0.0290 c3        1 SMH      0.117800
     24 C24        -1.1450    5.6710    0.7970 c3        1 SMH      0.123400
     25 C25         3.2030    6.7710   -1.2700 ca        1 SMH     -0.569500
     26 C26         2.9600    6.6650   -2.6750 ca        1 SMH      0.087700
     27 C27         3.9380    6.1700   -3.5340 ca        1 SMH     -0.168000
     28 C28         5.1770    5.7570   -3.0460 ca        1 SMH      0.013000
     29 C29         5.4330    5.8300   -1.6790 ca        1 SMH     -0.168000
     30 C30         4.4700    6.3180   -0.7960 ca        1 SMH      0.087700
     31 C31         4.8230    6.3250    0.6460 c3        1 SMH     -0.120300
     32 C32         1.6750    7.0890   -3.2880 c3        1 SMH     -0.120300
     33 S33         2.1250    7.4320   -0.2950 s4        1 SMH      1.643300
     34 O34         0.9890    7.9110   -0.8770 o         1 SMH     -0.442900
     35 O35         2.5770    7.9490    0.8850 o         1 SMH     -0.442900
     36 O36        -0.8970    7.0130    1.1880 os        1 SMH     -0.454600
     37 C37        -1.6730    9.1020    1.9680 c3        1 SMH     -0.102100
     38 C38        -2.0960    7.7170    1.5450 c3        1 SMH      0.135400
     39 H2          1.6490   -1.9680    0.0880 ha        1 SMH      0.160000
     40 H3          2.9320   -1.1290    2.0900 ha        1 SMH      0.157000
     41 H6         -2.0820   -1.1650    2.1640 ha        1 SMH      0.161000
     42 H9         -0.6010    0.5910    6.4160 hc        1 SMH      0.094700
     43 H9A         0.0700   -1.0710    6.1360 hc        1 SMH      0.094700
     44 H11         0.3920    2.5100    5.4990 h1        1 SMH      0.044200
     45 H11A        0.4900    1.9090    3.7760 h1        1 SMH      0.044200
     46 H13         2.7600    3.3120    6.5100 h1        1 SMH      0.038200
     47 H13A        4.1520    3.1710    5.3410 h1        1 SMH      0.038200
     48 H14         4.0690    0.7220    5.4110 hc        1 SMH      0.064700
     49 H14A        4.0980    1.3740    7.1050 hc        1 SMH      0.064700
     50 H15         2.4520   -0.5300    6.7500 hc        1 SMH      0.064700
     51 H15A        1.6660    0.9980    7.3440 hc        1 SMH      0.064700
     52 HO16       -1.8500   -2.1550    0.0650 ho        1 SMH      0.426000
     53 H18         1.1520    4.5190    4.4040 h1        1 SMH      0.053200
     54 H18A        2.9550    4.6710    4.1780 h1        1 SMH      0.053200
     55 H19         1.0500    3.2640    2.1470 h1        1 SMH      0.054700
     56 HO20        3.3740    2.7600    2.1640 ho        1 SMH      0.452000
     57 H21         0.6380    5.7750    2.4490 h1        1 SMH      0.102700
     58 H21A        2.4170    6.0720    2.2080 h1        1 SMH      0.102700
     59 H23        -0.0250    5.6340   -1.0580 h1        1 SMH      0.076700
     60 H23A       -0.0790    4.0550   -0.1310 h1        1 SMH      0.076700
     61 H24        -1.2930    5.0410    1.7160 h1        1 SMH      0.056200
     62 H24A       -2.0640    5.6000    0.1540 h1        1 SMH      0.056200
     63 H27         3.7330    6.1070   -4.6170 ha        1 SMH      0.169500
     64 H28         5.9470    5.3720   -3.7370 ha        1 SMH      0.169000
     65 H29         6.4100    5.4950   -1.2900 ha        1 SMH      0.169500
     66 H31         5.8940    6.0320    0.7950 hc        1 SMH      0.085033
     67 H31A        4.6910    7.3370    1.1080 hc        1 SMH      0.085033
     68 H31B        4.1960    5.5780    1.2030 hc        1 SMH      0.085033
     69 H32         1.5140    8.1910   -3.1590 hc        1 SMH      0.085033
     70 H32A        0.8070    6.5540   -2.8250 hc        1 SMH      0.085033
     71 H32B        1.6630    6.8700   -4.3860 hc        1 SMH      0.085033
     72 H37        -0.9820    9.0530    2.8430 hc        1 SMH      0.054033
     73 H37A       -2.5790    9.6890    2.2520 hc        1 SMH      0.054033
     74 H37B       -1.1480    9.6240    1.1320 hc        1 SMH      0.054033
     75 H38        -2.7780    7.7530    0.6540 h1        1 SMH      0.040200
     76 H38A       -2.6060    7.1700    2.3810 h1        1 SMH      0.040200
     77 H221        2.0350    4.8160    0.0470 hn        1 SMH      0.418800
@<TRIPOS>BOND
     1    1    2 ar  
     2    1    6 ar  
     3    1   16 1   
     4    2    3 ar  
     5    2   39 1   
     6    3    4 ar  
     7    3   40 1   
     8    4    5 ar  
     9    4    7 1   
    10    5    6 ar  
    11    5   10 1   
    12    6   41 1   
    13    7    8 1   
    14    8    9 1   
    15    8   11 1   
    16    8   15 1   
    17    9   10 1   
    18    9   42 1   
    19    9   43 1   
    20   10   17 2   
    21   11   12 1   
    22   11   44 1   
    23   11   45 1   
    24   12   13 1   
    25   12   18 1   
    26   13   14 1   
    27   13   46 1   
    28   13   47 1   
    29   14   15 1   
    30   14   48 1   
    31   14   49 1   
    32   15   50 1   
    33   15   51 1   
    34   16   52 1   
    35   18   19 1   
    36   18   53 1   
    37   18   54 1   
    38   19   20 1   
    39   19   21 1   
    40   19   55 1   
    41   20   56 1   
    42   21   22 1   
    43   21   57 1   
    44   21   58 1   
    45   22   23 1   
    46   22   77 1   
    47   23   24 1   
    48   23   59 1   
    49   23   60 1   
    50   24   36 1   
    51   24   61 1   
    52   24   62 1   
    53   25   26 ar  
    54   25   30 ar  
    55   25   33 1   
    56   26   27 ar  
    57   26   32 1   
    58   27   28 ar  
    59   27   63 1   
    60   28   29 ar  
    61   28   64 1   
    62   29   30 ar  
    63   29   65 1   
    64   30   31 1   
    65   31   66 1   
    66   31   67 1   
    67   31   68 1   
    68   32   69 1   
    69   32   70 1   
    70   32   71 1   
    71   33   34 1   
    72   33   35 1   
    73   36   38 1   
    74   37   38 1   
    75   37   72 1   
    76   37   73 1   
    77   37   74 1   
    78   38   75 1   
    79   38   76 1   
@<TRIPOS>SUBSTRUCTURE
     1 SMH         1 TEMP              0 ****  ****    0 ROOT
