@<TRIPOS>MOLECULE
SMI
   50    52     1     0     0
SMALL
bcc


@<TRIPOS>ATOM
      1 O1          1.9060    1.7200   -0.6560 os        1 SMI     -0.421600
      2 C2          3.2260    1.4150   -1.1290 c3        1 SMI      0.150100
      3 C2M         3.3600    2.1090   -2.4700 c3        1 SMI     -0.093100
      4 C3          3.4040   -0.0920   -1.2580 c3        1 SMI     -0.129400
      5 C4          3.1640   -0.7920    0.0800 c3        1 SMI      0.373600
      6 C5          1.8170   -0.3370    0.7170 c3        1 SMI      0.278600
      7 O5          1.8290   -0.7730    2.0550 oh        1 SMI     -0.603800
      8 C6          1.6570    1.2090    0.6390 c3        1 SMI      0.294900
      9 O1B         0.7740   -1.0430    0.0700 os        1 SMI     -0.409600
     10 O2B         0.3340    1.6150    0.9050 os        1 SMI     -0.386600
     11 C7         -0.5370   -0.5600    0.3910 c3        1 SMI      0.094100
     12 C8         -1.5510   -1.3360   -0.4710 c3        1 SMI      0.156500
     13 N8         -1.4450   -2.7830   -0.3200 n3        1 SMI     -0.834200
     14 C8M        -1.7290   -3.5180   -1.5240 c3        1 SMI      0.153100
     15 C9         -2.9600   -0.8360   -0.0540 c3        1 SMI      0.113100
     16 O9         -3.2210   -1.0540    1.3230 oh        1 SMI     -0.610800
     17 C10        -3.1070    0.6870   -0.3100 c3        1 SMI      0.142500
     18 N10        -4.4250    1.2100    0.0200 n3        1 SMI     -0.825200
     19 C1M        -5.4550    0.8960   -0.9330 c3        1 SMI      0.152100
     20 C11        -2.0130    1.4840    0.4550 c3        1 SMI      0.167100
     21 O11        -2.0140    2.8420    0.0500 oh        1 SMI     -0.584800
     22 C12        -0.6300    0.9380    0.0820 c3        1 SMI      0.113100
     23 O4A         3.1390   -2.1960   -0.0300 oh        1 SMI     -0.613300
     24 O4B         4.2460   -0.5130    0.9400 oh        1 SMI     -0.613300
     25 H2          3.9770    1.8200   -0.3930 h1        1 SMI      0.058700
     26 H2M         3.1790    3.2040   -2.3500 hc        1 SMI      0.050367
     27 H2MA        4.3890    1.9440   -2.8690 hc        1 SMI      0.050367
     28 H2MB        2.6140    1.7060   -3.1950 hc        1 SMI      0.050367
     29 H3          2.6670   -0.5080   -1.9930 hc        1 SMI      0.076700
     30 H3A         4.4420   -0.3150   -1.6120 hc        1 SMI      0.076700
     31 HO5         1.0910   -0.3480    2.5130 ho        1 SMI      0.423000
     32 H6          2.2990    1.7100    1.4170 h2        1 SMI      0.098700
     33 H7         -0.7420   -0.7480    1.4830 h1        1 SMI      0.070700
     34 H8         -1.3920   -1.0290   -1.5500 h1        1 SMI      0.050700
     35 HN8        -0.5390   -3.0250    0.0410 hn        1 SMI      0.391800
     36 H8M        -1.6440   -4.6130   -1.2960 h1        1 SMI      0.031700
     37 H8MA       -2.7780   -3.2970   -1.8530 h1        1 SMI      0.031700
     38 H8MB       -1.0370   -3.2760   -2.3780 h1        1 SMI      0.031700
     39 H9         -3.7310   -1.3870   -0.6670 h1        1 SMI      0.042700
     40 HO9        -3.1050   -1.9990    1.4880 ho        1 SMI      0.425000
     41 H10        -2.9300    0.8550   -1.4140 h1        1 SMI      0.071700
     42 HN10       -4.6830    0.9100    0.9430 hn        1 SMI      0.377800
     43 H1M        -6.4100    1.3730   -0.5860 h1        1 SMI      0.032033
     44 H1MA       -5.1810    1.3260   -1.9320 h1        1 SMI      0.032033
     45 H1MB       -5.6370   -0.2060   -1.0630 h1        1 SMI      0.032033
     46 H11        -2.1730    1.4030    1.5650 h1        1 SMI      0.062700
     47 HO11       -2.8670    3.2150    0.3100 ho        1 SMI      0.418000
     48 H12        -0.4010    1.1500   -0.9980 h1        1 SMI      0.092700
     49 HO4A        3.9730   -2.4620   -0.4400 ho        1 SMI      0.427000
     50 HO4B        4.0640   -0.9400    1.7900 ho        1 SMI      0.427000
@<TRIPOS>BOND
     1    1    2 1   
     2    1    8 1   
     3    2    3 1   
     4    2    4 1   
     5    2   25 1   
     6    3   26 1   
     7    3   27 1   
     8    3   28 1   
     9    4    5 1   
    10    4   29 1   
    11    4   30 1   
    12    5    6 1   
    13    5   23 1   
    14    5   24 1   
    15    6    7 1   
    16    6    8 1   
    17    6    9 1   
    18    7   31 1   
    19    8   10 1   
    20    8   32 1   
    21    9   11 1   
    22   10   22 1   
    23   11   12 1   
    24   11   22 1   
    25   11   33 1   
    26   12   13 1   
    27   12   15 1   
    28   12   34 1   
    29   13   14 1   
    30   13   35 1   
    31   14   36 1   
    32   14   37 1   
    33   14   38 1   
    34   15   16 1   
    35   15   17 1   
    36   15   39 1   
    37   16   40 1   
    38   17   18 1   
    39   17   20 1   
    40   17   41 1   
    41   18   19 1   
    42   18   42 1   
    43   19   43 1   
    44   19   44 1   
    45   19   45 1   
    46   20   21 1   
    47   20   22 1   
    48   20   46 1   
    49   21   47 1   
    50   22   48 1   
    51   23   49 1   
    52   24   50 1   
@<TRIPOS>SUBSTRUCTURE
     1 SMI         1 TEMP              0 ****  ****    0 ROOT
