@<TRIPOS>MOLECULE
SMI
   52    54     1     0     0
SMALL
bcc


@<TRIPOS>ATOM
      1 O1         -0.0510    0.0940   -0.0770 os        1 SMI     -0.437600
      2 C2          1.3860    0.1580   -0.1360 c3        1 SMI      0.149100
      3 C2M         1.8170   -0.9550   -1.0690 c3        1 SMI     -0.097100
      4 C3          1.9670   -0.0210    1.2610 c3        1 SMI     -0.165400
      5 C4          1.4190    1.0050    2.2470 c3        1 SMI      0.352600
      6 C5         -0.1310    1.1780    2.1240 c3        1 SMI      0.291600
      7 O5         -0.6200    2.3270    2.7450 oh        1 SMI     -0.597800
      8 C6         -0.6180    1.1640    0.6470 c3        1 SMI      0.329900
      9 O1B        -0.7060    0.1080    2.8930 os        1 SMI     -0.442600
     10 O2B        -2.0080    0.9170    0.5170 os        1 SMI     -0.377600
     11 C7         -2.1180    0.0220    2.7370 c3        1 SMI      0.092100
     12 C8         -2.5830   -1.1890    3.5750 c3        1 SMI      0.111500
     13 N8         -2.1390   -0.9990    4.9990 ny        1 SMI     -0.757000
     14 C8M        -2.0970   -2.2510    5.7840 c3        1 SMI      0.075100
     15 C9         -4.1200   -1.3600    3.4400 c3        1 SMI      0.114100
     16 O9         -4.7680   -0.2290    3.9930 oh        1 SMI     -0.593800
     17 C10        -4.5110   -1.4650    1.9400 c3        1 SMI      0.108500
     18 N10        -6.0020   -1.5600    1.7550 ny        1 SMI     -0.757000
     19 C1M        -6.5500   -2.9080    2.0200 c3        1 SMI      0.075100
     20 C11        -3.9770   -0.2590    1.1110 c3        1 SMI      0.141100
     21 O11        -4.3740   -0.5090   -0.2220 oh        1 SMI     -0.622800
     22 C12        -2.4560   -0.2130    1.2640 c3        1 SMI      0.088100
     23 O4A         1.6640    0.6360    3.5860 oh        1 SMI     -0.616300
     24 O4B         1.9980    2.2860    2.1690 oh        1 SMI     -0.616300
     25 H2          1.6830    1.1610   -0.5560 h1        1 SMI      0.056700
     26 H2M         2.9280   -0.9290   -1.1840 hc        1 SMI      0.066033
     27 H2MA        1.3420   -0.8180   -2.0710 hc        1 SMI      0.066033
     28 H2MB        1.5130   -1.9500   -0.6650 hc        1 SMI      0.066033
     29 H3          3.0850    0.0620    1.2160 hc        1 SMI      0.095200
     30 H3A         1.7140   -1.0420    1.6500 hc        1 SMI      0.095200
     31 HO5         0.0770    2.7030    3.3080 ho        1 SMI      0.463000
     32 H6         -0.4550    2.1670    0.1580 h2        1 SMI      0.135700
     33 H7         -2.5990    0.9770    3.1000 h1        1 SMI      0.116700
     34 H8         -2.0750   -2.1240    3.1880 hx        1 SMI      0.132700
     35 HN8        -1.1820   -0.5900    4.9600 hn        1 SMI      0.482800
     36 H8M        -3.1170   -2.7170    5.8210 hx        1 SMI      0.114033
     37 H8MA       -1.3680   -2.9690    5.3170 hx        1 SMI      0.114033
     38 H8MB       -1.7560   -2.0140    6.8310 hx        1 SMI      0.114033
     39 H9         -4.4280   -2.3110    3.9630 h1        1 SMI      0.074700
     40 HO9        -5.2740   -0.5060    4.7700 ho        1 SMI      0.444000
     41 H10        -4.0600   -2.4130    1.5150 hx        1 SMI      0.132700
     42 HN10       -6.2030   -1.3050    0.7680 hn        1 SMI      0.481300
     43 H1M        -6.3340   -3.2110    3.0780 hx        1 SMI      0.115033
     44 H1MA       -7.6650   -2.8860    1.8590 hx        1 SMI      0.115033
     45 H1MB       -6.0930   -3.6520    1.3110 hx        1 SMI      0.115033
     46 H11        -4.4320    0.7080    1.4730 h1        1 SMI      0.099700
     47 HO11       -3.8500    0.0680   -0.8040 ho        1 SMI      0.486000
     48 H12        -1.9630   -1.1400    0.8600 h1        1 SMI      0.104700
     49 HO4A        2.5260    1.0000    3.8450 ho        1 SMI      0.451500
     50 HO4B        2.4560    2.3920    1.3250 ho        1 SMI      0.451500
     51 H82        -2.7570   -0.3120    5.4490 hn        1 SMI      0.482800
     52 H102       -6.4530   -0.8630    2.3620 hn        1 SMI      0.481300
@<TRIPOS>BOND
     1    1    2 1   
     2    1    8 1   
     3    2    3 1   
     4    2    4 1   
     5    2   25 1   
     6    3   26 1   
     7    3   27 1   
     8    3   28 1   
     9    4    5 1   
    10    4   29 1   
    11    4   30 1   
    12    5    6 1   
    13    5   23 1   
    14    5   24 1   
    15    6    7 1   
    16    6    8 1   
    17    6    9 1   
    18    7   31 1   
    19    8   10 1   
    20    8   32 1   
    21    9   11 1   
    22   10   22 1   
    23   11   12 1   
    24   11   22 1   
    25   11   33 1   
    26   12   13 1   
    27   12   15 1   
    28   12   34 1   
    29   13   14 1   
    30   13   35 1   
    31   13   51 1   
    32   14   36 1   
    33   14   37 1   
    34   14   38 1   
    35   15   16 1   
    36   15   17 1   
    37   15   39 1   
    38   16   40 1   
    39   17   18 1   
    40   17   20 1   
    41   17   41 1   
    42   18   19 1   
    43   18   42 1   
    44   18   52 1   
    45   19   43 1   
    46   19   44 1   
    47   19   45 1   
    48   20   21 1   
    49   20   22 1   
    50   20   46 1   
    51   21   47 1   
    52   22   48 1   
    53   23   49 1   
    54   24   50 1   
@<TRIPOS>SUBSTRUCTURE
     1 SMI         1 TEMP              0 ****  ****    0 ROOT
