@<TRIPOS>MOLECULE
SMI
   52    54     1     0     0
SMALL
bcc


@<TRIPOS>ATOM
      1 O1         -0.0540    0.0940   -0.0820 os        1 SMI     -0.437600
      2 C2          1.3830    0.1650   -0.1410 c3        1 SMI      0.149100
      3 C2M         1.8190   -0.9490   -1.0710 c3        1 SMI     -0.097100
      4 C3          1.9650   -0.0060    1.2550 c3        1 SMI     -0.165400
      5 C4          1.4120    1.0210    2.2380 c3        1 SMI      0.352600
      6 C5         -0.1390    1.1850    2.1150 c3        1 SMI      0.291600
      7 O5         -0.6340    2.3340    2.7320 oh        1 SMI     -0.597800
      8 C6         -0.6260    1.1640    0.6380 c3        1 SMI      0.329900
      9 O1B        -0.7090    0.1150    2.8870 os        1 SMI     -0.442600
     10 O2B        -2.0150    0.9100    0.5090 os        1 SMI     -0.377600
     11 C7         -2.1200    0.0220    2.7330 c3        1 SMI      0.092100
     12 C8         -2.5790   -1.1880    3.5750 c3        1 SMI      0.111500
     13 N8         -2.1360   -0.9910    4.9980 n4        1 SMI     -0.757000
     14 C8M        -2.0880   -2.2400    5.7870 c3        1 SMI      0.075100
     15 C9         -4.1160   -1.3670    3.4400 c3        1 SMI      0.114100
     16 O9         -4.7680   -0.2380    3.9890 oh        1 SMI     -0.593800
     17 C10        -4.5060   -1.4800    1.9410 c3        1 SMI      0.108500
     18 N10        -5.9970   -1.5830    1.7560 n4        1 SMI     -0.757000
     19 C1M        -6.5380   -2.9330    2.0270 c3        1 SMI      0.075100
     20 C11        -3.9780   -0.2740    1.1070 c3        1 SMI      0.141100
     21 O11        -4.3740   -0.5300   -0.2240 oh        1 SMI     -0.622800
     22 C12        -2.4570   -0.2200    1.2600 c3        1 SMI      0.088100
     23 O4A         1.6590    0.6580    3.5780 oh        1 SMI     -0.616300
     24 O4B         1.9840    2.3050    2.1560 oh        1 SMI     -0.616300
     25 H2          1.6740    1.1680   -0.5660 h1        1 SMI      0.056700
     26 H2M         2.9290   -0.9180   -1.1860 hc        1 SMI      0.066033
     27 H2MA        1.3430   -0.8170   -2.0730 hc        1 SMI      0.066033
     28 H2MB        1.5200   -1.9430   -0.6630 hc        1 SMI      0.066033
     29 H3          3.0820    0.0830    1.2100 hc        1 SMI      0.095200
     30 H3A         1.7170   -1.0270    1.6490 hc        1 SMI      0.095200
     31 HO5         0.0610    2.7160    3.2930 ho        1 SMI      0.463000
     32 H6         -0.4680    2.1660    0.1460 h2        1 SMI      0.135700
     33 H7         -2.6060    0.9760    3.0920 h1        1 SMI      0.116700
     34 H8         -2.0670   -2.1230    3.1910 hx        1 SMI      0.132700
     35 HN8        -1.1810   -0.5780    4.9570 hn        1 SMI      0.482800
     36 H8M        -1.7480   -1.9970    6.8340 hx        1 SMI      0.114033
     37 H8MA       -3.1060   -2.7100    5.8270 hx        1 SMI      0.114033
     38 H8MB       -1.3560   -2.9570    5.3230 hx        1 SMI      0.114033
     39 H9         -4.4190   -2.3170    3.9670 h1        1 SMI      0.074700
     40 HO9        -5.2740   -0.5140    4.7680 ho        1 SMI      0.444000
     41 H10        -4.0500   -2.4270    1.5200 hx        1 SMI      0.132700
     42 HN10       -6.4510   -0.8850    2.3610 hn        1 SMI      0.481300
     43 H1M        -7.6540   -2.9160    1.8650 hx        1 SMI      0.115033
     44 H1MA       -6.0770   -3.6760    1.3200 hx        1 SMI      0.115033
     45 H1MB       -6.3200   -3.2310    3.0860 hx        1 SMI      0.115033
     46 H11        -4.4380    0.6920    1.4660 h1        1 SMI      0.099700
     47 HO11       -3.8530    0.0470   -0.8090 ho        1 SMI      0.486000
     48 H12        -1.9600   -1.1460    0.8590 h1        1 SMI      0.104700
     49 HO4A        2.5190    1.0270    3.8360 ho        1 SMI      0.451500
     50 HO4B        2.4420    2.4100    1.3110 ho        1 SMI      0.451500
     51 H82        -2.7570   -0.3050    5.4450 hn        1 SMI      0.482800
     52 H102       -6.1990   -1.3320    0.7690 hn        1 SMI      0.481300
@<TRIPOS>BOND
     1    1    2 1   
     2    1    8 1   
     3    2    3 1   
     4    2    4 1   
     5    2   25 1   
     6    3   26 1   
     7    3   27 1   
     8    3   28 1   
     9    4    5 1   
    10    4   29 1   
    11    4   30 1   
    12    5    6 1   
    13    5   23 1   
    14    5   24 1   
    15    6    7 1   
    16    6    8 1   
    17    6    9 1   
    18    7   31 1   
    19    8   10 1   
    20    8   32 1   
    21    9   11 1   
    22   10   22 1   
    23   11   12 1   
    24   11   22 1   
    25   11   33 1   
    26   12   13 1   
    27   12   15 1   
    28   12   34 1   
    29   13   14 1   
    30   13   35 1   
    31   13   51 1   
    32   14   36 1   
    33   14   37 1   
    34   14   38 1   
    35   15   16 1   
    36   15   17 1   
    37   15   39 1   
    38   16   40 1   
    39   17   18 1   
    40   17   20 1   
    41   17   41 1   
    42   18   19 1   
    43   18   42 1   
    44   18   52 1   
    45   19   43 1   
    46   19   44 1   
    47   19   45 1   
    48   20   21 1   
    49   20   22 1   
    50   20   46 1   
    51   21   47 1   
    52   22   48 1   
    53   23   49 1   
    54   24   50 1   
@<TRIPOS>SUBSTRUCTURE
     1 SMI         1 TEMP              0 ****  ****    0 ROOT
