@<TRIPOS>MOLECULE
SMI
   52    54     1     0     0
SMALL
bcc


@<TRIPOS>ATOM
      1 O1         -0.0590    0.1160   -0.0800 os        1 SMI     -0.437600
      2 C2          1.3770    0.1810   -0.1450 c3        1 SMI      0.149100
      3 C2M         1.8050   -0.9230   -1.0910 c3        1 SMI     -0.097100
      4 C3          1.9660   -0.0100    1.2470 c3        1 SMI     -0.165400
      5 C4          1.4220    1.0070    2.2450 c3        1 SMI      0.352600
      6 C5         -0.1290    1.1800    2.1310 c3        1 SMI      0.291600
      7 O5         -0.6150    2.3240    2.7650 oh        1 SMI     -0.597800
      8 C6         -0.6230    1.1790    0.6560 c3        1 SMI      0.329900
      9 O1B        -0.7000    0.1030    2.8930 os        1 SMI     -0.442600
     10 O2B        -2.0130    0.9330    0.5310 os        1 SMI     -0.377600
     11 C7         -2.1120    0.0180    2.7440 c3        1 SMI      0.092100
     12 C8         -2.5730   -1.2010    3.5730 c3        1 SMI      0.111500
     13 N8         -2.1220   -1.0240    4.9970 n4        1 SMI     -0.757000
     14 C8M        -2.0760   -2.2820    5.7700 c3        1 SMI      0.075100
     15 C9         -4.1110   -1.3710    3.4440 c3        1 SMI      0.114100
     16 O9         -4.7550   -0.2450    4.0100 oh        1 SMI     -0.593800
     17 C10        -4.5090   -1.4630    1.9450 c3        1 SMI      0.108500
     18 N10        -6.0010   -1.5570    1.7670 n4        1 SMI     -0.757000
     19 C1M        -6.5470   -2.9070    2.0230 c3        1 SMI      0.075100
     20 C11        -3.9790   -0.2500    1.1240 c3        1 SMI      0.141100
     21 O11        -4.3820   -0.4880   -0.2090 oh        1 SMI     -0.622800
     22 C12        -2.4570   -0.2040    1.2700 c3        1 SMI      0.088100
     23 O4A         1.6740    0.6260    3.5790 oh        1 SMI     -0.616300
     24 O4B         2.0000    2.2890    2.1760 oh        1 SMI     -0.616300
     25 H2          1.6710    1.1880   -0.5580 h1        1 SMI      0.056700
     26 H2M         2.9140   -0.8950   -1.2110 hc        1 SMI      0.066033
     27 H2MA        1.3250   -0.7770   -2.0880 hc        1 SMI      0.066033
     28 H2MB        1.5030   -1.9210   -0.6940 hc        1 SMI      0.066033
     29 H3          3.0830    0.0740    1.1980 hc        1 SMI      0.095200
     30 H3A         1.7150   -1.0350    1.6290 hc        1 SMI      0.095200
     31 HO5         0.0840    2.6950    3.3280 ho        1 SMI      0.463000
     32 H6         -0.4630    2.1870    0.1760 h2        1 SMI      0.135700
     33 H7         -2.5920    0.9700    3.1180 h1        1 SMI      0.116700
     34 H8         -2.0670   -2.1320    3.1760 hx        1 SMI      0.132700
     35 HN8        -1.1650   -0.6140    4.9560 hn        1 SMI      0.482800
     36 H8M        -1.3500   -2.9960    5.2930 hx        1 SMI      0.114033
     37 H8MA       -1.7300   -2.0540    6.8180 hx        1 SMI      0.114033
     38 H8MB       -3.0960   -2.7480    5.8090 hx        1 SMI      0.114033
     39 H9         -4.4160   -2.3260    3.9600 h1        1 SMI      0.074700
     40 HO9        -5.2580   -0.5290    4.7880 ho        1 SMI      0.444000
     41 H10        -4.0590   -2.4070    1.5100 hx        1 SMI      0.132700
     42 HN10       -6.2070   -1.2920    0.7830 hn        1 SMI      0.481300
     43 H1M        -6.3250   -3.2190    3.0770 hx        1 SMI      0.115033
     44 H1MA       -6.0940   -3.6440    1.3050 hx        1 SMI      0.115033
     45 H1MB       -7.6630   -2.8840    1.8680 hx        1 SMI      0.115033
     46 H11        -4.4330    0.7140    1.4970 h1        1 SMI      0.099700
     47 HO11       -3.8620    0.0940   -0.7890 ho        1 SMI      0.486000
     48 H12        -1.9660   -1.1270    0.8560 h1        1 SMI      0.104700
     49 HO4A        2.5370    0.9880    3.8380 ho        1 SMI      0.451500
     50 HO4B        2.4530    2.4030    1.3300 ho        1 SMI      0.451500
     51 H82        -2.7380   -0.3400    5.4550 hn        1 SMI      0.482800
     52 H102       -6.4490   -0.8650    2.3820 hn        1 SMI      0.481300
@<TRIPOS>BOND
     1    1    2 1   
     2    1    8 1   
     3    2    3 1   
     4    2    4 1   
     5    2   25 1   
     6    3   26 1   
     7    3   27 1   
     8    3   28 1   
     9    4    5 1   
    10    4   29 1   
    11    4   30 1   
    12    5    6 1   
    13    5   23 1   
    14    5   24 1   
    15    6    7 1   
    16    6    8 1   
    17    6    9 1   
    18    7   31 1   
    19    8   10 1   
    20    8   32 1   
    21    9   11 1   
    22   10   22 1   
    23   11   12 1   
    24   11   22 1   
    25   11   33 1   
    26   12   13 1   
    27   12   15 1   
    28   12   34 1   
    29   13   14 1   
    30   13   35 1   
    31   13   51 1   
    32   14   36 1   
    33   14   37 1   
    34   14   38 1   
    35   15   16 1   
    36   15   17 1   
    37   15   39 1   
    38   16   40 1   
    39   17   18 1   
    40   17   20 1   
    41   17   41 1   
    42   18   19 1   
    43   18   42 1   
    44   18   52 1   
    45   19   43 1   
    46   19   44 1   
    47   19   45 1   
    48   20   21 1   
    49   20   22 1   
    50   20   46 1   
    51   21   47 1   
    52   22   48 1   
    53   23   49 1   
    54   24   50 1   
@<TRIPOS>SUBSTRUCTURE
     1 SMI         1 TEMP              0 ****  ****    0 ROOT
