@<TRIPOS>MOLECULE
SMK
   80    83     1     0     0
SMALL
bcc


@<TRIPOS>ATOM
      1 CAA         0.9350    0.2720   -1.0650 c3        1 SMK     -0.141100
      2 CB          2.1760    0.0710   -0.2340 c3        1 SMK     -0.109400
      3 CA          2.0890    0.8170    1.1140 c3        1 SMK      0.066500
      4 N           1.8460    2.2840    0.9060 n4        1 SMK     -0.841600
      5 C           3.3800    0.5930    1.9140 c         1 SMK      0.524100
      6 O           4.2250    1.4460    2.1380 o         1 SMK     -0.381100
      7 NAY         3.6230   -0.7830    2.4780 n4        1 SMK     -0.661800
      8 CBI         5.0320   -1.2990    2.2210 c3        1 SMK      0.072500
      9 CBB         4.9740   -2.1850    0.9370 c         1 SMK      0.678500
     10 OAF         4.7120   -1.5480   -0.1090 o         1 SMK     -0.643500
     11 NBK         5.2050   -3.5250    0.9360 n         1 SMK     -0.421800
     12 CBF         5.7030   -1.9230    3.4520 c3        1 SMK     -0.090700
     13 CAS         6.1780   -0.8610    4.4500 c3        1 SMK     -0.118400
     14 CAQ         7.3960   -1.3770    5.2240 c3        1 SMK      0.102800
     15 NAB         7.9250   -0.4270    6.2430 n4        1 SMK     -0.838600
     16 CAT         4.8620   -2.9800    4.1500 c3        1 SMK     -0.111400
     17 CAU         4.3090   -4.0470    3.2300 c3        1 SMK     -0.108400
     18 CBG         5.2720   -4.4150    2.1060 c3        1 SMK      0.090700
     19 CAV         5.0170   -5.8430    1.5770 c3        1 SMK     -0.089400
     20 CAW         5.3210   -5.7910    0.0860 c3        1 SMK     -0.105400
     21 CBJ         5.2450   -4.2960   -0.3120 c3        1 SMK      0.035700
     22 CBA         4.0310   -4.0730   -1.2290 c         1 SMK      0.544100
     23 OAE         3.0020   -3.4870   -0.9070 o         1 SMK     -0.466100
     24 NAX         4.1470   -4.6090   -2.6090 n4        1 SMK     -0.686800
     25 CBH         3.0080   -5.5900   -3.0130 c3        1 SMK      0.295100
     26 CBC         2.6470   -5.3450   -4.4460 ca        1 SMK     -0.199800
     27 CAM         1.2860   -5.3200   -4.7780 ca        1 SMK     -0.112250
     28 CAI         0.8930   -5.1690   -6.1080 ca        1 SMK     -0.108750
     29 CAG         1.8530   -5.0240   -7.1100 ca        1 SMK     -0.062500
     30 CAJ         3.2110   -5.0310   -6.7800 ca        1 SMK     -0.108750
     31 CAN         3.6090   -5.1950   -5.4560 ca        1 SMK     -0.112250
     32 CBD         3.4310   -6.9900   -2.7110 ca        1 SMK     -0.199800
     33 CAO         2.7680   -7.6870   -1.6870 ca        1 SMK     -0.112250
     34 CAK         3.0510   -9.0310   -1.4610 ca        1 SMK     -0.108750
     35 CAH         4.0040   -9.6900   -2.2430 ca        1 SMK     -0.062500
     36 CAL         4.6760   -8.9970   -3.2520 ca        1 SMK     -0.108750
     37 CAP         4.3880   -7.6540   -3.4900 ca        1 SMK     -0.112250
     38 HAA         0.9200   -0.4910   -1.8890 hc        1 SMK      0.087700
     39 HAAA        0.9150    1.2740   -1.5610 hc        1 SMK      0.087700
     40 HAAB        0.0020    0.1340   -0.4660 hc        1 SMK      0.087700
     41 HB          3.0900    0.3960   -0.8030 hc        1 SMK      0.104700
     42 HBA         2.3040   -1.0270   -0.0180 hc        1 SMK      0.104700
     43 HA          1.2010    0.4210    1.7050 hx        1 SMK      0.156700
     44 HN          0.9930    2.3940    0.3260 hn        1 SMK      0.497800
     45 HNA         2.6370    2.7200    0.4070 hn        1 SMK      0.497800
     46 HNAY        2.9430   -1.4470    2.0790 hn        1 SMK      0.481800
     47 HBI         5.6630   -0.4010    1.9090 hx        1 SMK      0.152700
     48 HBF         6.6330   -2.4200    3.0310 hc        1 SMK      0.122700
     49 HAS         6.4570    0.0820    3.9050 hc        1 SMK      0.076200
     50 HASA        5.3500   -0.6130    5.1670 hc        1 SMK      0.076200
     51 HAQ         7.1300   -2.3340    5.7650 hx        1 SMK      0.127700
     52 HAQA        8.2400   -1.5980    4.5030 hx        1 SMK      0.127700
     53 HNAB        8.2230    0.4550    5.8070 hn        1 SMK      0.482133
     54 HNAA        7.2170   -0.2190    6.9580 hn        1 SMK      0.482133
     55 HAT         5.5140   -3.4820    4.9200 hc        1 SMK      0.077700
     56 HATA        4.0190   -2.5080    4.7220 hc        1 SMK      0.077700
     57 HAU         3.3130   -3.7370    2.8160 hc        1 SMK      0.087200
     58 HAUA        4.1190   -4.9770    3.8400 hc        1 SMK      0.087200
     59 HBG         6.3350   -4.3770    2.4970 h1        1 SMK      0.083700
     60 HAV         5.6850   -6.5740    2.1020 hc        1 SMK      0.103200
     61 HAVA        3.9570   -6.1530    1.7610 hc        1 SMK      0.103200
     62 HAW         4.5940   -6.4190   -0.4940 hc        1 SMK      0.110700
     63 HAWA        6.3530   -6.1760   -0.1250 hc        1 SMK      0.110700
     64 HBJ         6.1700   -3.9740   -0.8810 h1        1 SMK      0.122700
     65 HNAX        5.0390   -5.1050   -2.7250 hn        1 SMK      0.470800
     66 HBH         2.1260   -5.3030   -2.3590 hx        1 SMK      0.102700
     67 HAM         0.5180   -5.4490   -3.9980 ha        1 SMK      0.133750
     68 HAI        -0.1790   -5.1760   -6.3670 ha        1 SMK      0.173750
     69 HAG         1.5420   -4.9140   -8.1640 ha        1 SMK      0.181000
     70 HAJ         3.9700   -4.9220   -7.5740 ha        1 SMK      0.173750
     71 HAN         4.6860   -5.2290   -5.2310 ha        1 SMK      0.133750
     72 HAO         1.9860   -7.1900   -1.0930 ha        1 SMK      0.133750
     73 HAK         2.5030   -9.5860   -0.6810 ha        1 SMK      0.173750
     74 HAH         4.2110  -10.7620   -2.0770 ha        1 SMK      0.181000
     75 HAL         5.4160   -9.5200   -3.8830 ha        1 SMK      0.173750
     76 HAP         4.8840   -7.1370   -4.3270 ha        1 SMK      0.133750
     77 HN3         1.7070    2.7750    1.8000 hn        1 SMK      0.497800
     78 HAY2        3.4780   -0.7440    3.5000 hn        1 SMK      0.481800
     79 HAB3        8.7440   -0.8500    6.7110 hn        1 SMK      0.482133
     80 HAX2        4.1150   -3.8220   -3.2770 hn        1 SMK      0.470800
@<TRIPOS>BOND
     1    1    2 1   
     2    1   38 1   
     3    1   39 1   
     4    1   40 1   
     5    2    3 1   
     6    2   41 1   
     7    2   42 1   
     8    3    4 1   
     9    3    5 1   
    10    3   43 1   
    11    4   44 1   
    12    4   45 1   
    13    4   77 1   
    14    5    6 2   
    15    5    7 1   
    16    7    8 1   
    17    7   46 1   
    18    7   78 1   
    19    8    9 1   
    20    8   12 1   
    21    8   47 1   
    22    9   10 2   
    23    9   11 1   
    24   11   18 1   
    25   11   21 1   
    26   12   13 1   
    27   12   16 1   
    28   12   48 1   
    29   13   14 1   
    30   13   49 1   
    31   13   50 1   
    32   14   15 1   
    33   14   51 1   
    34   14   52 1   
    35   15   53 1   
    36   15   54 1   
    37   15   79 1   
    38   16   17 1   
    39   16   55 1   
    40   16   56 1   
    41   17   18 1   
    42   17   57 1   
    43   17   58 1   
    44   18   19 1   
    45   18   59 1   
    46   19   20 1   
    47   19   60 1   
    48   19   61 1   
    49   20   21 1   
    50   20   62 1   
    51   20   63 1   
    52   21   22 1   
    53   21   64 1   
    54   22   23 2   
    55   22   24 1   
    56   24   25 1   
    57   24   65 1   
    58   24   80 1   
    59   25   26 1   
    60   25   32 1   
    61   25   66 1   
    62   26   27 ar  
    63   26   31 ar  
    64   27   28 ar  
    65   27   67 1   
    66   28   29 ar  
    67   28   68 1   
    68   29   30 ar  
    69   29   69 1   
    70   30   31 ar  
    71   30   70 1   
    72   31   71 1   
    73   32   33 ar  
    74   32   37 ar  
    75   33   34 ar  
    76   33   72 1   
    77   34   35 ar  
    78   34   73 1   
    79   35   36 ar  
    80   35   74 1   
    81   36   37 ar  
    82   36   75 1   
    83   37   76 1   
@<TRIPOS>SUBSTRUCTURE
     1 SMK         1 TEMP              0 ****  ****    0 ROOT
