@<TRIPOS>MOLECULE
SMK
   80    83     1     0     0
SMALL
bcc


@<TRIPOS>ATOM
      1 CAA         1.4650    1.3860   -1.1020 c3        1 SMK     -0.140100
      2 CB          2.5740    1.0090   -0.1530 c3        1 SMK     -0.115400
      3 CA          2.1230    1.1210    1.3200 c3        1 SMK      0.062500
      4 N           1.7660    2.5360    1.6690 nz        1 SMK     -0.843600
      5 C           3.2470    0.5970    2.2280 c         1 SMK      0.525100
      6 O           4.0190    1.2980    2.8650 o         1 SMK     -0.396100
      7 NAY         3.4160   -0.8940    2.3230 ny        1 SMK     -0.665800
      8 CBI         4.8490   -1.3660    2.1020 c3        1 SMK      0.079500
      9 CBB         4.8280   -2.2830    0.8330 c         1 SMK      0.678500
     10 OAF         4.5100   -1.6790   -0.2160 o         1 SMK     -0.643500
     11 NBK         5.1520   -3.6030    0.8480 n         1 SMK     -0.415800
     12 CBF         5.5360   -1.9440    3.3460 c3        1 SMK     -0.090700
     13 CAS         5.9520   -0.8570    4.3440 c3        1 SMK     -0.116400
     14 CAQ         7.2260   -1.2880    5.0790 c3        1 SMK      0.101800
     15 NAB         7.6780   -0.3410    6.1360 nz        1 SMK     -0.838600
     16 CAT         4.7490   -3.0380    4.0480 c3        1 SMK     -0.110400
     17 CAU         4.2660   -4.1470    3.1390 c3        1 SMK     -0.111400
     18 CBG         5.2610   -4.4740    2.0300 c3        1 SMK      0.090700
     19 CAV         5.0950   -5.9210    1.5180 c3        1 SMK     -0.089400
     20 CAW         5.3970   -5.8680    0.0270 c3        1 SMK     -0.105400
     21 CBJ         5.2100   -4.3900   -0.3920 c3        1 SMK      0.035700
     22 CBA         3.9530   -4.2700   -1.2700 c         1 SMK      0.538100
     23 OAE         2.8860   -3.7850   -0.9100 o         1 SMK     -0.454100
     24 NAX         4.0700   -4.7870   -2.6580 ny        1 SMK     -0.685800
     25 CBH         3.0050   -5.8580   -3.0310 c3        1 SMK      0.293100
     26 CBC         2.5990   -5.6550   -4.4580 ca        1 SMK     -0.198300
     27 CAM         1.2320   -5.7290   -4.7620 ca        1 SMK     -0.112250
     28 CAI         0.8040   -5.6180   -6.0850 ca        1 SMK     -0.109000
     29 CAG         1.7300   -5.4150   -7.1080 ca        1 SMK     -0.063500
     30 CAJ         3.0920   -5.3230   -6.8060 ca        1 SMK     -0.109000
     31 CAN         3.5270   -5.4460   -5.4890 ca        1 SMK     -0.112250
     32 CBD         3.5410   -7.2180   -2.7250 ca        1 SMK     -0.198300
     33 CAO         2.9470   -7.9580   -1.6900 ca        1 SMK     -0.112250
     34 CAK         3.3380   -9.2740   -1.4590 ca        1 SMK     -0.109000
     35 CAH         4.3320   -9.8610   -2.2470 ca        1 SMK     -0.063500
     36 CAL         4.9350   -9.1240   -3.2680 ca        1 SMK     -0.109000
     37 CAP         4.5390   -7.8100   -3.5110 ca        1 SMK     -0.112250
     38 HAA         1.2920    2.4900   -1.1370 hc        1 SMK      0.089367
     39 HAAA        1.7560    1.0750   -2.1420 hc        1 SMK      0.089367
     40 HAAB        0.5070    0.8680   -0.8520 hc        1 SMK      0.089367
     41 HB          3.4760    1.6560   -0.3360 hc        1 SMK      0.108700
     42 HBA         2.8840   -0.0570   -0.3440 hc        1 SMK      0.108700
     43 HA          1.1810    0.5010    1.4680 hx        1 SMK      0.156700
     44 HN          2.5980    3.1450    1.6460 hn        1 SMK      0.497133
     45 HNA         1.3310    2.5990    2.5990 hn        1 SMK      0.497133
     46 HNAY        3.1120   -1.2020    3.2610 hn        1 SMK      0.487300
     47 HBI         5.4480   -0.4560    1.7720 hx        1 SMK      0.142700
     48 HBF         6.4930   -2.3960    2.9330 hc        1 SMK      0.121700
     49 HAS         6.1380    0.1120    3.8070 hc        1 SMK      0.076700
     50 HASA        5.1250   -0.6820    5.0830 hc        1 SMK      0.076700
     51 HAQ         7.0610   -2.2900    5.5770 hx        1 SMK      0.126700
     52 HAQA        8.0760   -1.3940    4.3390 hx        1 SMK      0.126700
     53 HNAB        7.8840    0.5850    5.7400 hn        1 SMK      0.481800
     54 HNAA        6.9640   -0.2350    6.8680 hn        1 SMK      0.481800
     55 HAT         3.8750   -2.6110    4.6110 hc        1 SMK      0.077700
     56 HATA        5.4220   -3.4920    4.8310 hc        1 SMK      0.077700
     57 HAU         4.1230   -5.0790    3.7600 hc        1 SMK      0.089700
     58 HAUA        3.2590   -3.8990    2.7110 hc        1 SMK      0.089700
     59 HBG         6.3160   -4.3670    2.4270 h1        1 SMK      0.082700
     60 HAV         4.0560   -6.2930    1.7050 hc        1 SMK      0.103200
     61 HAVA        5.8060   -6.6030    2.0520 hc        1 SMK      0.103200
     62 HAW         6.4550   -6.1790   -0.1790 hc        1 SMK      0.110700
     63 HAWA        4.7190   -6.5570   -0.5460 hc        1 SMK      0.110700
     64 HBJ         6.0940   -4.0130   -0.9910 h1        1 SMK      0.122700
     65 HNAX        4.9960   -5.2050   -2.8060 hn        1 SMK      0.470800
     66 HBH         2.1150   -5.6350   -2.3620 hx        1 SMK      0.104700
     67 HAM         0.4910   -5.9030   -3.9660 ha        1 SMK      0.134000
     68 HAI        -0.2710   -5.7020   -6.3210 ha        1 SMK      0.173000
     69 HAG         1.3910   -5.3360   -8.1560 ha        1 SMK      0.180500
     70 HAJ         3.8250   -5.1680   -7.6160 ha        1 SMK      0.173000
     71 HAN         4.6070   -5.4010   -5.2850 ha        1 SMK      0.134000
     72 HAO         2.1340   -7.5210   -1.0900 ha        1 SMK      0.134000
     73 HAK         2.8440   -9.8650   -0.6690 ha        1 SMK      0.173000
     74 HAH         4.6250  -10.9120   -2.0770 ha        1 SMK      0.180500
     75 HAL         5.7070   -9.5920   -3.9040 ha        1 SMK      0.173000
     76 HAP         4.9840   -7.2620   -4.3570 ha        1 SMK      0.134000
     77 HN3         1.0900    2.8820    0.9610 hn        1 SMK      0.497133
     78 HAY2        2.8090   -1.3450    1.6170 hn        1 SMK      0.487300
     79 HAB3        8.5400   -0.7050    6.5750 hn        1 SMK      0.481800
     80 HAX2        3.9490   -4.0030   -3.3180 hn        1 SMK      0.470800
@<TRIPOS>BOND
     1    1    2 1   
     2    1   38 1   
     3    1   39 1   
     4    1   40 1   
     5    2    3 1   
     6    2   41 1   
     7    2   42 1   
     8    3    4 1   
     9    3    5 1   
    10    3   43 1   
    11    4   44 1   
    12    4   45 1   
    13    4   77 1   
    14    5    6 2   
    15    5    7 1   
    16    7    8 1   
    17    7   46 1   
    18    7   78 1   
    19    8    9 1   
    20    8   12 1   
    21    8   47 1   
    22    9   10 2   
    23    9   11 1   
    24   11   18 1   
    25   11   21 1   
    26   12   13 1   
    27   12   16 1   
    28   12   48 1   
    29   13   14 1   
    30   13   49 1   
    31   13   50 1   
    32   14   15 1   
    33   14   51 1   
    34   14   52 1   
    35   15   53 1   
    36   15   54 1   
    37   15   79 1   
    38   16   17 1   
    39   16   55 1   
    40   16   56 1   
    41   17   18 1   
    42   17   57 1   
    43   17   58 1   
    44   18   19 1   
    45   18   59 1   
    46   19   20 1   
    47   19   60 1   
    48   19   61 1   
    49   20   21 1   
    50   20   62 1   
    51   20   63 1   
    52   21   22 1   
    53   21   64 1   
    54   22   23 2   
    55   22   24 1   
    56   24   25 1   
    57   24   65 1   
    58   24   80 1   
    59   25   26 1   
    60   25   32 1   
    61   25   66 1   
    62   26   27 ar  
    63   26   31 ar  
    64   27   28 ar  
    65   27   67 1   
    66   28   29 ar  
    67   28   68 1   
    68   29   30 ar  
    69   29   69 1   
    70   30   31 ar  
    71   30   70 1   
    72   31   71 1   
    73   32   33 ar  
    74   32   37 ar  
    75   33   34 ar  
    76   33   72 1   
    77   34   35 ar  
    78   34   73 1   
    79   35   36 ar  
    80   35   74 1   
    81   36   37 ar  
    82   36   75 1   
    83   37   76 1   
@<TRIPOS>SUBSTRUCTURE
     1 SMK         1 TEMP              0 ****  ****    0 ROOT
