@<TRIPOS>MOLECULE
SMK
   80    83     1     0     0
SMALL
bcc


@<TRIPOS>ATOM
      1 CAA         1.5070    1.4070   -1.1180 c3        1 SMK     -0.140100
      2 CB          2.6040    1.0200   -0.1590 c3        1 SMK     -0.115400
      3 CA          2.1390    1.1320    1.3090 c3        1 SMK      0.062500
      4 N           1.7870    2.5490    1.6580 n4        1 SMK     -0.843600
      5 C           3.2500    0.5980    2.2270 c         1 SMK      0.525100
      6 O           4.0200    1.2920    2.8740 o         1 SMK     -0.396100
      7 NAY         3.4080   -0.8940    2.3210 n4        1 SMK     -0.665800
      8 CBI         4.8390   -1.3760    2.1130 c3        1 SMK      0.079500
      9 CBB         4.8250   -2.2900    0.8420 c         1 SMK      0.678500
     10 OAF         4.5210   -1.6810   -0.2090 o         1 SMK     -0.643500
     11 NBK         5.1390   -3.6120    0.8570 n         1 SMK     -0.415800
     12 CBF         5.5100   -1.9600    3.3620 c3        1 SMK     -0.090700
     13 CAS         5.9240   -0.8780    4.3670 c3        1 SMK     -0.116400
     14 CAQ         7.1880   -1.3200    5.1130 c3        1 SMK      0.101800
     15 NAB         7.6360   -0.3780    6.1770 n4        1 SMK     -0.838600
     16 CAT         4.7080   -3.0510    4.0550 c3        1 SMK     -0.110400
     17 CAU         4.2270   -4.1550    3.1380 c3        1 SMK     -0.111400
     18 CBG         5.2300   -4.4860    2.0380 c3        1 SMK      0.090700
     19 CAV         5.0590   -5.9310    1.5220 c3        1 SMK     -0.089400
     20 CAW         5.3760   -5.8780    0.0340 c3        1 SMK     -0.105400
     21 CBJ         5.2030   -4.3970   -0.3830 c3        1 SMK      0.035700
     22 CBA         3.9570   -4.2670   -1.2740 c         1 SMK      0.538100
     23 OAE         2.8890   -3.7750   -0.9230 o         1 SMK     -0.454100
     24 NAX         4.0840   -4.7820   -2.6610 n4        1 SMK     -0.685800
     25 CBH         3.0140   -5.8440   -3.0470 c3        1 SMK      0.293100
     26 CBC         2.6250   -5.6360   -4.4790 ca        1 SMK     -0.198300
     27 CAM         1.2620   -5.6990   -4.7970 ca        1 SMK     -0.112250
     28 CAI         0.8480   -5.5820   -6.1240 ca        1 SMK     -0.109250
     29 CAG         1.7870   -5.3850   -7.1370 ca        1 SMK     -0.063500
     30 CAJ         3.1460   -5.3040   -6.8200 ca        1 SMK     -0.109250
     31 CAN         3.5660   -5.4330   -5.4990 ca        1 SMK     -0.112250
     32 CBD         3.5370   -7.2090   -2.7380 ca        1 SMK     -0.198300
     33 CAO         2.9260   -7.9450   -1.7100 ca        1 SMK     -0.112250
     34 CAK         3.3050   -9.2640   -1.4760 ca        1 SMK     -0.109250
     35 CAH         4.3010   -9.8580   -2.2550 ca        1 SMK     -0.063500
     36 CAL         4.9210   -9.1250   -3.2690 ca        1 SMK     -0.109250
     37 CAP         4.5370   -7.8080   -3.5150 ca        1 SMK     -0.112250
     38 HAA         1.8060    1.0970   -2.1560 hc        1 SMK      0.089367
     39 HAAA        0.5430    0.8960   -0.8790 hc        1 SMK      0.089367
     40 HAAB        1.3430    2.5120   -1.1530 hc        1 SMK      0.089367
     41 HB          3.5120    1.6610   -0.3310 hc        1 SMK      0.108700
     42 HBA         2.9080   -0.0470   -0.3500 hc        1 SMK      0.108700
     43 HA          1.1910    0.5180    1.4470 hx        1 SMK      0.156700
     44 HN          1.1210    2.9010    0.9440 hn        1 SMK      0.497133
     45 HNA         1.3440    2.6130    2.5840 hn        1 SMK      0.497133
     46 HNAY        2.8050   -1.3390    1.6080 hn        1 SMK      0.487300
     47 HBI         5.4480   -0.4690    1.7910 hx        1 SMK      0.142700
     48 HBF         6.4680   -2.4190    2.9580 hc        1 SMK      0.121700
     49 HAS         6.1220    0.0900    3.8330 hc        1 SMK      0.076700
     50 HASA        5.0900   -0.6990    5.0980 hc        1 SMK      0.076700
     51 HAQ         8.0440   -1.4300    4.3820 hx        1 SMK      0.126700
     52 HAQA        7.0100   -2.3220    5.6080 hx        1 SMK      0.126700
     53 HNAB        7.8520    0.5470    5.7850 hn        1 SMK      0.481800
     54 HNAA        6.9160   -0.2690    6.9020 hn        1 SMK      0.481800
     55 HAT         3.8330   -2.6180    4.6100 hc        1 SMK      0.077700
     56 HATA        5.3710   -3.5110    4.8430 hc        1 SMK      0.077700
     57 HAU         3.2260   -3.8980    2.7010 hc        1 SMK      0.089700
     58 HAUA        4.0710   -5.0860    3.7560 hc        1 SMK      0.089700
     59 HBG         6.2820   -4.3880    2.4460 h1        1 SMK      0.082700
     60 HAV         4.0160   -6.2960    1.6980 hc        1 SMK      0.103200
     61 HAVA        5.7600   -6.6190    2.0620 hc        1 SMK      0.103200
     62 HAW         4.6990   -6.5600   -0.5460 hc        1 SMK      0.110700
     63 HAWA        6.4340   -6.1950   -0.1620 hc        1 SMK      0.110700
     64 HBJ         6.0960   -4.0250   -0.9730 h1        1 SMK      0.122700
     65 HNAX        5.0080   -5.2070   -2.8010 hn        1 SMK      0.470800
     66 HBH         2.1190   -5.6150   -2.3880 hx        1 SMK      0.104700
     67 HAM         0.5110   -5.8680   -4.0090 ha        1 SMK      0.134000
     68 HAI        -0.2250   -5.6580   -6.3720 ha        1 SMK      0.173000
     69 HAG         1.4600   -5.3020   -8.1880 ha        1 SMK      0.180500
     70 HAJ         3.8890   -5.1540   -7.6220 ha        1 SMK      0.173000
     71 HAN         4.6440   -5.3960   -5.2830 ha        1 SMK      0.134000
     72 HAO         2.1110   -7.5020   -1.1170 ha        1 SMK      0.134000
     73 HAK         2.7980   -9.8520   -0.6920 ha        1 SMK      0.173000
     74 HAH         4.5840  -10.9120   -2.0830 ha        1 SMK      0.180500
     75 HAL         5.6950   -9.5980   -3.8980 ha        1 SMK      0.173000
     76 HAP         4.9950   -7.2630   -4.3560 ha        1 SMK      0.134000
     77 HN3         2.6240    3.1510    1.6450 hn        1 SMK      0.497133
     78 HAY2        3.0920   -1.2030    3.2550 hn        1 SMK      0.487300
     79 HAB3        8.4910   -0.7490    6.6240 hn        1 SMK      0.481800
     80 HAX2        3.9750   -3.9960   -3.3210 hn        1 SMK      0.470800
@<TRIPOS>BOND
     1    1    2 1   
     2    1   38 1   
     3    1   39 1   
     4    1   40 1   
     5    2    3 1   
     6    2   41 1   
     7    2   42 1   
     8    3    4 1   
     9    3    5 1   
    10    3   43 1   
    11    4   44 1   
    12    4   45 1   
    13    4   77 1   
    14    5    6 2   
    15    5    7 1   
    16    7    8 1   
    17    7   46 1   
    18    7   78 1   
    19    8    9 1   
    20    8   12 1   
    21    8   47 1   
    22    9   10 2   
    23    9   11 1   
    24   11   18 1   
    25   11   21 1   
    26   12   13 1   
    27   12   16 1   
    28   12   48 1   
    29   13   14 1   
    30   13   49 1   
    31   13   50 1   
    32   14   15 1   
    33   14   51 1   
    34   14   52 1   
    35   15   53 1   
    36   15   54 1   
    37   15   79 1   
    38   16   17 1   
    39   16   55 1   
    40   16   56 1   
    41   17   18 1   
    42   17   57 1   
    43   17   58 1   
    44   18   19 1   
    45   18   59 1   
    46   19   20 1   
    47   19   60 1   
    48   19   61 1   
    49   20   21 1   
    50   20   62 1   
    51   20   63 1   
    52   21   22 1   
    53   21   64 1   
    54   22   23 2   
    55   22   24 1   
    56   24   25 1   
    57   24   65 1   
    58   24   80 1   
    59   25   26 1   
    60   25   32 1   
    61   25   66 1   
    62   26   27 ar  
    63   26   31 ar  
    64   27   28 ar  
    65   27   67 1   
    66   28   29 ar  
    67   28   68 1   
    68   29   30 ar  
    69   29   69 1   
    70   30   31 ar  
    71   30   70 1   
    72   31   71 1   
    73   32   33 ar  
    74   32   37 ar  
    75   33   34 ar  
    76   33   72 1   
    77   34   35 ar  
    78   34   73 1   
    79   35   36 ar  
    80   35   74 1   
    81   36   37 ar  
    82   36   75 1   
    83   37   76 1   
@<TRIPOS>SUBSTRUCTURE
     1 SMK         1 TEMP              0 ****  ****    0 ROOT
