@<TRIPOS>MOLECULE
SMK
   76    79     1     0     0
SMALL
bcc


@<TRIPOS>ATOM
      1 CAA        -0.1750   -3.8070    1.8640 c3        1 SMK     -0.086100
      2 CB         -0.9500   -2.9580    0.8890 c3        1 SMK     -0.089400
      3 CA         -2.4130   -2.7790    1.3180 c3        1 SMK      0.110500
      4 N          -3.1140   -4.0320    1.4920 n3        1 SMK     -0.884800
      5 C          -3.0980   -1.8380    0.2920 c         1 SMK      0.612100
      6 O          -3.9720   -2.2650   -0.4900 o         1 SMK     -0.621100
      7 NAY        -2.7480   -0.5020    0.3260 n         1 SMK     -0.553900
      8 CBI        -3.1660    0.4220   -0.7000 c3        1 SMK      0.043700
      9 CBB        -1.9090    1.0340   -1.3580 c         1 SMK      0.692500
     10 OAF        -1.4520    0.5100   -2.3900 o         1 SMK     -0.615500
     11 NBK        -1.2390    2.1100   -0.7890 n         1 SMK     -0.473800
     12 CBF        -4.1640    1.5000   -0.2350 c3        1 SMK     -0.064700
     13 CAS        -5.5710    0.9130   -0.3020 c3        1 SMK     -0.086400
     14 CAQ        -6.6360    1.9460    0.0630 c3        1 SMK      0.160800
     15 NAB        -7.9710    1.5530   -0.3250 n3        1 SMK     -0.916800
     16 CAT        -3.8810    2.0620    1.1470 c3        1 SMK     -0.074400
     17 CAU        -2.4530    2.4880    1.4010 c3        1 SMK     -0.101400
     18 CBG        -1.7670    3.0740    0.1670 c3        1 SMK      0.117700
     19 CAV        -0.5720    3.9680    0.5910 c3        1 SMK     -0.088400
     20 CAW         0.6440    3.4800   -0.1870 c3        1 SMK     -0.083400
     21 CBJ         0.2120    2.1600   -0.8580 c3        1 SMK      0.044700
     22 CBA         0.8800    0.9690   -0.1190 c         1 SMK      0.649100
     23 OAE         0.2660    0.2900    0.7320 o         1 SMK     -0.640100
     24 NAX         2.2000    0.7240   -0.4230 n         1 SMK     -0.550900
     25 CBH         2.9210   -0.4110    0.1200 c3        1 SMK      0.189300
     26 CBC         3.2390   -1.4350   -0.9500 ca        1 SMK     -0.098300
     27 CAM         2.4580   -2.5930   -1.0360 ca        1 SMK     -0.116750
     28 CAI         2.7290   -3.5470   -2.0170 ca        1 SMK     -0.128750
     29 CAG         3.7740   -3.3480   -2.9190 ca        1 SMK     -0.123000
     30 CAJ         4.5490   -2.1910   -2.8400 ca        1 SMK     -0.128750
     31 CAN         4.2810   -1.2360   -1.8600 ca        1 SMK     -0.116750
     32 CBD         4.1820   -0.0100    0.8550 ca        1 SMK     -0.098300
     33 CAO         4.5150   -0.7080    2.0230 ca        1 SMK     -0.116750
     34 CAK         5.6700   -0.3830    2.7330 ca        1 SMK     -0.128750
     35 CAH         6.4990    0.6460    2.2880 ca        1 SMK     -0.123000
     36 CAL         6.1690    1.3480    1.1290 ca        1 SMK     -0.128750
     37 CAP         5.0170    1.0210    0.4140 ca        1 SMK     -0.116750
     38 HAA        -0.2750   -3.4040    2.9010 hc        1 SMK      0.037033
     39 HAAA       -0.5410   -4.8620    1.8630 hc        1 SMK      0.037033
     40 HAAB        0.9080   -3.8090    1.5870 hc        1 SMK      0.037033
     41 HB         -0.4690   -1.9440    0.8210 hc        1 SMK      0.059200
     42 HBA        -0.9110   -3.4190   -0.1330 hc        1 SMK      0.059200
     43 HA         -2.4290   -2.2630    2.3260 h1        1 SMK      0.075700
     44 HN         -4.0950   -3.8610    1.6150 hn        1 SMK      0.357800
     45 HNA        -2.9940   -4.6150    0.6850 hn        1 SMK      0.357800
     46 HNAY       -1.9700   -0.2290    0.8880 hn        1 SMK      0.333500
     47 HBI        -3.6730   -0.1760   -1.5260 h1        1 SMK      0.117700
     48 HBF        -4.1060    2.3400   -0.9860 hc        1 SMK      0.057700
     49 HAS        -5.7530    0.5360   -1.3450 hc        1 SMK      0.060700
     50 HASA       -5.6410    0.0310    0.3860 hc        1 SMK      0.060700
     51 HAQ        -6.5590    2.1530    1.1730 h1        1 SMK      0.022700
     52 HAQA       -6.4100    2.9140   -0.4690 h1        1 SMK      0.022700
     53 HNAB       -8.1420    0.5900   -0.1140 hn        1 SMK      0.349800
     54 HNAA       -8.6500    2.1200    0.1430 hn        1 SMK      0.349800
     55 HAT        -4.5470    2.9570    1.2910 hc        1 SMK      0.046200
     56 HATA       -4.1760    1.3070    1.9240 hc        1 SMK      0.046200
     57 HAU        -2.4650    3.2800    2.1990 hc        1 SMK      0.056700
     58 HAUA       -1.8420    1.6380    1.8070 hc        1 SMK      0.056700
     59 HBG        -2.5190    3.7100   -0.3880 h1        1 SMK      0.057700
     60 HAV        -0.7980    5.0360    0.3580 hc        1 SMK      0.057700
     61 HAVA       -0.3900    3.8840    1.6910 hc        1 SMK      0.057700
     62 HAW         0.9360    4.2200   -0.9730 hc        1 SMK      0.061700
     63 HAWA        1.5220    3.3260    0.4870 hc        1 SMK      0.061700
     64 HBJ         0.5140    2.1260   -1.9440 h1        1 SMK      0.092700
     65 HNAX        2.6140    1.1910   -1.1940 hn        1 SMK      0.311500
     66 HBH         2.2300   -0.9040    0.8790 h1        1 SMK      0.098700
     67 HAM         1.6230   -2.7500   -0.3340 ha        1 SMK      0.133250
     68 HAI         2.1120   -4.4560   -2.0800 ha        1 SMK      0.133750
     69 HAG         3.9850   -4.1010   -3.6920 ha        1 SMK      0.133500
     70 HAJ         5.3730   -2.0310   -3.5500 ha        1 SMK      0.133750
     71 HAN         4.9010   -0.3290   -1.7930 ha        1 SMK      0.133250
     72 HAO         3.8630   -1.5190    2.3830 ha        1 SMK      0.133250
     73 HAK         5.9250   -0.9400    3.6470 ha        1 SMK      0.133750
     74 HAH         7.4090    0.9040    2.8490 ha        1 SMK      0.133500
     75 HAL         6.8200    2.1620    0.7750 ha        1 SMK      0.133750
     76 HAP         4.7790    1.5870   -0.4990 ha        1 SMK      0.133250
@<TRIPOS>BOND
     1    1    2 1   
     2    1   38 1   
     3    1   39 1   
     4    1   40 1   
     5    2    3 1   
     6    2   41 1   
     7    2   42 1   
     8    3    4 1   
     9    3    5 1   
    10    3   43 1   
    11    4   44 1   
    12    4   45 1   
    13    5    6 2   
    14    5    7 1   
    15    7    8 1   
    16    7   46 1   
    17    8    9 1   
    18    8   12 1   
    19    8   47 1   
    20    9   10 2   
    21    9   11 1   
    22   11   18 1   
    23   11   21 1   
    24   12   13 1   
    25   12   16 1   
    26   12   48 1   
    27   13   14 1   
    28   13   49 1   
    29   13   50 1   
    30   14   15 1   
    31   14   51 1   
    32   14   52 1   
    33   15   53 1   
    34   15   54 1   
    35   16   17 1   
    36   16   55 1   
    37   16   56 1   
    38   17   18 1   
    39   17   57 1   
    40   17   58 1   
    41   18   19 1   
    42   18   59 1   
    43   19   20 1   
    44   19   60 1   
    45   19   61 1   
    46   20   21 1   
    47   20   62 1   
    48   20   63 1   
    49   21   22 1   
    50   21   64 1   
    51   22   23 2   
    52   22   24 1   
    53   24   25 1   
    54   24   65 1   
    55   25   26 1   
    56   25   32 1   
    57   25   66 1   
    58   26   27 ar  
    59   26   31 ar  
    60   27   28 ar  
    61   27   67 1   
    62   28   29 ar  
    63   28   68 1   
    64   29   30 ar  
    65   29   69 1   
    66   30   31 ar  
    67   30   70 1   
    68   31   71 1   
    69   32   33 ar  
    70   32   37 ar  
    71   33   34 ar  
    72   33   72 1   
    73   34   35 ar  
    74   34   73 1   
    75   35   36 ar  
    76   35   74 1   
    77   36   37 ar  
    78   36   75 1   
    79   37   76 1   
@<TRIPOS>SUBSTRUCTURE
     1 SMK         1 TEMP              0 ****  ****    0 ROOT
