@<TRIPOS>MOLECULE
SML
   18    18     1     0     0
SMALL
bcc


@<TRIPOS>ATOM
      1 C32        -0.0020   -1.5290    1.8100 c3        1 SML     -0.356300
      2 S33        -0.0000    0.1200    1.4240 sy        1 SML      1.397300
      3 O34        -1.1990    0.6910    1.8750 o         1 SML     -0.657800
      4 O35         1.2000    0.6890    1.8750 o         1 SML     -0.657800
      5 C36        -0.0000    0.0230   -0.2480 ca        1 SML     -0.388500
      6 C37        -1.2040   -0.0010   -0.9640 ca        1 SML     -0.018000
      7 C38        -1.2080   -0.0620   -2.3550 ca        1 SML     -0.156000
      8 C39        -0.0000   -0.0970   -3.0520 ca        1 SML     -0.065000
      9 C40         1.2080   -0.0640   -2.3550 ca        1 SML     -0.156000
     10 C41         1.2040   -0.0030   -0.9640 ca        1 SML     -0.018000
     11 H321        0.8940   -2.0720    1.4200 h1        1 SML      0.113367
     12 H322       -0.0020   -1.6820    2.9190 h1        1 SML      0.113367
     13 H323       -0.8980   -2.0700    1.4210 h1        1 SML      0.113367
     14 H371       -2.1600    0.0470   -0.4110 ha        1 SML      0.155000
     15 H381       -2.1630   -0.0780   -2.9020 ha        1 SML      0.143000
     16 H391       -0.0000   -0.1450   -4.1520 ha        1 SML      0.139000
     17 H401        2.1630   -0.0820   -2.9020 ha        1 SML      0.143000
     18 H411        2.1590    0.0430   -0.4110 ha        1 SML      0.155000
@<TRIPOS>BOND
     1    1    2 1   
     2    1   11 1   
     3    1   12 1   
     4    1   13 1   
     5    2    3 2   
     6    2    4 2   
     7    2    5 1   
     8    5    6 ar  
     9    5   10 ar  
    10    6    7 ar  
    11    6   14 1   
    12    7    8 ar  
    13    7   15 1   
    14    8    9 ar  
    15    8   16 1   
    16    9   10 ar  
    17    9   17 1   
    18   10   18 1   
@<TRIPOS>SUBSTRUCTURE
     1 SML         1 TEMP              0 ****  ****    0 ROOT
