@<TRIPOS>MOLECULE
SML
   18    18     1     0     0
SMALL
bcc


@<TRIPOS>ATOM
      1 C32         0.1420    0.0890   -0.0330 c3        1 SML     -0.356300
      2 S33         1.8350    0.0280   -0.0120 sy        1 SML      1.397300
      3 O34         2.2640   -0.1200    1.3150 o         1 SML     -0.657800
      4 O35         2.2640   -0.9290   -0.9440 o         1 SML     -0.657800
      5 C36         2.1850    1.5690   -0.5640 ca        1 SML     -0.388500
      6 C37         2.3510    2.6310    0.3350 ca        1 SML     -0.018000
      7 C38         2.6610    3.9100   -0.1190 ca        1 SML     -0.156000
      8 C39         2.8140    4.1450   -1.4860 ca        1 SML     -0.065000
      9 C40         2.6620    3.0960   -2.3940 ca        1 SML     -0.156000
     10 C41         2.3520    1.8190   -1.9330 ca        1 SML     -0.018000
     11 H321       -0.2760    0.8810    0.6350 h1        1 SML      0.113367
     12 H322       -0.3000   -0.8790    0.3130 h1        1 SML      0.113367
     13 H323       -0.2770    0.2770   -1.0520 h1        1 SML      0.113367
     14 H371        2.2490    2.4400    1.4180 ha        1 SML      0.155000
     15 H381        2.7900    4.7330    0.6010 ha        1 SML      0.143000
     16 H391        3.0600    5.1550   -1.8470 ha        1 SML      0.139000
     17 H401        2.7920    3.2750   -3.4710 ha        1 SML      0.143000
     18 H411        2.2510    0.9840   -2.6480 ha        1 SML      0.155000
@<TRIPOS>BOND
     1    1    2 1   
     2    1   11 1   
     3    1   12 1   
     4    1   13 1   
     5    2    3 2   
     6    2    4 2   
     7    2    5 1   
     8    5    6 ar  
     9    5   10 ar  
    10    6    7 ar  
    11    6   14 1   
    12    7    8 ar  
    13    7   15 1   
    14    8    9 ar  
    15    8   16 1   
    16    9   10 ar  
    17    9   17 1   
    18   10   18 1   
@<TRIPOS>SUBSTRUCTURE
     1 SML         1 TEMP              0 ****  ****    0 ROOT
