@<TRIPOS>MOLECULE
SML
   18    18     1     0     0
SMALL
bcc


@<TRIPOS>ATOM
      1 C32         0.1460    0.0860   -0.0320 c3        1 SML     -0.356300
      2 S33         1.8390    0.0280   -0.0100 sy        1 SML      1.397300
      3 O34         2.2690   -0.1170    1.3170 o         1 SML     -0.657800
      4 O35         2.2700   -0.9280   -0.9410 o         1 SML     -0.657800
      5 C36         2.1850    1.5700   -0.5640 ca        1 SML     -0.388500
      6 C37         2.3500    2.6330    0.3340 ca        1 SML     -0.018000
      7 C38         2.6570    3.9130   -0.1210 ca        1 SML     -0.156000
      8 C39         2.8090    4.1460   -1.4880 ca        1 SML     -0.065000
      9 C40         2.6580    3.0960   -2.3950 ca        1 SML     -0.156000
     10 C41         2.3510    1.8190   -1.9330 ca        1 SML     -0.018000
     11 H321       -0.2740    0.8770    0.6370 h1        1 SML      0.113367
     12 H322       -0.2940   -0.8830    0.3160 h1        1 SML      0.113367
     13 H323       -0.2730    0.2720   -1.0500 h1        1 SML      0.113367
     14 H371        2.2490    2.4430    1.4180 ha        1 SML      0.155000
     15 H381        2.7850    4.7360    0.5980 ha        1 SML      0.143000
     16 H391        3.0520    5.1570   -1.8510 ha        1 SML      0.139000
     17 H401        2.7860    3.2740   -3.4730 ha        1 SML      0.143000
     18 H411        2.2510    0.9830   -2.6470 ha        1 SML      0.155000
@<TRIPOS>BOND
     1    1    2 1   
     2    1   11 1   
     3    1   12 1   
     4    1   13 1   
     5    2    3 2   
     6    2    4 2   
     7    2    5 1   
     8    5    6 ar  
     9    5   10 ar  
    10    6    7 ar  
    11    6   14 1   
    12    7    8 ar  
    13    7   15 1   
    14    8    9 ar  
    15    8   16 1   
    16    9   10 ar  
    17    9   17 1   
    18   10   18 1   
@<TRIPOS>SUBSTRUCTURE
     1 SML         1 TEMP              0 ****  ****    0 ROOT
