@<TRIPOS>MOLECULE
SMM
   56    58     1     0     0
SMALL
bcc


@<TRIPOS>ATOM
      1 N          -0.5000   -0.5650    2.3470 n4        1 SMM     -0.835600
      2 CA          0.0900   -0.5570    0.9680 c3        1 SMM      0.058500
      3 CB          1.5930   -0.2340    0.9860 c3        1 SMM     -0.046400
      4 CG          2.4020   -1.1960    1.7960 c3        1 SMM     -0.092600
      5 SD          4.1030   -0.7100    1.9660 s6        1 SMM     -0.524200
      6 CE          5.1360   -2.0890    1.8510 c3        1 SMM     -0.068300
      7 C5'         4.6000    0.3050    3.3370 c3        1 SMM     -0.085600
      8 C4'         3.7020    0.1350    4.5330 c3        1 SMM      0.149100
      9 O4'         4.4440    0.4050    5.7440 os        1 SMM     -0.405600
     10 C1'         3.9130    1.5090    6.4620 c3        1 SMM      0.220800
     11 N9          4.9360    2.5410    6.5740 na        1 SMM     -0.280000
     12 C4          4.7890    3.7540    7.2640 ca        1 SMM      0.447800
     13 N3          3.7070    4.3700    7.7980 nb        1 SMM     -0.651000
     14 C2          3.9880    5.5580    8.3960 ca        1 SMM      0.681900
     15 N1          5.1940    6.1840    8.5190 nb        1 SMM     -0.668000
     16 C6          6.2700    5.5590    7.9800 ca        1 SMM      0.532200
     17 N6          7.6030    6.1800    8.0980 n4        1 SMM     -0.817300
     18 C5          6.1560    4.3230    7.3180 ca        1 SMM     -0.130200
     19 N7          7.0580    3.4620    6.6860 nc        1 SMM     -0.576100
     20 C8          6.3120    2.4180    6.2740 cd        1 SMM      0.522700
     21 C2'         2.6040    1.9800    5.7480 c3        1 SMM      0.089100
     22 O2'         1.5030    1.7330    6.5920 oh        1 SMM     -0.592800
     23 C3'         2.4660    1.0600    4.5130 c3        1 SMM      0.131100
     24 O3'         1.2660    0.3120    4.5020 oh        1 SMM     -0.649800
     25 C          -0.1450   -1.9110    0.3050 c         1 SMM      0.614100
     26 O          -0.4940   -2.9390    0.8880 o         1 SMM     -0.515000
     27 OXT         0.0650   -1.8770   -1.0260 os        1 SMM     -0.401900
     28 CXT        -0.1480   -3.1080   -1.7460 c3        1 SMM      0.122700
     29 HN1        -0.2440   -1.4460    2.8170 hn        1 SMM      0.473133
     30 HN2        -0.1200    0.2200    2.8930 hn        1 SMM      0.473133
     31 HA1        -0.4510    0.2370    0.3650 hx        1 SMM      0.137700
     32 HB1         1.7240    0.8150    1.3700 hc        1 SMM      0.082200
     33 HB2         1.9250   -0.2490   -0.0900 hc        1 SMM      0.082200
     34 HG1         2.0210   -1.2740    2.8450 h1        1 SMM      0.077200
     35 HG2         2.3660   -2.2160    1.3430 h1        1 SMM      0.077200
     36 HD1         4.4100   -0.0300    0.9040 hs        1 SMM      0.244800
     37 HE1         4.9850   -2.7650    2.7250 h1        1 SMM      0.093033
     38 HE2         4.9310   -2.6820    0.9290 h1        1 SMM      0.093033
     39 HE3         6.2130   -1.8020    1.8310 h1        1 SMM      0.093033
     40 H5'1        5.6410    0.0060    3.6210 h1        1 SMM      0.085200
     41 H5'2        4.6410    1.3730    3.0200 h1        1 SMM      0.085200
     42 H4'         3.3850   -0.9420    4.6490 h1        1 SMM      0.085700
     43 H1'         3.6830    1.1340    7.5090 h2        1 SMM      0.120700
     44 H2          3.1250    6.0990    8.8540 h5        1 SMM      0.105100
     45 HN61        8.1680    5.6200    8.7500 hn        1 SMM      0.483467
     46 HN62        8.0520    6.1760    7.1730 hn        1 SMM      0.483467
     47 H8          6.6960    1.5260    5.7460 h5        1 SMM      0.120800
     48 H2'         2.6450    3.0570    5.4400 h1        1 SMM      0.085700
     49 HO2'        1.4390    2.4700    7.2170 ho        1 SMM      0.449000
     50 H3'         2.4260    1.6720    3.5710 h1        1 SMM      0.089700
     51 HO3'        1.0910   -0.0060    5.4000 ho        1 SMM      0.454000
     52 HXT1       -1.2080   -3.4370   -1.6180 h1        1 SMM      0.079033
     53 HXT2        0.0740   -2.8160   -2.8030 h1        1 SMM      0.079033
     54 HXT3        0.5550   -3.8880   -1.3690 h1        1 SMM      0.079033
     55 HN3        -1.5200   -0.5040    2.2970 hn        1 SMM      0.473133
     56 H63         7.5350    7.1460    8.4480 hn        1 SMM      0.483467
@<TRIPOS>BOND
     1    1    2 1   
     2    1   29 1   
     3    1   30 1   
     4    1   55 1   
     5    2    3 1   
     6    2   25 1   
     7    2   31 1   
     8    3    4 1   
     9    3   32 1   
    10    3   33 1   
    11    4    5 1   
    12    4   34 1   
    13    4   35 1   
    14    5    6 1   
    15    5    7 1   
    16    5   36 1   
    17    6   37 1   
    18    6   38 1   
    19    6   39 1   
    20    7    8 1   
    21    7   40 1   
    22    7   41 1   
    23    8    9 1   
    24    8   23 1   
    25    8   42 1   
    26    9   10 1   
    27   10   11 1   
    28   10   21 1   
    29   10   43 1   
    30   11   12 1   
    31   11   20 1   
    32   12   13 ar  
    33   12   18 ar  
    34   13   14 ar  
    35   14   15 ar  
    36   14   44 1   
    37   15   16 ar  
    38   16   17 1   
    39   16   18 ar  
    40   17   45 1   
    41   17   46 1   
    42   17   56 1   
    43   18   19 1   
    44   19   20 2   
    45   20   47 1   
    46   21   22 1   
    47   21   23 1   
    48   21   48 1   
    49   22   49 1   
    50   23   24 1   
    51   23   50 1   
    52   24   51 1   
    53   25   26 2   
    54   25   27 1   
    55   27   28 1   
    56   28   52 1   
    57   28   53 1   
    58   28   54 1   
@<TRIPOS>SUBSTRUCTURE
     1 SMM         1 TEMP              0 ****  ****    0 ROOT
