@<TRIPOS>MOLECULE
SMM
   54    56     1     0     0
SMALL
bcc


@<TRIPOS>ATOM
      1 N          -3.4200    5.3770   -1.7120 n3        1 SMM     -0.891800
      2 CA         -4.2090    4.4450   -0.9440 c3        1 SMM      0.135500
      3 CB         -3.3710    3.5410   -0.0220 c3        1 SMM     -0.037400
      4 CG         -2.5780    4.3010    1.0020 c3        1 SMM     -0.068600
      5 SD         -1.8460    3.2570    2.2110 s6        1 SMM     -0.509200
      6 CE         -1.4190    4.1690    3.6240 c3        1 SMM     -0.078300
      7 C5'        -0.5380    2.2480    1.5960 c3        1 SMM     -0.077600
      8 C4'         0.0340    1.2820    2.6010 c3        1 SMM      0.170100
      9 O4'        -0.9620    0.3350    3.0330 os        1 SMM     -0.419600
     10 C1'        -0.7350   -0.9590    2.4700 c3        1 SMM      0.231800
     11 N9         -1.8520   -1.3290    1.6270 na        1 SMM     -0.289000
     12 C4         -1.9150   -2.4580    0.7980 ca        1 SMM      0.450800
     13 N3         -0.9780   -3.4120    0.5080 nb        1 SMM     -0.766000
     14 C2         -1.4440   -4.3530   -0.3460 ca        1 SMM      0.691900
     15 N1         -2.6620   -4.4780   -0.9350 nb        1 SMM     -0.796000
     16 C6         -3.6090   -3.5180   -0.6520 ca        1 SMM      0.766200
     17 N6         -4.8500   -3.5630   -1.2260 nh        1 SMM     -0.958500
     18 C5         -3.2650   -2.4540    0.2480 ca        1 SMM     -0.229200
     19 N7         -3.9830   -1.3550    0.7460 nc        1 SMM     -0.550100
     20 C8         -3.1270   -0.7170    1.5580 cd        1 SMM      0.422700
     21 C2'         0.6380   -0.9240    1.7220 c3        1 SMM      0.086100
     22 O2'         1.5050   -1.9000    2.2510 oh        1 SMM     -0.598800
     23 C3'         1.2180    0.4740    2.0240 c3        1 SMM      0.126100
     24 O3'         2.2400    0.4780    2.9980 oh        1 SMM     -0.590800
     25 C          -5.2880    5.1150   -0.0940 c         1 SMM      0.581100
     26 O          -5.3660    6.2970    0.2490 o         1 SMM     -0.553000
     27 OXT        -6.2760    4.2580    0.2970 os        1 SMM     -0.434900
     28 CXT        -7.3290    4.8050    1.0920 c3        1 SMM      0.124700
     29 HN1        -2.8370    5.9310   -1.1140 hn        1 SMM      0.362800
     30 HN2        -4.0110    5.9830   -2.2460 hn        1 SMM      0.362800
     31 HA1        -4.7520    3.7770   -1.6810 h1        1 SMM      0.089700
     32 HB1        -2.6830    2.9290   -0.6630 hc        1 SMM      0.058200
     33 HB2        -4.0890    2.8400    0.4840 hc        1 SMM      0.058200
     34 HG1        -3.2320    5.0480    1.5160 h1        1 SMM      0.073700
     35 HG2        -1.7530    4.8720    0.5080 h1        1 SMM      0.073700
     36 HD1        -2.7830    2.4470    2.6050 hs        1 SMM      0.218800
     37 HE1        -0.6030    4.8880    3.3880 h1        1 SMM      0.071367
     38 HE2        -2.2890    4.7480    4.0050 h1        1 SMM      0.071367
     39 HE3        -1.0630    3.5010    4.4400 h1        1 SMM      0.071367
     40 H5'1       -0.9180    1.6940    0.7040 h1        1 SMM      0.076700
     41 H5'2        0.2800    2.9260    1.2510 h1        1 SMM      0.076700
     42 H4'         0.3470    1.8110    3.5460 h1        1 SMM      0.095700
     43 H1'        -0.6910   -1.6780    3.3450 h2        1 SMM      0.100700
     44 H2         -0.7200   -5.1540   -0.6110 h5        1 SMM      0.051100
     45 HN61       -5.1110   -4.3180   -1.8100 hn        1 SMM      0.450300
     46 HN62       -5.5250   -2.8910   -0.9570 hn        1 SMM      0.450300
     47 H8         -3.3390    0.1930    2.1370 h5        1 SMM      0.087800
     48 H2'         0.5170   -1.0610    0.6140 h1        1 SMM      0.076700
     49 HO2'        1.2260   -2.7540    1.8910 ho        1 SMM      0.440000
     50 H3'         1.6120    0.9400    1.0800 h1        1 SMM      0.061700
     51 HO3'        2.8000   -0.2960    2.8460 ho        1 SMM      0.429000
     52 HXT1       -7.8540    5.6110    0.5250 h1        1 SMM      0.051033
     53 HXT2       -6.9130    5.2170    2.0430 h1        1 SMM      0.051033
     54 HXT3       -8.0000    3.9320    1.2820 h1        1 SMM      0.051033
@<TRIPOS>BOND
     1    1    2 1   
     2    1   29 1   
     3    1   30 1   
     4    2    3 1   
     5    2   25 1   
     6    2   31 1   
     7    3    4 1   
     8    3   32 1   
     9    3   33 1   
    10    4    5 1   
    11    4   34 1   
    12    4   35 1   
    13    5    6 1   
    14    5    7 1   
    15    5   36 1   
    16    6   37 1   
    17    6   38 1   
    18    6   39 1   
    19    7    8 1   
    20    7   40 1   
    21    7   41 1   
    22    8    9 1   
    23    8   23 1   
    24    8   42 1   
    25    9   10 1   
    26   10   11 1   
    27   10   21 1   
    28   10   43 1   
    29   11   12 1   
    30   11   20 1   
    31   12   13 ar  
    32   12   18 ar  
    33   13   14 ar  
    34   14   15 ar  
    35   14   44 1   
    36   15   16 ar  
    37   16   17 1   
    38   16   18 ar  
    39   17   45 1   
    40   17   46 1   
    41   18   19 1   
    42   19   20 2   
    43   20   47 1   
    44   21   22 1   
    45   21   23 1   
    46   21   48 1   
    47   22   49 1   
    48   23   24 1   
    49   23   50 1   
    50   24   51 1   
    51   25   26 2   
    52   25   27 1   
    53   27   28 1   
    54   28   52 1   
    55   28   53 1   
    56   28   54 1   
@<TRIPOS>SUBSTRUCTURE
     1 SMM         1 TEMP              0 ****  ****    0 ROOT
