@<TRIPOS>MOLECULE
SMM
   55    57     1     0     0
SMALL
bcc


@<TRIPOS>ATOM
      1 N           4.7250    1.1660    1.2060 nz        1 SMM     -0.827600
      2 CA          4.2630   -0.2450    1.0060 c3        1 SMM      0.059500
      3 CB          3.7070   -0.8680    2.3000 c3        1 SMM     -0.043400
      4 CG          2.6430   -0.0520    2.9560 c3        1 SMM     -0.097600
      5 SD          1.8040   -0.9100    4.2820 s6        1 SMM     -0.511200
      6 CE          0.4940   -1.9230    3.7830 c3        1 SMM     -0.087300
      7 C5'         1.2990    0.0930    5.6370 c3        1 SMM     -0.070600
      8 C4'         2.1300   -0.0200    6.8910 c3        1 SMM      0.139100
      9 O4'         3.5360    0.0010    6.5840 os        1 SMM     -0.439600
     10 C1'         4.1600    1.2140    7.0190 c3        1 SMM      0.244800
     11 N9          4.5920    1.9830    5.8670 na        1 SMM     -0.265000
     12 C4          3.8770    2.8910    5.0630 ca        1 SMM      0.462800
     13 N3          2.7170    3.5740    5.2760 nb        1 SMM     -0.702000
     14 C2          2.4000    4.4220    4.2690 ca        1 SMM      0.685900
     15 N1          3.0660    4.6760    3.1070 nb        1 SMM     -0.735000
     16 C6          4.2240    3.9930    2.8750 ca        1 SMM      0.666200
     17 N6          4.9340    4.1220    1.6640 nv        1 SMM     -0.940500
     18 C5          4.6740    3.0430    3.8420 ca        1 SMM     -0.249200
     19 N7          5.8070    2.2140    3.9080 nc        1 SMM     -0.614100
     20 C8          5.7240    1.6030    5.0970 cd        1 SMM      0.456700
     21 C2'         3.1750    1.9280    7.9860 c3        1 SMM      0.090100
     22 O2'         3.7550    1.7860    9.2700 oh        1 SMM     -0.596800
     23 C3'         1.8560    1.1260    7.8890 c3        1 SMM      0.091100
     24 O3'         1.4600    0.6500    9.1530 oh        1 SMM     -0.576800
     25 C           3.2230   -0.2930   -0.1070 c         1 SMM      0.613100
     26 O           2.7980    0.6740   -0.7420 o         1 SMM     -0.521000
     27 OXT         2.8090   -1.5500   -0.3820 os        1 SMM     -0.405900
     28 CXT         1.8490   -1.6920   -1.4450 c3        1 SMM      0.122700
     29 HN1         4.7360    1.6710    0.3110 hn        1 SMM      0.474800
     30 HN2         4.0710    1.6540    1.8370 hn        1 SMM      0.474800
     31 HA1         5.1540   -0.8540    0.6600 hx        1 SMM      0.129700
     32 HB1         4.5620   -1.0390    3.0080 hc        1 SMM      0.083700
     33 HB2         3.3030   -1.8770    2.0010 hc        1 SMM      0.083700
     34 HG1         3.0590    0.8660    3.4390 h1        1 SMM      0.066700
     35 HG2         1.8590    0.2510    2.2220 h1        1 SMM      0.066700
     36 HD1         2.6560   -1.7530    4.7800 hs        1 SMM      0.257800
     37 HE1        -0.3340   -1.3040    3.3660 h1        1 SMM      0.081367
     38 HE2         0.8140   -2.6400    2.9940 h1        1 SMM      0.081367
     39 HE3         0.0770   -2.5140    4.6290 h1        1 SMM      0.081367
     40 H5'1        0.2420   -0.1580    5.9040 h1        1 SMM      0.090700
     41 H5'2        1.3030    1.1510    5.2740 h1        1 SMM      0.090700
     42 H4'         1.9650   -1.0210    7.3840 h1        1 SMM      0.088700
     43 H1'         5.0990    0.8940    7.5690 h2        1 SMM      0.126700
     44 H2          1.4640    5.0100    4.4110 h5        1 SMM      0.079100
     45 HN61        4.6060    4.8670    1.0770 hn        1 SMM      0.416800
     46 HN62        5.9220    4.1820    1.8210 hn        1 SMM      0.416800
     47 H8          6.4610    0.8900    5.4970 h5        1 SMM      0.093800
     48 H2'         3.0220    3.0130    7.7540 h1        1 SMM      0.098700
     49 HO2'        3.1480    2.2030    9.8990 ho        1 SMM      0.438000
     50 H3'         1.0040    1.7760    7.5500 h1        1 SMM      0.113700
     51 HO3'        2.1760    0.0990    9.5030 ho        1 SMM      0.419000
     52 HXT1        1.6810   -2.7980   -1.4810 h1        1 SMM      0.074367
     53 HXT2        0.9170   -1.1360   -1.1850 h1        1 SMM      0.074367
     54 HXT3        2.2840   -1.3050   -2.3970 h1        1 SMM      0.074367
     55 HN3         5.6600    1.1780    1.6250 hn        1 SMM      0.474800
@<TRIPOS>BOND
     1    1    2 1   
     2    1   29 1   
     3    1   30 1   
     4    1   55 1   
     5    2    3 1   
     6    2   25 1   
     7    2   31 1   
     8    3    4 1   
     9    3   32 1   
    10    3   33 1   
    11    4    5 1   
    12    4   34 1   
    13    4   35 1   
    14    5    6 1   
    15    5    7 1   
    16    5   36 1   
    17    6   37 1   
    18    6   38 1   
    19    6   39 1   
    20    7    8 1   
    21    7   40 1   
    22    7   41 1   
    23    8    9 1   
    24    8   23 1   
    25    8   42 1   
    26    9   10 1   
    27   10   11 1   
    28   10   21 1   
    29   10   43 1   
    30   11   12 1   
    31   11   20 1   
    32   12   13 ar  
    33   12   18 ar  
    34   13   14 ar  
    35   14   15 ar  
    36   14   44 1   
    37   15   16 ar  
    38   16   17 1   
    39   16   18 ar  
    40   17   45 1   
    41   17   46 1   
    42   18   19 1   
    43   19   20 2   
    44   20   47 1   
    45   21   22 1   
    46   21   23 1   
    47   21   48 1   
    48   22   49 1   
    49   23   24 1   
    50   23   50 1   
    51   24   51 1   
    52   25   26 2   
    53   25   27 1   
    54   27   28 1   
    55   28   52 1   
    56   28   53 1   
    57   28   54 1   
@<TRIPOS>SUBSTRUCTURE
     1 SMM         1 TEMP              0 ****  ****    0 ROOT
