@<TRIPOS>MOLECULE
SMM
   55    57     1     0     0
SMALL
bcc


@<TRIPOS>ATOM
      1 N           4.6810    1.2240    1.1840 n4        1 SMM     -0.827600
      2 CA          4.1940   -0.1730    0.9500 c3        1 SMM      0.059500
      3 CB          3.6530   -0.8280    2.2350 c3        1 SMM     -0.043400
      4 CG          2.6140   -0.0170    2.9350 c3        1 SMM     -0.097600
      5 SD          1.7880   -0.9030    4.2500 s6        1 SMM     -0.511200
      6 CE          0.4520   -1.8800    3.7450 c3        1 SMM     -0.087300
      7 C5'         1.3250    0.0640    5.6450 c3        1 SMM     -0.070600
      8 C4'         2.1770   -0.1010    6.8790 c3        1 SMM      0.139100
      9 O4'         3.5770   -0.0910    6.5450 os        1 SMM     -0.439600
     10 C1'         4.2280    1.0970    7.0050 c3        1 SMM      0.244800
     11 N9          4.6510    1.8960    5.8700 na        1 SMM     -0.265000
     12 C4          3.9350    2.8390    5.1080 ca        1 SMM      0.462800
     13 N3          2.7900    3.5330    5.3650 nb        1 SMM     -0.702000
     14 C2          2.4670    4.4170    4.3910 ca        1 SMM      0.685900
     15 N1          3.1150    4.6980    3.2250 nb        1 SMM     -0.735000
     16 C6          4.2570    4.0040    2.9490 ca        1 SMM      0.666200
     17 N6          4.9460    4.1600    1.7300 nh        1 SMM     -0.940500
     18 C5          4.7100    3.0170    3.8780 ca        1 SMM     -0.249200
     19 N7          5.8320    2.1700    3.8950 nc        1 SMM     -0.614100
     20 C8          5.7610    1.5240    5.0660 cd        1 SMM      0.456700
     21 C2'         3.2740    1.7960    8.0130 c3        1 SMM      0.090100
     22 O2'         3.8760    1.6050    9.2810 oh        1 SMM     -0.596800
     23 C3'         1.9400    1.0180    7.9180 c3        1 SMM      0.091100
     24 O3'         1.5620    0.5080    9.1730 oh        1 SMM     -0.576800
     25 C           3.1320   -0.1710   -0.1440 c         1 SMM      0.613100
     26 O           2.7100    0.8220   -0.7400 o         1 SMM     -0.521000
     27 OXT         2.6940   -1.4120   -0.4490 os        1 SMM     -0.405900
     28 CXT         1.7110   -1.5070   -1.4970 c3        1 SMM      0.122700
     29 HN1         4.0470    1.7010    1.8420 hn        1 SMM      0.474800
     30 HN2         4.6830    1.7560    0.3040 hn        1 SMM      0.474800
     31 HA1         5.0690   -0.7840    0.5680 hx        1 SMM      0.129700
     32 HB1         3.2280   -1.8200    1.9130 hc        1 SMM      0.083700
     33 HB2         4.5190   -1.0330    2.9200 hc        1 SMM      0.083700
     34 HG1         1.8220    0.3210    2.2270 h1        1 SMM      0.066700
     35 HG2         3.0530    0.8790    3.4390 h1        1 SMM      0.066700
     36 HD1         2.6350   -1.7740    4.7050 hs        1 SMM      0.257800
     37 HE1         0.0420   -2.4910    4.5810 h1        1 SMM      0.081367
     38 HE2        -0.3740   -1.2360    3.3640 h1        1 SMM      0.081367
     39 HE3         0.7460   -2.5770    2.9290 h1        1 SMM      0.081367
     40 H5'1        1.3380    1.1330    5.3160 h1        1 SMM      0.090700
     41 H5'2        0.2690   -0.1790    5.9250 h1        1 SMM      0.090700
     42 H4'         2.0060   -1.1140    7.3430 h1        1 SMM      0.088700
     43 H1'         5.1720    0.7470    7.5270 h2        1 SMM      0.126700
     44 H2          1.5430    5.0140    4.5700 h5        1 SMM      0.079100
     45 HN61        4.6190    4.9280    1.1730 hn        1 SMM      0.416800
     46 HN62        5.9370    4.2000    1.8690 hn        1 SMM      0.416800
     47 H8          6.4950    0.7870    5.4290 h5        1 SMM      0.093800
     48 H2'         3.1320    2.8900    7.8180 h1        1 SMM      0.098700
     49 HO2'        3.2880    2.0110    9.9340 ho        1 SMM      0.438000
     50 H3'         1.0930    1.6910    7.6150 h1        1 SMM      0.113700
     51 HO3'        2.2750   -0.0650    9.4920 ho        1 SMM      0.419000
     52 HXT1        2.1340   -1.0970   -2.4460 h1        1 SMM      0.074367
     53 HXT2        1.5260   -2.6080   -1.5640 h1        1 SMM      0.074367
     54 HXT3        0.7930   -0.9460   -1.2020 h1        1 SMM      0.074367
     55 HN3         5.6240    1.2090    1.5850 hn        1 SMM      0.474800
@<TRIPOS>BOND
     1    1    2 1   
     2    1   29 1   
     3    1   30 1   
     4    1   55 1   
     5    2    3 1   
     6    2   25 1   
     7    2   31 1   
     8    3    4 1   
     9    3   32 1   
    10    3   33 1   
    11    4    5 1   
    12    4   34 1   
    13    4   35 1   
    14    5    6 1   
    15    5    7 1   
    16    5   36 1   
    17    6   37 1   
    18    6   38 1   
    19    6   39 1   
    20    7    8 1   
    21    7   40 1   
    22    7   41 1   
    23    8    9 1   
    24    8   23 1   
    25    8   42 1   
    26    9   10 1   
    27   10   11 1   
    28   10   21 1   
    29   10   43 1   
    30   11   12 1   
    31   11   20 1   
    32   12   13 ar  
    33   12   18 ar  
    34   13   14 ar  
    35   14   15 ar  
    36   14   44 1   
    37   15   16 ar  
    38   16   17 1   
    39   16   18 ar  
    40   17   45 1   
    41   17   46 1   
    42   18   19 1   
    43   19   20 2   
    44   20   47 1   
    45   21   22 1   
    46   21   23 1   
    47   21   48 1   
    48   22   49 1   
    49   23   24 1   
    50   23   50 1   
    51   24   51 1   
    52   25   26 2   
    53   25   27 1   
    54   27   28 1   
    55   28   52 1   
    56   28   53 1   
    57   28   54 1   
@<TRIPOS>SUBSTRUCTURE
     1 SMM         1 TEMP              0 ****  ****    0 ROOT
