@<TRIPOS>MOLECULE
SMN
   18    18     1     0     0
SMALL
bcc


@<TRIPOS>ATOM
      1 C1          0.2550    0.2840   -0.4410 ca        1 SMN     -0.052300
      2 C2          1.2950   -0.2600   -1.2030 ca        1 SMN     -0.126000
      3 C3          1.0870   -0.6050   -2.5370 ca        1 SMN     -0.150000
      4 C4         -0.1610   -0.4110   -3.1260 ca        1 SMN     -0.164000
      5 C5         -1.2050    0.1240   -2.3690 ca        1 SMN     -0.150000
      6 C6         -1.0030    0.4680   -1.0360 ca        1 SMN     -0.126000
      7 C7          0.4610    0.7030    0.9830 c3        1 SMN      0.042400
      8 C10        -0.6510    0.1450    1.9250 c         1 SMN      0.904600
      9 O8          1.7490    0.3310    1.4430 oh        1 SMN     -0.639800
     10 O11        -0.2940   -0.7600    2.7310 o         1 SMN     -0.827300
     11 O12        -1.8040    0.6440    1.8480 o         1 SMN     -0.827300
     12 H2          2.2780   -0.4130   -0.7310 ha        1 SMN      0.157500
     13 H3          1.9110   -1.0330   -3.1260 ha        1 SMN      0.107500
     14 H4         -0.3240   -0.6810   -4.1770 ha        1 SMN      0.103000
     15 H5         -2.1950    0.2670   -2.8260 ha        1 SMN      0.107500
     16 H6         -1.8260    0.8620   -0.4110 ha        1 SMN      0.157500
     17 H7          0.4350    1.8290    1.0280 h1        1 SMN      0.054700
     18 HO8         1.6270   -0.4380    2.0240 ho        1 SMN      0.427000
@<TRIPOS>BOND
     1    1    2 ar  
     2    1    6 ar  
     3    1    7 1   
     4    2    3 ar  
     5    2   12 1   
     6    3    4 ar  
     7    3   13 1   
     8    4    5 ar  
     9    4   14 1   
    10    5    6 ar  
    11    5   15 1   
    12    6   16 1   
    13    7    8 1   
    14    7    9 1   
    15    7   17 1   
    16    8   10 1   
    17    8   11 1   
    18    9   18 1   
@<TRIPOS>SUBSTRUCTURE
     1 SMN         1 TEMP              0 ****  ****    0 ROOT
