@<TRIPOS>MOLECULE
SMN
   18    18     1     0     0
SMALL
bcc


@<TRIPOS>ATOM
      1 C1          0.0630   -0.0830   -0.0280 ca        1 SMN     -0.052300
      2 C2          1.4190   -0.4190    0.0420 ca        1 SMN     -0.126000
      3 C3          2.1060   -0.3370    1.2530 ca        1 SMN     -0.150000
      4 C4          1.4440    0.0810    2.4070 ca        1 SMN     -0.164000
      5 C5          0.0930    0.4250    2.3420 ca        1 SMN     -0.150000
      6 C6         -0.5950    0.3460    1.1350 ca        1 SMN     -0.126000
      7 C7         -0.7100   -0.2010   -1.3060 c3        1 SMN      0.042400
      8 C10        -1.5320    1.0880   -1.6160 c         1 SMN      0.904600
      9 O8          0.1430   -0.5310   -2.3900 oh        1 SMN     -0.639800
     10 O11        -1.1240    1.7880   -2.5850 o         1 SMN     -0.827300
     11 O12        -2.5500    1.3300   -0.9150 o         1 SMN     -0.827300
     12 H2          1.9350   -0.7460   -0.8730 ha        1 SMN      0.157500
     13 H3          3.1710   -0.6020    1.2970 ha        1 SMN      0.107500
     14 H4          1.9840    0.1430    3.3610 ha        1 SMN      0.103000
     15 H5         -0.4290    0.7660    3.2470 ha        1 SMN      0.107500
     16 H6         -1.6570    0.6470    1.0570 ha        1 SMN      0.157500
     17 H7         -1.4260   -1.0660   -1.2090 h1        1 SMN      0.054700
     18 HO8         0.2600    0.2810   -2.9100 ho        1 SMN      0.427000
@<TRIPOS>BOND
     1    1    2 ar  
     2    1    6 ar  
     3    1    7 1   
     4    2    3 ar  
     5    2   12 1   
     6    3    4 ar  
     7    3   13 1   
     8    4    5 ar  
     9    4   14 1   
    10    5    6 ar  
    11    5   15 1   
    12    6   16 1   
    13    7    8 1   
    14    7    9 1   
    15    7   17 1   
    16    8   10 1   
    17    8   11 1   
    18    9   18 1   
@<TRIPOS>SUBSTRUCTURE
     1 SMN         1 TEMP              0 ****  ****    0 ROOT
