@<TRIPOS>MOLECULE
SMP
   37    39     1     0     0
SMALL
bcc


@<TRIPOS>ATOM
      1 P           1.9300   -1.2160   -4.4930 p5        1 SMP      1.366600
      2 CMP         0.6650   -1.5930   -5.5410 c3        1 SMP     -0.378300
      3 OP1         3.1970   -1.8050   -4.9680 o         1 SMP     -0.864000
      4 O5'         1.4760   -2.1200   -3.1530 os        1 SMP     -0.585200
      5 C5'         1.0600   -1.4560   -2.0130 c3        1 SMP      0.185400
      6 C4'         2.1160   -1.5860   -0.9020 c3        1 SMP      0.065100
      7 O4'         2.9920   -0.4420   -0.8950 os        1 SMP     -0.391600
      8 C1'         2.6940    0.4300    0.1940 c3        1 SMP      0.262800
      9 N9          2.0970    1.6710   -0.2660 na        1 SMP     -0.291000
     10 C8          1.8290    2.1190   -1.5860 cc        1 SMP      0.464700
     11 N7          1.3630    3.3790   -1.6260 nd        1 SMP     -0.586100
     12 C5          1.3200    3.8090   -0.2930 ca        1 SMP     -0.202200
     13 C6          0.9300    5.0400    0.3230 ca        1 SMP      0.714200
     14 N6          0.3820    6.0550   -0.4480 nh        1 SMP     -0.939500
     15 N1          1.0510    5.1750    1.6830 nb        1 SMP     -0.799000
     16 C2          1.5070    4.0960    2.3790 ca        1 SMP      0.652900
     17 N3          1.8890    2.8740    1.9450 nb        1 SMP     -0.731000
     18 C4          1.7910    2.7430    0.5860 ca        1 SMP      0.421800
     19 C3'         1.5030   -1.6930    0.5070 c3        1 SMP      0.116100
     20 C2'         1.8200   -0.3600    1.1960 c3        1 SMP     -0.149400
     21 O3'         2.0220   -2.7880    1.2380 oh        1 SMP     -0.600800
     22 OP3         1.8130    0.1980   -4.0470 o         1 SMP     -0.864000
     23 HMP1        0.0960   -2.4840   -5.1930 hc        1 SMP      0.061367
     24 HMP2       -0.0520   -0.7480   -5.6330 hc        1 SMP      0.061367
     25 HMP3        1.0530   -1.8250   -6.5580 hc        1 SMP      0.061367
     26 H5'         0.8650   -0.3660   -2.2240 h1        1 SMP      0.036200
     27 H5''        0.1100   -1.9490   -1.6560 h1        1 SMP      0.036200
     28 H4'         2.7920   -2.4560   -1.1320 h1        1 SMP      0.100700
     29 H1'         3.6970    0.6960    0.6470 h2        1 SMP      0.075700
     30 H8          1.9970    1.4600   -2.4780 h5        1 SMP      0.183800
     31 H61         0.5460    5.9860   -1.4260 hn        1 SMP      0.422300
     32 H62         0.3620    6.9680   -0.0630 hn        1 SMP      0.422300
     33 H2          1.5770    4.2530    3.4750 h5        1 SMP      0.034100
     34 H3'         0.3980   -1.8890    0.4730 h1        1 SMP      0.089700
     35 H2'         0.8810    0.1810    1.4630 hc        1 SMP      0.073700
     36 H2''        2.3970   -0.5280    2.1390 hc        1 SMP      0.073700
     37 HO3'        2.9830   -2.7570    1.1610 ho        1 SMP      0.400000
@<TRIPOS>BOND
     1    1    2 1   
     2    1    3 1   
     3    1    4 1   
     4    1   22 1   
     5    2   23 1   
     6    2   24 1   
     7    2   25 1   
     8    4    5 1   
     9    5    6 1   
    10    5   26 1   
    11    5   27 1   
    12    6    7 1   
    13    6   19 1   
    14    6   28 1   
    15    7    8 1   
    16    8    9 1   
    17    8   20 1   
    18    8   29 1   
    19    9   10 1   
    20    9   18 1   
    21   10   11 2   
    22   10   30 1   
    23   11   12 1   
    24   12   13 ar  
    25   12   18 ar  
    26   13   14 1   
    27   13   15 ar  
    28   14   31 1   
    29   14   32 1   
    30   15   16 ar  
    31   16   17 ar  
    32   16   33 1   
    33   17   18 ar  
    34   19   20 1   
    35   19   21 1   
    36   19   34 1   
    37   20   35 1   
    38   20   36 1   
    39   21   37 1   
@<TRIPOS>SUBSTRUCTURE
     1 SMP         1 TEMP              0 ****  ****    0 ROOT
