@<TRIPOS>MOLECULE
SMP
   37    34     1     0     0
SMALL
bcc


@<TRIPOS>ATOM
      1 P           1.5600    4.5140   -0.6140 p3        1 SMP      2.639000
      2 CMP         2.3310    5.4990   -1.9490 c2        1 SMP     -0.902000
      3 OP1         2.3810    4.6390    0.6380 o         1 SMP     -1.193500
      4 O5'         1.4980    3.0090   -1.0510 os        1 SMP     -0.745000
      5 C5'         0.2860    2.2440   -0.7570 c3        1 SMP      0.043000
      6 C4'         0.2060    1.0610   -1.6710 c3        1 SMP     -0.049000
      7 O4'         0.7100   -0.2640   -0.9170 os        1 SMP     -0.280000
      8 C1'        -0.5470   -1.0710   -0.6250 c3        1 SMP      0.163000
      9 N9         -0.5600   -1.4990    0.7640 n3        1 SMP     -0.188000
     10 C8         -0.5070   -0.8010    1.9360 c1        1 SMP     -0.016000
     11 N7         -0.3930   -1.6790    2.9350 n2        1 SMP     -0.143000
     12 C5         -0.3740   -2.9400    2.3890 c1        1 SMP     -0.226000
     13 C6         -0.2720   -4.2250    2.9670 c1        1 SMP      0.210000
     14 N6         -0.1440   -4.7160    4.2910 n3        1 SMP     -0.344000
     15 N1         -0.2800   -5.3140    2.1870 n1        1 SMP     -0.275000
     16 C2         -0.3840   -5.1880    0.8500 c1        1 SMP      0.002000
     17 N3         -0.4840   -3.9210    0.2720 n1        1 SMP     -0.199000
     18 C4         -0.4770   -2.8160    1.0560 c1        1 SMP      0.053000
     19 C3'        -1.0010    0.8330   -1.9730 c3        1 SMP      0.037000
     20 C2'        -1.5520   -0.2450   -0.8640 c3        1 SMP     -0.205000
     21 O3'        -1.0860    0.2550   -3.3190 oh        1 SMP     -0.363000
     22 OP3         0.1580    5.0260   -0.3540 o         1 SMP     -1.193500
     23 HMP1        3.1370    5.0470   -2.2630 ha        1 SMP      0.106333
     24 HMP2        1.6720    5.5970   -2.7250 ha        1 SMP      0.106333
     25 HMP3        2.5670    6.3900   -1.6050 ha        1 SMP      0.106333
     26 H5'         0.3090    1.9430    0.1530 h1        1 SMP      0.065500
     27 H5''       -0.4950    2.8090   -0.8930 h1        1 SMP      0.065500
     28 H4'         0.7330    1.2160   -2.4710 h1        1 SMP      0.130000
     29 H1'        -0.5940   -1.7930   -1.1820 h2        1 SMP      0.133000
     30 H8         -0.5470    0.1960    2.0270 DU        1 SMP      0.227000
     31 H61        -0.1110   -5.6440    4.4490 hn        1 SMP      0.224000
     32 H62        -0.1040   -4.1140    5.0120 hn        1 SMP      0.224000
     33 H2         -0.3880   -5.9350    0.3210 ha        1 SMP      0.176000
     34 H3'        -1.5220    1.6640   -1.9270 h1        1 SMP      0.115000
     35 H2'        -2.3350   -0.7490   -1.2340 hc        1 SMP      0.110000
     36 H2''       -1.8080    0.2200   -0.0390 hc        1 SMP      0.110000
     37 HO3'       -1.5850    0.7530   -3.8150 ho        1 SMP      0.274000
@<TRIPOS>BOND
     1    1    3 1   
     2    1    4 1   
     3    1   22 1   
     4    2   23 1   
     5    2   24 1   
     6    2   25 1   
     7    4    5 1   
     8    5    6 1   
     9    5   26 1   
    10    5   27 1   
    11    6    7 1   
    12    6   19 1   
    13    6   28 1   
    14    7    8 1   
    15    8    9 1   
    16    8   20 1   
    17    8   29 1   
    18    9   10 1   
    19    9   18 1   
    20   10   11 1   
    21   11   12 1   
    22   12   18 1   
    23   13   14 1   
    24   13   15 1   
    25   14   31 1   
    26   14   32 1   
    27   16   17 1   
    28   16   33 1   
    29   19   20 1   
    30   19   21 1   
    31   19   34 1   
    32   20   35 1   
    33   20   36 1   
    34   21   37 1   
@<TRIPOS>SUBSTRUCTURE
     1 SMP         1 TEMP              0 ****  ****    0 ROOT
