@<TRIPOS>MOLECULE
SMR
   80    81     1     0     0
SMALL
bcc


@<TRIPOS>ATOM
      1 C1          0.6230    0.2420   -0.4620 c3        1 SMR      0.049000
      2 C2          2.1190    0.3880   -0.1600 c3        1 SMR     -0.161000
      3 C3          2.4090    0.2030    1.3120 c3        1 SMR     -0.185000
      4 C4          1.8520   -1.1290    1.8120 c3        1 SMR     -0.062000
      5 C5          0.0630   -1.0610    0.1640 c3        1 SMR     -0.059000
      6 O6         -0.0440    1.3530    0.1720 os        1 SMR     -0.277000
      7 C7         -0.7750    2.1850   -0.7170 c3        1 SMR      0.076000
      8 C8         -1.7340    1.3650   -1.5600 c2        1 SMR     -0.109000
      9 C9         -1.0400    0.3440   -2.3880 c3        1 SMR     -0.134000
     10 C10         0.4150    0.2020   -1.9800 c3        1 SMR     -0.181000
     11 C11        -1.4760    3.3350   -0.0150 c2        1 SMR     -0.062000
     12 C12        -2.7720    3.1410    0.1010 c1        1 SMR     -0.222000
     13 C13        -3.6460    2.2560   -0.4060 c2        1 SMR      0.030000
     14 C14        -3.0850    1.4880   -1.5250 c2        1 SMR     -0.117000
     15 N15        -4.9760    2.0410    0.0870 n3        1 SMR     -0.029000
     16 N16        -5.3110    0.7810    0.3770 n2        1 SMR     -0.282000
     17 C17        -5.7170   -0.3220    0.5360 c1        1 SMR      0.112000
     18 C19        -0.6990    0.3750    2.9670 c2        1 SMR      0.179000
     19 C20        -4.6190   -3.4920    5.1530 c3        1 SMR     -0.741000
     20 O21        -1.4370    0.6490    3.9230 o         1 SMR     -0.384000
     21 N22        -5.3870   -2.8070    4.1340 n3        1 SMR     -0.299000
     22 C23        -4.6670   -2.5850    2.9040 c3        1 SMR     -0.143000
     23 C24        -7.1010   -5.3440    4.1380 c1        1 SMR     -0.079000
     24 C25        -4.8160   -1.2140    6.5270 c2        1 SMR     -0.591000
     25 C26        -6.0680   -0.4210    6.4920 c3        1 SMR     -0.124000
     26 C27        -5.9330    0.9720    6.0430 c2        1 SMR      0.097000
     27 C28        -4.7030    1.5360    5.7850 c2        1 SMR     -0.225000
     28 C29        -3.5450    0.7770    5.9500 c2        1 SMR      0.153000
     29 C30        -3.6070   -0.6090    6.3170 c2        1 SMR     -0.028000
     30 C31        -2.2890   -1.2880    6.4060 c3        1 SMR     -0.231000
     31 C32        -6.7960   -0.4130    7.8500 c3        1 SMR     -0.200000
     32 O33        -6.4860   -6.2390    4.8080 os        1 SMR     -0.106000
     33 C34        -8.2630   -7.4990    5.9110 c3        1 SMR     -0.246000
     34 C35        -7.0430   -7.5720    5.0340 c3        1 SMR     -0.116000
     35 S36        -5.0260   -2.9540    6.7380 s6        1 SMR      2.772000
     36 O37        -6.3710   -3.1760    7.0320 o         1 SMR     -0.901000
     37 O38        -4.0670   -3.4070    7.6440 o         1 SMR     -0.901000
     38 N39         0.4540   -1.3820    1.5180 n3        1 SMR     -0.269000
     39 H2          2.4300   -1.9640    1.3190 h1        1 SMR      0.096000
     40 H2A         2.6750   -0.3800   -0.7580 hc        1 SMR      0.097500
     41 H3          2.4620    1.4030   -0.4880 hc        1 SMR      0.097500
     42 H3A         3.5160    0.2180    1.4850 hc        1 SMR      0.094000
     43 H4          1.9610    1.0530    1.8900 hc        1 SMR      0.094000
     44 H4A         2.0200   -1.2050    2.9220 h1        1 SMR      0.096000
     45 H5          0.4370   -1.9150   -0.4730 h1        1 SMR      0.100500
     46 H5A        -1.0590   -1.0260    0.0890 h1        1 SMR      0.100500
     47 H9         -1.5640   -0.6440   -2.2810 hc        1 SMR      0.110000
     48 H9A        -1.0960    0.6320   -3.4730 hc        1 SMR      0.110000
     49 H10         0.8190   -0.7650   -2.3770 hc        1 SMR      0.104500
     50 H10A        1.0180    1.0280   -2.4440 hc        1 SMR      0.104500
     51 H11        -0.0510    2.7000   -1.4230 h1        1 SMR      0.122000
     52 H12        -0.9100    4.2510    0.1790 ha        1 SMR      0.168000
     53 H17        -3.7530    0.9440   -2.2060 ha        1 SMR      0.161000
     54 H18        -0.1860    1.1690    2.3780 h4        1 SMR      0.142000
     55 H18A       -0.1640   -1.6330    3.4850 h1        1 SMR      0.113500
     56 H19        -1.4950   -1.4740    2.2540 h1        1 SMR      0.113500
     57 H20        -3.5140   -3.3790    4.9630 h2        1 SMR      0.163500
     58 H20A       -4.8090   -4.6140    5.1140 h2        1 SMR      0.163500
     59 HO21       -2.5470    1.2310    5.7630 ha        1 SMR      0.212000
     60 H23        -4.3080   -3.5330    2.4170 h1        1 SMR      0.085000
     61 H23A       -3.7720   -1.9370    3.1010 h1        1 SMR      0.085000
     62 H24        -5.3500   -2.0510    2.1880 h1        1 SMR      0.085000
     63 H24A       -8.1000   -5.5600    3.7030 ha        1 SMR      0.047000
     64 H27        -6.7730   -0.9450    5.7500 hc        1 SMR      0.225000
     65 H28        -6.8630    1.5650    5.9480 ha        1 SMR      0.179000
     66 H29        -4.6230    2.5880    5.4540 ha        1 SMR      0.188000
     67 H31        -1.6680   -0.7910    7.1970 hc        1 SMR      0.127000
     68 H31A       -2.3670   -2.3710    6.6720 hc        1 SMR      0.127000
     69 H31B       -1.7480   -1.1870    5.4260 hc        1 SMR      0.127000
     70 H32        -7.1490   -1.4450    8.1030 hc        1 SMR      0.122333
     71 H32A       -7.6890    0.2560    7.7910 hc        1 SMR      0.122333
     72 H32B       -6.1110   -0.0460    8.6500 hc        1 SMR      0.122333
     73 H34        -9.0540   -6.8690    5.4350 hc        1 SMR      0.097000
     74 H34A       -8.0100   -7.0570    6.9050 hc        1 SMR      0.097000
     75 H34B       -8.6720   -8.5260    6.0700 hc        1 SMR      0.097000
     76 H35        -7.2710   -8.0290    4.0380 h1        1 SMR      0.112500
     77 H35A       -6.2020   -8.1230    5.5280 h1        1 SMR      0.112500
     78 HN15       -5.0930    2.6070    0.9320 hn        1 SMR      0.186000
     79 C18        -0.4850   -1.0670    2.5610 c3        1 SMR     -0.116000
     80 H221       -6.2250   -3.3500    3.9440 hn        1 SMR      0.212000
@<TRIPOS>BOND
     1    1    2 1   
     2    1    5 1   
     3    1    6 1   
     4    1   10 1   
     5    2    3 1   
     6    2   40 1   
     7    2   41 1   
     8    3    4 1   
     9    3   42 1   
    10    3   43 1   
    11    4   38 1   
    12    4   39 1   
    13    4   44 1   
    14    5   38 1   
    15    5   45 1   
    16    5   46 1   
    17    6    7 1   
    18    7    8 1   
    19    7   11 1   
    20    7   51 1   
    21    8    9 1   
    22    8   14 1   
    23    9   10 1   
    24    9   47 1   
    25    9   48 1   
    26   10   49 1   
    27   10   50 1   
    28   11   12 1   
    29   11   52 1   
    30   12   13 1   
    31   13   14 1   
    32   13   15 1   
    33   14   53 1   
    34   15   16 1   
    35   15   78 1   
    36   16   17 1   
    37   18   20 1   
    38   18   54 1   
    39   18   79 1   
    40   19   21 1   
    41   19   35 1   
    42   19   57 1   
    43   19   58 1   
    44   21   22 1   
    45   21   80 1   
    46   22   60 1   
    47   22   61 1   
    48   22   62 1   
    49   23   32 1   
    50   23   63 1   
    51   24   25 1   
    52   24   29 1   
    53   24   35 1   
    54   25   26 1   
    55   25   31 1   
    56   25   64 1   
    57   26   27 1   
    58   26   65 1   
    59   27   28 1   
    60   27   66 1   
    61   28   29 1   
    62   28   59 1   
    63   29   30 1   
    64   30   67 1   
    65   30   68 1   
    66   30   69 1   
    67   31   70 1   
    68   31   71 1   
    69   31   72 1   
    70   32   34 1   
    71   33   34 1   
    72   33   73 1   
    73   33   74 1   
    74   33   75 1   
    75   34   76 1   
    76   34   77 1   
    77   35   36 1   
    78   35   37 1   
    79   38   79 1   
    80   55   79 1   
    81   56   79 1   
@<TRIPOS>SUBSTRUCTURE
     1 SMR         1 TEMP              0 ****  ****    0 ROOT
