@<TRIPOS>MOLECULE
SMR
   79    83     1     0     0
SMALL
bcc


@<TRIPOS>ATOM
      1 C1          4.0090   -1.3510   -1.0060 c3        1 SMR      0.158800
      2 C2          4.6640   -2.7130   -0.7550 c3        1 SMR     -0.071400
      3 C3          4.0510   -3.3970    0.4440 c3        1 SMR     -0.076400
      4 C4          2.5390   -3.5160    0.2860 c3        1 SMR      0.169800
      5 C5          2.4690   -1.4640   -1.0360 c3        1 SMR      0.145800
      6 O6          4.4270   -0.5320    0.1050 os        1 SMR     -0.313900
      7 C7          4.2870    0.8340   -0.0600 ca        1 SMR      0.110100
      8 C8          4.1280    1.4480   -1.3070 ca        1 SMR     -0.089300
      9 C9          4.0190    0.6430   -2.5480 c3        1 SMR     -0.027100
     10 C10         4.5140   -0.7710   -2.3290 c3        1 SMR     -0.104400
     11 C11         4.3720    1.5750    1.1470 ca        1 SMR     -0.114000
     12 C12         4.3030    2.9560    1.1400 ca        1 SMR     -0.113000
     13 C13         4.1510    3.5940   -0.0990 ca        1 SMR     -0.084200
     14 C14         4.0620    2.8420   -1.3270 ca        1 SMR     -0.178900
     15 N15         3.9910    4.9500   -0.4580 na        1 SMR     -0.014100
     16 N16         3.9120    5.0900   -1.7900 nc        1 SMR     -0.511100
     17 C17         3.9090    3.8670   -2.3530 cd        1 SMR      0.339800
     18 C19        -0.3460   -1.1190   -0.3790 c3        1 SMR      0.128100
     19 C20        -1.8440   -1.4460   -0.1770 c3        1 SMR      0.199800
     20 O21         0.0630   -0.0020    0.3820 oh        1 SMR     -0.584800
     21 N22        -2.7510   -0.3380   -0.2660 n3        1 SMR     -0.792500
     22 C23        -2.5430    0.6110   -1.3250 c3        1 SMR      0.209800
     23 C24        -2.7120    0.0640   -2.7500 c3        1 SMR      0.111400
     24 C25        -3.2860   -0.1970    2.2890 ca        1 SMR     -0.370500
     25 C26        -2.5500    0.9380    2.6940 ca        1 SMR      0.048700
     26 C27        -2.0250    1.0260    3.9890 ca        1 SMR     -0.175000
     27 C28        -2.2060   -0.0110    4.8960 ca        1 SMR     -0.061000
     28 C29        -2.9010   -1.1490    4.5050 ca        1 SMR     -0.175000
     29 C30        -3.4340   -1.2520    3.2130 ca        1 SMR      0.048700
     30 C31        -4.1490   -2.5130    2.8860 c3        1 SMR     -0.098300
     31 C32        -2.2690    2.0720    1.7750 c3        1 SMR     -0.098300
     32 O33        -4.1020   -0.1480   -2.9530 os        1 SMR     -0.418600
     33 C34        -5.8900   -0.8540   -4.3190 c3        1 SMR     -0.098100
     34 C35        -4.3910   -0.6800   -4.2460 c3        1 SMR      0.132400
     35 S36        -4.0320   -0.2200    0.7500 sy        1 SMR      1.509200
     36 O37        -4.7120    1.0000    0.5490 o         1 SMR     -0.652800
     37 O38        -4.8390   -1.3680    0.6400 o         1 SMR     -0.652800
     38 N39         1.8880   -2.2320    0.0510 n3        1 SMR     -0.718600
     39 H2          4.5270   -3.3390   -1.6740 hc        1 SMR      0.053200
     40 H2A         5.7630   -2.5670   -0.5890 hc        1 SMR      0.053200
     41 H3          4.4790   -4.4250    0.5610 hc        1 SMR      0.058200
     42 H3A         4.2910   -2.8090    1.3690 hc        1 SMR      0.058200
     43 H4          2.3200   -4.2490   -0.5470 h1        1 SMR      0.029200
     44 H4A         2.1080   -3.9430    1.2350 h1        1 SMR      0.029200
     45 H5          2.0500   -0.4170   -0.9530 h1        1 SMR      0.049200
     46 H5A         2.1830   -1.8860   -2.0440 h1        1 SMR      0.049200
     47 H9          2.9440    0.6250   -2.8780 hc        1 SMR      0.056700
     48 H9A         4.6100    1.1260   -3.3700 hc        1 SMR      0.056700
     49 H10         5.6360   -0.7770   -2.3080 hc        1 SMR      0.057700
     50 H10A        4.1820   -1.4270   -3.1740 hc        1 SMR      0.057700
     51 H11         4.4940    1.0220    2.0910 ha        1 SMR      0.152000
     52 H12         4.3640    3.5310    2.0740 ha        1 SMR      0.140000
     53 H17         3.8020    3.7130   -3.4270 h4        1 SMR      0.051800
     54 H18         0.0970   -2.8110    0.9210 h1        1 SMR      0.038700
     55 H18A        0.1760   -3.1560   -0.8680 h1        1 SMR      0.038700
     56 H19        -0.1700   -0.8020   -1.4480 h1        1 SMR      0.071700
     57 H20        -2.1170   -2.2240   -0.9500 h1        1 SMR      0.047700
     58 H20A       -1.9730   -1.9130    0.8450 h1        1 SMR      0.047700
     59 HO21        0.1720   -0.2920    1.2960 ho        1 SMR      0.414000
     60 H23        -3.2760    1.4620   -1.1900 h1        1 SMR      0.077200
     61 H23A       -1.4970    1.0320   -1.2500 h1        1 SMR      0.077200
     62 H24        -2.3350    0.8300   -3.4800 h1        1 SMR      0.028700
     63 H24A       -2.1480   -0.8950   -2.8990 h1        1 SMR      0.028700
     64 H27        -1.4650    1.9250    4.2900 ha        1 SMR      0.138500
     65 H28        -1.7980    0.0670    5.9160 ha        1 SMR      0.135000
     66 H29        -3.0370   -1.9770    5.2180 ha        1 SMR      0.138500
     67 H31        -3.7330   -2.9800    1.9580 hc        1 SMR      0.068533
     68 H31A       -4.0640   -3.2530    3.7190 hc        1 SMR      0.068533
     69 H31B       -5.2370   -2.3110    2.7050 hc        1 SMR      0.068533
     70 H32        -3.1980    2.4280    1.2600 hc        1 SMR      0.068533
     71 H32A       -1.8390    2.9400    2.3340 hc        1 SMR      0.068533
     72 H32B       -1.5180    1.7560    1.0040 hc        1 SMR      0.068533
     73 H34        -6.2410   -1.5430   -3.5130 hc        1 SMR      0.048367
     74 H34A       -6.4020    0.1290   -4.1850 hc        1 SMR      0.048367
     75 H34B       -6.1650   -1.2800   -5.3130 hc        1 SMR      0.048367
     76 H35        -4.0260    0.0330   -5.0330 h1        1 SMR      0.021200
     77 H35A       -3.8630   -1.6630   -4.3730 h1        1 SMR      0.021200
     78 HN15        4.2860    5.7220    0.0930 hn        1 SMR      0.314700
     79 C18         0.4480   -2.4020   -0.0700 c3        1 SMR      0.136800
@<TRIPOS>BOND
     1    1    2 1   
     2    1    5 1   
     3    1    6 1   
     4    1   10 1   
     5    2    3 1   
     6    2   39 1   
     7    2   40 1   
     8    3    4 1   
     9    3   41 1   
    10    3   42 1   
    11    4   38 1   
    12    4   43 1   
    13    4   44 1   
    14    5   38 1   
    15    5   45 1   
    16    5   46 1   
    17    6    7 1   
    18    7    8 ar  
    19    7   11 ar  
    20    8    9 1   
    21    8   14 ar  
    22    9   10 1   
    23    9   47 1   
    24    9   48 1   
    25   10   49 1   
    26   10   50 1   
    27   11   12 ar  
    28   11   51 1   
    29   12   13 ar  
    30   12   52 1   
    31   13   14 ar  
    32   13   15 1   
    33   14   17 1   
    34   15   16 1   
    35   15   78 1   
    36   16   17 2   
    37   17   53 1   
    38   18   19 1   
    39   18   20 1   
    40   18   56 1   
    41   18   79 1   
    42   19   21 1   
    43   19   57 1   
    44   19   58 1   
    45   20   59 1   
    46   21   22 1   
    47   21   35 1   
    48   22   23 1   
    49   22   60 1   
    50   22   61 1   
    51   23   32 1   
    52   23   62 1   
    53   23   63 1   
    54   24   25 ar  
    55   24   29 ar  
    56   24   35 1   
    57   25   26 ar  
    58   25   31 1   
    59   26   27 ar  
    60   26   64 1   
    61   27   28 ar  
    62   27   65 1   
    63   28   29 ar  
    64   28   66 1   
    65   29   30 1   
    66   30   67 1   
    67   30   68 1   
    68   30   69 1   
    69   31   70 1   
    70   31   71 1   
    71   31   72 1   
    72   32   34 1   
    73   33   34 1   
    74   33   73 1   
    75   33   74 1   
    76   33   75 1   
    77   34   76 1   
    78   34   77 1   
    79   35   36 2   
    80   35   37 2   
    81   38   79 1   
    82   54   79 1   
    83   55   79 1   
@<TRIPOS>SUBSTRUCTURE
     1 SMR         1 TEMP              0 ****  ****    0 ROOT
