@<TRIPOS>MOLECULE
SMR
   80    81     1     0     0
SMALL
bcc


@<TRIPOS>ATOM
      1 C1          0.4950   -0.2760   -0.8050 c3        1 SMR      0.049000
      2 C2          1.9300   -0.0150   -0.3280 c3        1 SMR     -0.160000
      3 C3          1.9830    0.2790    1.1540 c3        1 SMR     -0.186000
      4 C4          1.2860   -0.8240    1.9470 c3        1 SMR     -0.070000
      5 C5         -0.2010   -1.3130    0.1150 c3        1 SMR     -0.073000
      6 O6         -0.2250    0.9670   -0.6710 os        1 SMR     -0.264000
      7 C7         -0.7680    1.4660   -1.8840 c3        1 SMR      0.075000
      8 C8         -1.6040    0.4100   -2.5820 c2        1 SMR     -0.109000
      9 C9         -0.8290   -0.8130   -2.9160 c3        1 SMR     -0.133000
     10 C10         0.5310   -0.8060   -2.2410 c3        1 SMR     -0.180000
     11 C11        -1.5320    2.7650   -1.6980 c2        1 SMR     -0.061000
     12 C12        -2.8360    2.6010   -1.7550 c1        1 SMR     -0.221000
     13 C13        -3.6460    1.5870   -2.1080 c2        1 SMR      0.034000
     14 C14        -2.9340    0.5210   -2.8250 c2        1 SMR     -0.121000
     15 N15        -5.0440    1.5260   -1.8080 n3        1 SMR     -0.031000
     16 N16        -5.5210    0.3570   -1.3820 n2        1 SMR     -0.276000
     17 C17        -6.0340   -0.6800   -1.1190 c1        1 SMR      0.111000
     18 C19        -2.4150   -0.8100    2.3660 c3        1 SMR     -0.017000
     19 C20        -3.7670   -2.4460    6.0610 c2        1 SMR     -0.448000
     20 O21        -2.3450   -1.7620    3.4180 oh        1 SMR     -0.399000
     21 N22        -4.3650   -2.9510    5.0430 n3        1 SMR     -0.066000
     22 C23        -5.6980   -2.7420    1.6080 c2        1 SMR     -0.292000
     23 C24        -6.6000   -3.5590    2.1590 c2        1 SMR     -0.026000
     24 C25        -4.3540   -1.3870    8.4430 c2        1 SMR     -1.288000
     25 C26        -5.4690   -0.4260    8.1960 c3        1 SMR      0.008000
     26 C27        -5.8920    0.2670    9.4400 c2        1 SMR      0.136000
     27 C28        -5.0150    0.4950   10.4710 c2        1 SMR     -0.267000
     28 C29        -3.7110   -0.0030   10.3860 c2        1 SMR      0.187000
     29 C30        -3.3180   -0.8820    9.3280 c2        1 SMR     -0.032000
     30 C31        -1.9980   -1.2190    9.2410 c2        1 SMR     -0.055000
     31 C32        -6.6820   -1.0140    7.4950 c3        1 SMR     -0.232000
     32 O33        -6.3430   -4.0800    3.4200 os        1 SMR     -0.301000
     33 C34        -6.8630   -5.5130    5.2250 c3        1 SMR     -0.239000
     34 C35        -7.3140   -5.0450    3.8620 c3        1 SMR     -0.020000
     35 S36        -4.2860   -2.8010    7.8750 s6        1 SMR      2.927000
     36 O37        -5.4810   -3.4780    7.6200 o         1 SMR     -0.934000
     37 O38        -3.1890   -3.5640    8.2790 o         1 SMR     -0.934000
     38 N39        -0.0870   -1.1000    1.5470 n3        1 SMR     -0.263000
     39 H2          0.2660   -2.3160   -0.0980 h1        1 SMR      0.098500
     40 H2A         2.3530    0.8510   -0.8990 hc        1 SMR      0.094000
     41 H3          2.5470   -0.9220   -0.5610 hc        1 SMR      0.094000
     42 H3A         3.0490    0.3530    1.4890 hc        1 SMR      0.096000
     43 H4          1.4860    1.2640    1.3550 hc        1 SMR      0.096000
     44 H4A         1.3070   -0.5670    3.0420 h1        1 SMR      0.090500
     45 H5          1.8560   -1.7880    1.8100 h1        1 SMR      0.090500
     46 H5A        -1.2890   -1.3530   -0.1670 h1        1 SMR      0.098500
     47 H9         -1.4070   -1.7220   -2.5950 hc        1 SMR      0.107000
     48 H9A        -0.6910   -0.8860   -4.0290 hc        1 SMR      0.107000
     49 H10         0.9470   -1.8470   -2.2330 hc        1 SMR      0.102000
     50 H10A        1.2400   -0.1710   -2.8370 hc        1 SMR      0.102000
     51 H11         0.0810    1.7460   -2.5840 h1        1 SMR      0.117000
     52 H12        -0.9710    3.7030   -1.6910 ha        1 SMR      0.166000
     53 H17        -3.4960   -0.2170   -3.4120 ha        1 SMR      0.157000
     54 H18        -3.1350   -0.0310    2.7340 h1        1 SMR      0.087500
     55 H18A       -1.2370    0.7120    1.3760 h1        1 SMR      0.101000
     56 H19        -0.6730    0.2690    3.0500 h1        1 SMR      0.101000
     57 H20        -2.8340   -1.3060    1.4500 h1        1 SMR      0.087500
     58 H20A       -2.8850   -1.7940    5.8930 h5        1 SMR      0.187000
     59 HO21       -1.6080   -2.3560    3.2240 ho        1 SMR      0.232000
     60 H23        -5.1770   -3.5550    5.1540 hn        1 SMR      0.282000
     61 H23A       -5.8750   -2.2960    0.6180 ha        1 SMR      0.133000
     62 H24        -4.7500   -2.4760    2.0910 ha        1 SMR      0.133000
     63 H24A       -7.5510   -3.8550    1.6920 h4        1 SMR      0.150000
     64 H27        -5.0720    0.4120    7.5290 hc        1 SMR      0.116000
     65 H28        -6.9300    0.6470    9.4870 ha        1 SMR      0.164000
     66 H29        -5.3200    1.0770   11.3590 ha        1 SMR      0.178000
     67 H31        -2.9640    0.2910   11.1490 ha        1 SMR      0.164000
     68 H31A       -1.2570   -0.8630    9.9720 ha        1 SMR      0.153500
     69 H31B       -1.6070   -1.8850    8.4550 ha        1 SMR      0.153500
     70 H32        -6.3890   -1.4350    6.5030 hc        1 SMR      0.099333
     71 H32A       -7.1440   -1.8330    8.0980 hc        1 SMR      0.099333
     72 H32B       -7.4470   -0.2180    7.3210 hc        1 SMR      0.099333
     73 H34        -6.8450   -4.6710    5.9620 hc        1 SMR      0.097667
     74 H34A       -5.8420   -5.9610    5.1690 hc        1 SMR      0.097667
     75 H34B       -7.5740   -6.2910    5.5950 hc        1 SMR      0.097667
     76 H35        -8.3210   -4.5530    3.9100 h1        1 SMR      0.088000
     77 H35A       -7.3460   -5.8930    3.1290 h1        1 SMR      0.088000
     78 HN15       -5.2570    2.2440   -1.1090 hn        1 SMR      0.196000
     79 C18        -1.0590   -0.1530    2.0800 c3        1 SMR     -0.115000
     80 H221       -4.0830   -2.7770    4.0870 hn        1 SMR      0.282000
@<TRIPOS>BOND
     1    1    2 1   
     2    1    5 1   
     3    1    6 1   
     4    1   10 1   
     5    2    3 1   
     6    2   40 1   
     7    2   41 1   
     8    3    4 1   
     9    3   42 1   
    10    3   43 1   
    11    4   38 1   
    12    4   44 1   
    13    4   45 1   
    14    5   38 1   
    15    5   39 1   
    16    5   46 1   
    17    6    7 1   
    18    7    8 1   
    19    7   11 1   
    20    7   51 1   
    21    8    9 1   
    22    8   14 1   
    23    9   10 1   
    24    9   47 1   
    25    9   48 1   
    26   10   49 1   
    27   10   50 1   
    28   11   12 1   
    29   11   52 1   
    30   12   13 1   
    31   13   14 1   
    32   13   15 1   
    33   14   53 1   
    34   15   16 1   
    35   15   78 1   
    36   16   17 1   
    37   18   20 1   
    38   18   54 1   
    39   18   57 1   
    40   18   79 1   
    41   19   21 1   
    42   19   35 1   
    43   19   58 1   
    44   20   59 1   
    45   21   60 1   
    46   21   80 1   
    47   22   23 1   
    48   22   61 1   
    49   22   62 1   
    50   23   32 1   
    51   23   63 1   
    52   24   25 1   
    53   24   29 1   
    54   24   35 1   
    55   25   26 1   
    56   25   31 1   
    57   25   64 1   
    58   26   27 1   
    59   26   65 1   
    60   27   28 1   
    61   27   66 1   
    62   28   29 1   
    63   28   67 1   
    64   29   30 1   
    65   30   68 1   
    66   30   69 1   
    67   31   70 1   
    68   31   71 1   
    69   31   72 1   
    70   32   34 1   
    71   33   34 1   
    72   33   73 1   
    73   33   74 1   
    74   33   75 1   
    75   34   76 1   
    76   34   77 1   
    77   35   36 1   
    78   35   37 1   
    79   38   79 1   
    80   55   79 1   
    81   56   79 1   
@<TRIPOS>SUBSTRUCTURE
     1 SMR         1 TEMP              0 ****  ****    0 ROOT
