@<TRIPOS>MOLECULE
SMR
   80    80     1     0     0
SMALL
bcc


@<TRIPOS>ATOM
      1 C1          0.1030    0.5170   -0.7070 c3        1 SMR      0.050000
      2 C2          1.4400    1.2380   -0.4930 c3        1 SMR     -0.159000
      3 C3          1.5690    1.7890    0.9080 c3        1 SMR     -0.186000
      4 C4          1.3060    0.6970    1.9430 c3        1 SMR     -0.072000
      5 C5         -0.1760   -0.4750    0.4520 c3        1 SMR     -0.076000
      6 O6         -0.9290    1.5240   -0.6700 os        1 SMR     -0.261000
      7 C7         -1.7400    1.5810   -1.8320 c3        1 SMR      0.077000
      8 C8         -2.2760    0.2090   -2.1990 c2        1 SMR     -0.113000
      9 C9         -1.1980   -0.7760   -2.4750 c3        1 SMR     -0.132000
     10 C10         0.1540   -0.2470   -2.0340 c3        1 SMR     -0.181000
     11 C11        -2.8500    2.6120   -1.7300 c2        1 SMR     -0.057000
     12 C12        -4.0270    2.0640   -1.5220 c1        1 SMR     -0.200000
     13 C13        -4.5180    0.8150   -1.5680 c2        1 SMR      0.017000
     14 C14        -3.5920   -0.1230   -2.2180 c2        1 SMR     -0.117000
     15 N15        -5.7780    0.3970   -1.0230 n7        1 SMR     -0.031000
     16 N16        -5.7480   -0.6430   -0.1870 n2        1 SMR     -0.253000
     17 C17        -5.8160   -1.6300    0.4640 c1        1 SMR      0.065000
     18 C19        -2.2610   -0.0960    2.7940 c3        1 SMR     -0.022000
     19 C20        -5.8760   -2.7700    5.8990 c2        1 SMR     -0.525000
     20 O21        -1.9140   -0.9590    3.8650 oh        1 SMR     -0.377000
     21 N22        -5.6410   -2.8810    4.6400 n7        1 SMR     -0.063000
     22 C23        -5.2500   -1.7970    3.7720 c3        1 SMR     -0.205000
     23 C24        -6.0590   -5.2200    3.3620 c1        1 SMR     -0.076000
     24 C25        -4.4100   -1.3370    7.5320 c2        1 SMR     -1.287000
     25 C26        -3.4000   -0.5380    6.7760 c3        1 SMR     -0.004000
     26 C27        -2.0250   -1.0790    6.8580 c2        1 SMR      0.148000
     27 C28        -1.6410   -1.9770    7.8240 c2        1 SMR     -0.278000
     28 C29        -2.5690   -2.4090    8.7740 c2        1 SMR      0.171000
     29 C30        -3.9490   -2.0400    8.7000 c2        1 SMR     -0.006000
     30 C31        -4.7380   -2.3660    9.7700 c2        1 SMR     -0.088000
     31 C32        -3.3740    0.9260    7.2130 c3        1 SMR     -0.212000
     32 O33        -6.6710   -6.0430    4.1270 os        1 SMR     -0.041000
     33 C34        -7.7800   -8.0840    4.5030 c2        1 SMR     -0.148000
     34 C35        -7.1160   -7.3110    3.6460 c2        1 SMR     -0.163000
     35 S36        -5.8640   -1.3030    7.0340 s6        1 SMR      2.931000
     36 O37        -6.1790   -0.2490    6.1670 o         1 SMR     -0.942000
     37 O38        -6.8390   -1.7040    7.9560 o         1 SMR     -0.942000
     38 N39         0.0250    0.0150    1.8040 n3        1 SMR     -0.260000
     39 H2          0.5250   -1.3480    0.3220 h1        1 SMR      0.096000
     40 H2A         2.2680    0.5080   -0.6930 hc        1 SMR      0.094000
     41 H3          1.5260    2.0740   -1.2350 hc        1 SMR      0.094000
     42 H3A         2.6000    2.2000    1.0620 hc        1 SMR      0.097500
     43 H4          0.8370    2.6280    1.0480 hc        1 SMR      0.097500
     44 H4A         1.3810    1.1360    2.9760 h1        1 SMR      0.092000
     45 H5          2.1020   -0.0960    1.8480 h1        1 SMR      0.092000
     46 H5A        -1.2340   -0.8420    0.3460 h1        1 SMR      0.096000
     47 H9         -1.4230   -1.7380   -1.9410 hc        1 SMR      0.105500
     48 H9A        -1.1670   -1.0080   -3.5740 hc        1 SMR      0.105500
     49 H10         0.8720   -1.1030   -1.9330 hc        1 SMR      0.102500
     50 H10A        0.5650    0.4380   -2.8230 hc        1 SMR      0.102500
     51 H11        -1.1120    1.9450   -2.7050 h1        1 SMR      0.119000
     52 H12        -2.6230    3.6520   -1.9820 ha        1 SMR      0.171000
     53 H17        -3.9570   -1.0950   -2.5730 ha        1 SMR      0.155000
     54 H18        -3.0740    0.5580    3.2110 h1        1 SMR      0.085500
     55 H18A       -1.5020    1.5160    1.5690 h1        1 SMR      0.101000
     56 H19        -0.7420    1.3770    3.2210 h1        1 SMR      0.101000
     57 H20        -2.6720   -0.7080    1.9470 h1        1 SMR      0.085500
     58 H20A       -6.1790   -3.7030    6.4300 h5        1 SMR      0.175000
     59 HO21       -1.1280   -1.4510    3.5970 ho        1 SMR      0.222000
     60 H23        -4.1240   -1.7290    3.7460 h1        1 SMR      0.145000
     61 H23A       -5.6700   -0.8100    4.1140 h1        1 SMR      0.145000
     62 H24        -5.6260   -2.0180    2.7320 h1        1 SMR      0.145000
     63 H24A       -5.8470   -5.4620    2.3040 ha        1 SMR      0.094000
     64 H27        -3.6740   -0.5480    5.6700 hc        1 SMR      0.125000
     65 H28        -1.3020   -0.7000    6.1070 ha        1 SMR      0.171000
     66 H29        -0.5990   -2.3380    7.8770 ha        1 SMR      0.167000
     67 H31        -2.2250   -3.0370    9.6190 ha        1 SMR      0.155000
     68 H31A       -5.7980   -2.0680    9.8420 ha        1 SMR      0.158500
     69 H31B       -4.3500   -2.9510   10.6160 ha        1 SMR      0.158500
     70 H32        -4.3730    1.3810    7.0000 hc        1 SMR      0.095667
     71 H32A       -3.1700    1.0060    8.3070 hc        1 SMR      0.095667
     72 H32B       -2.5930    1.4910    6.6510 hc        1 SMR      0.095667
     73 H34        -6.7630   -5.9080    6.6330 ha        1 SMR      0.002000
     74 H34A       -8.1520   -9.0730    4.2000 ha        1 SMR      0.153500
     75 H34B       -7.3940   -5.6880    6.5200 ha        1 SMR      0.002000
     76 H35        -7.9890   -7.7810    5.5400 ha        1 SMR      0.153500
     77 H35A       -6.8650   -7.5240    2.5990 h4        1 SMR      0.164000
     78 HN15       -6.1920    1.1950   -0.5310 hn        1 SMR      0.198000
     79 C18        -1.0970    0.7850    2.3300 c3        1 SMR     -0.117000
     80 H221       -5.7550   -3.8510    4.1330 hn        1 SMR      0.322000
@<TRIPOS>BOND
     1    1    2 1   
     2    1    5 1   
     3    1    6 1   
     4    1   10 1   
     5    2    3 1   
     6    2   40 1   
     7    2   41 1   
     8    3    4 1   
     9    3   42 1   
    10    3   43 1   
    11    4   38 1   
    12    4   44 1   
    13    4   45 1   
    14    5   38 1   
    15    5   39 1   
    16    5   46 1   
    17    6    7 1   
    18    7    8 1   
    19    7   11 1   
    20    7   51 1   
    21    8    9 1   
    22    8   14 1   
    23    9   10 1   
    24    9   47 1   
    25    9   48 1   
    26   10   49 1   
    27   10   50 1   
    28   11   12 1   
    29   11   52 1   
    30   12   13 1   
    31   13   14 1   
    32   13   15 1   
    33   14   53 1   
    34   15   16 1   
    35   15   78 1   
    36   16   17 1   
    37   18   20 1   
    38   18   54 1   
    39   18   57 1   
    40   18   79 1   
    41   19   21 1   
    42   19   35 1   
    43   19   58 1   
    44   20   59 1   
    45   21   22 1   
    46   21   80 1   
    47   22   60 1   
    48   22   61 1   
    49   22   62 1   
    50   23   32 1   
    51   23   63 1   
    52   24   25 1   
    53   24   29 1   
    54   24   35 1   
    55   25   26 1   
    56   25   31 1   
    57   25   64 1   
    58   26   27 1   
    59   26   65 1   
    60   27   28 1   
    61   27   66 1   
    62   28   29 1   
    63   28   67 1   
    64   29   30 1   
    65   30   68 1   
    66   30   69 1   
    67   31   70 1   
    68   31   71 1   
    69   31   72 1   
    70   32   34 1   
    71   33   34 1   
    72   33   74 1   
    73   33   76 1   
    74   34   77 1   
    75   35   36 1   
    76   35   37 1   
    77   38   79 1   
    78   55   79 1   
    79   56   79 1   
    80   73   75 1   
@<TRIPOS>SUBSTRUCTURE
     1 SMR         1 TEMP              0 ****  ****    0 ROOT
