@<TRIPOS>MOLECULE
SMS
   37    39     1     0     0
SMALL
bcc


@<TRIPOS>ATOM
      1 S2          0.0060    0.3410    0.0700 s6        1 SMS      1.725400
      2 N1          1.2760   -0.5090    0.4980 n3        1 SMS     -1.028700
      3 O10        -0.2860    1.3060    1.0180 o         1 SMS     -0.655300
      4 O9         -0.9810   -0.4790   -0.4750 o         1 SMS     -0.655300
      5 O8          0.5770    1.1940   -1.2770 os        1 SMS     -0.560500
      6 C1          0.0160    1.1030   -2.5510 c3        1 SMS      0.212400
      7 C2         -0.9680    2.2600   -2.8190 c3        1 SMS      0.288600
      8 C3         -1.7810    2.0660   -4.1210 c3        1 SMS      0.097100
      9 C4         -1.6190    3.1450   -5.1980 c3        1 SMS      0.154100
     10 C5         -1.2080    4.5530   -4.6910 c3        1 SMS      0.125100
     11 C6         -0.9400    4.6080   -3.1890 c3        1 SMS      0.111400
     12 O3         -0.2380    3.4600   -2.7380 os        1 SMS     -0.370600
     13 O5         -0.0400    4.9240   -5.3940 os        1 SMS     -0.554500
     14 S1          0.6090    3.8030   -6.4400 s6        1 SMS      1.821000
     15 O7          1.7670    3.2990   -5.9460 o         1 SMS     -0.633800
     16 O6          0.4420    4.2620   -7.7070 o         1 SMS     -0.633800
     17 O4         -0.6230    2.7220   -6.1040 os        1 SMS     -0.560500
     18 O2         -3.1500    2.0790   -3.7100 os        1 SMS     -0.440600
     19 C7         -3.2590    2.0700   -2.2760 c3        1 SMS      0.349600
     20 C9         -4.2120    3.1730   -1.8410 c3        1 SMS     -0.114600
     21 C8         -3.7120    0.6970   -1.8000 c3        1 SMS     -0.114600
     22 O1         -1.9440    2.3590   -1.7840 os        1 SMS     -0.448600
     23 HN11        1.5050   -1.3940    0.1180 hn        1 SMS      0.456800
     24 HN12        1.9680   -0.1800    1.1270 hn        1 SMS      0.456800
     25 HC11        0.8720    1.1880   -3.2760 h1        1 SMS      0.073700
     26 HC12       -0.5380    0.1330   -2.6820 h1        1 SMS      0.073700
     27 HC3        -1.5720    1.0620   -4.5850 h1        1 SMS      0.097700
     28 HC4        -2.5860    3.2120   -5.7760 h1        1 SMS      0.101700
     29 HC5        -1.9960    5.3090   -4.9630 h1        1 SMS      0.091700
     30 HC61       -0.2470    5.4590   -2.9450 h1        1 SMS      0.085700
     31 HC62       -1.9130    4.7120   -2.6390 h1        1 SMS      0.085700
     32 HC91       -4.1030    3.3360   -0.7420 hc        1 SMS      0.059867
     33 HC92       -5.2590    2.8680   -2.0750 hc        1 SMS      0.059867
     34 HC93       -3.9820    4.1240   -2.3760 hc        1 SMS      0.059867
     35 HC81       -4.5430    0.3360   -2.4490 hc        1 SMS      0.059867
     36 HC82       -4.0650    0.7680   -0.7440 hc        1 SMS      0.059867
     37 HC83       -2.8640   -0.0300   -1.8400 hc        1 SMS      0.059867
@<TRIPOS>BOND
     1    1    2 1   
     2    1    3 2   
     3    1    4 2   
     4    1    5 1   
     5    2   23 1   
     6    2   24 1   
     7    5    6 1   
     8    6    7 1   
     9    6   25 1   
    10    6   26 1   
    11    7    8 1   
    12    7   12 1   
    13    7   22 1   
    14    8    9 1   
    15    8   18 1   
    16    8   27 1   
    17    9   10 1   
    18    9   17 1   
    19    9   28 1   
    20   10   11 1   
    21   10   13 1   
    22   10   29 1   
    23   11   12 1   
    24   11   30 1   
    25   11   31 1   
    26   13   14 1   
    27   14   15 2   
    28   14   16 2   
    29   14   17 1   
    30   18   19 1   
    31   19   20 1   
    32   19   21 1   
    33   19   22 1   
    34   20   32 1   
    35   20   33 1   
    36   20   34 1   
    37   21   35 1   
    38   21   36 1   
    39   21   37 1   
@<TRIPOS>SUBSTRUCTURE
     1 SMS         1 TEMP              0 ****  ****    0 ROOT
