@<TRIPOS>MOLECULE
SMS
   37    39     1     0     0
SMALL
bcc


@<TRIPOS>ATOM
      1 S2         -0.8070    0.1920   -3.6520 s6        1 SMS      1.725400
      2 N1         -2.1250   -0.1210   -4.4780 n3        1 SMS     -1.028700
      3 O10        -0.3230    1.4540   -3.9510 o         1 SMS     -0.655300
      4 O9          0.0270   -0.9240   -3.6030 o         1 SMS     -0.655300
      5 O8         -1.3890    0.3000   -2.0650 os        1 SMS     -0.560500
      6 C1         -0.9550   -0.5150   -1.0190 c3        1 SMS      0.212400
      7 C2          0.1300    0.1810   -0.1730 c3        1 SMS      0.288600
      8 C3          0.7990   -0.7720    0.8460 c3        1 SMS      0.097100
      9 C4          0.6690   -0.3930    2.3260 c3        1 SMS      0.154100
     10 C5          0.4710    1.1170    2.6250 c3        1 SMS      0.125100
     11 C6          0.3430    1.9780    1.3700 c3        1 SMS      0.111400
     12 O3         -0.4470    1.3420    0.3760 os        1 SMS     -0.370600
     13 O5         -0.7030    1.2360    3.4030 os        1 SMS     -0.554500
     14 S1         -1.5660   -0.1570    3.6990 s6        1 SMS      1.821000
     15 O7         -2.7270   -0.1600    2.9990 o         1 SMS     -0.633800
     16 O6         -1.4570   -0.4460    5.0210 o         1 SMS     -0.633800
     17 O4         -0.4440   -1.0730    2.8630 os        1 SMS     -0.560500
     18 O2          2.1900   -0.7460    0.5210 os        1 SMS     -0.440600
     19 C7          2.4210   -0.0300   -0.7050 c3        1 SMS      0.349600
     20 C9          3.5300    0.9890   -0.4860 c3        1 SMS     -0.114600
     21 C8          2.7510   -1.0090   -1.8230 c3        1 SMS     -0.114600
     22 O1          1.1960    0.6580   -0.9900 os        1 SMS     -0.448600
     23 HN11       -2.4870   -1.0320   -4.6190 hn        1 SMS      0.456800
     24 HN12       -2.7160    0.5810   -4.8510 hn        1 SMS      0.456800
     25 HC11       -0.5310   -1.4820   -1.4080 h1        1 SMS      0.073700
     26 HC12       -1.8550   -0.6940   -0.3680 h1        1 SMS      0.073700
     27 HC3         0.4350   -1.8280    0.7140 h1        1 SMS      0.097700
     28 HC4         1.5840   -0.7740    2.8670 h1        1 SMS      0.101700
     29 HC5         1.3150    1.5020    3.2630 h1        1 SMS      0.091700
     30 HC61       -0.2230    2.9210    1.5980 h1        1 SMS      0.085700
     31 HC62        1.3650    2.2090    0.9690 h1        1 SMS      0.085700
     32 HC91        4.5100    0.4590   -0.4310 hc        1 SMS      0.059867
     33 HC92        3.5370    1.7080   -1.3390 hc        1 SMS      0.059867
     34 HC93        3.3660    1.5490    0.4640 hc        1 SMS      0.059867
     35 HC81        3.2010   -0.4550   -2.6800 hc        1 SMS      0.059867
     36 HC82        3.4760   -1.7690   -1.4470 hc        1 SMS      0.059867
     37 HC83        1.8240   -1.5210   -2.1800 hc        1 SMS      0.059867
@<TRIPOS>BOND
     1    1    2 1   
     2    1    3 2   
     3    1    4 2   
     4    1    5 1   
     5    2   23 1   
     6    2   24 1   
     7    5    6 1   
     8    6    7 1   
     9    6   25 1   
    10    6   26 1   
    11    7    8 1   
    12    7   12 1   
    13    7   22 1   
    14    8    9 1   
    15    8   18 1   
    16    8   27 1   
    17    9   10 1   
    18    9   17 1   
    19    9   28 1   
    20   10   11 1   
    21   10   13 1   
    22   10   29 1   
    23   11   12 1   
    24   11   30 1   
    25   11   31 1   
    26   13   14 1   
    27   14   15 2   
    28   14   16 2   
    29   14   17 1   
    30   18   19 1   
    31   19   20 1   
    32   19   21 1   
    33   19   22 1   
    34   20   32 1   
    35   20   33 1   
    36   20   34 1   
    37   21   35 1   
    38   21   36 1   
    39   21   37 1   
@<TRIPOS>SUBSTRUCTURE
     1 SMS         1 TEMP              0 ****  ****    0 ROOT
