@<TRIPOS>MOLECULE
SMT
   45    46     1     0     0
SMALL
bcc


@<TRIPOS>ATOM
      1 P           3.0360   -1.2000   -3.7170 p5        1 SMT      1.427800
      2 OP1         4.2670   -1.6060   -4.4290 o         1 SMT     -0.841500
      3 OP2         2.1030   -0.6010   -4.9210 oh        1 SMT     -0.781400
      4 OP3         2.2120   -2.0240   -2.8110 o         1 SMT     -0.841500
      5 O5'         3.3510    0.2260   -2.9500 os        1 SMT     -0.582200
      6 C5'         2.3620    0.7270   -2.1020 c3        1 SMT      0.183400
      7 C4'         2.8790    0.7680   -0.6550 c3        1 SMT      0.086100
      8 O4'         2.4410    1.9850   -0.0300 os        1 SMT     -0.433600
      9 C3'         2.3890   -0.4160    0.1990 c3        1 SMT      0.087100
     10 O3'         3.4300   -0.9490    0.9960 oh        1 SMT     -0.592800
     11 C2'         1.2580    0.1890    1.0560 c3        1 SMT      0.068100
     12 O2'         1.3450   -0.2810    2.3990 os        1 SMT     -0.423600
     13 C1'         1.5620    1.7160    1.0850 c3        1 SMT      0.320500
     14 N1          0.3870    2.5670    1.0560 n         1 SMT     -0.318400
     15 C2          0.5770    3.9320    1.4020 c         1 SMT      0.726100
     16 O2          1.6540    4.3970    1.8650 o         1 SMT     -0.696100
     17 N3         -0.5220    4.7950    1.2720 n         1 SMT     -0.595500
     18 C4         -1.7960    4.3550    0.8370 c         1 SMT      0.678300
     19 O4         -2.6860    5.2400    0.7560 o         1 SMT     -0.717100
     20 C5         -1.9180    2.9410    0.5530 ce        1 SMT     -0.490500
     21 C5A        -3.2390    2.4330    0.1410 c3        1 SMT      0.032100
     22 C6         -0.8340    2.0850    0.6540 c1        1 SMT     -0.119900
     23 CA'         0.3370   -1.2280    2.7380 c3        1 SMT      0.143400
     24 CB         -1.0160   -0.5680    2.9190 c3        1 SMT     -0.048300
     25 SC         -2.3410   -1.5280    2.2430 ss        1 SMT     -0.383200
     26 CD         -2.3880   -0.9830    0.5660 c3        1 SMT     -0.047000
     27 H5'         2.1310    1.7850   -2.4170 h1        1 SMT      0.043700
     28 H5'2        1.4300    0.1010   -2.1730 h1        1 SMT      0.043700
     29 H4'         4.0030    0.8170   -0.6600 h1        1 SMT      0.072700
     30 H3'         2.0450   -1.2780   -0.4400 h1        1 SMT      0.143700
     31 HO3         3.6180   -0.2980    1.6830 ho        1 SMT      0.391000
     32 H2'         0.2540   -0.0170    0.5940 h1        1 SMT      0.122700
     33 H1'         2.1590    1.9860    2.0100 h2        1 SMT      0.068700
     34 H3         -0.3780    5.7530    1.4870 hn        1 SMT      0.303500
     35 H5A        -3.8920    3.2690   -0.2140 hc        1 SMT      0.005367
     36 H5A1       -3.7590    1.9270    0.9940 hc        1 SMT      0.005367
     37 H5A2       -3.1360    1.6850   -0.6860 hc        1 SMT      0.005367
     38 H6          2.6240   -0.3590   -5.6770 ho        1 SMT      0.418000
     39 HA1         0.2870   -2.0340    1.9580 h1        1 SMT      0.047200
     40 HA2         0.7070   -1.6660    3.7040 h1        1 SMT      0.047200
     41 HB1        -1.0080    0.4510    2.4420 h1        1 SMT      0.095700
     42 HB2        -1.2500   -0.4450    4.0030 h1        1 SMT      0.095700
     43 HD1        -3.4470   -1.0320    0.2340 h1        1 SMT      0.083033
     44 HD2        -1.7640   -1.6420   -0.0770 h1        1 SMT      0.083033
     45 HD3        -2.0160    0.0750    0.4650 h1        1 SMT      0.083033
@<TRIPOS>BOND
     1    1    2 1   
     2    1    3 1   
     3    1    4 1   
     4    1    5 1   
     5    3   38 1   
     6    5    6 1   
     7    6    7 1   
     8    6   27 1   
     9    6   28 1   
    10    7    8 1   
    11    7    9 1   
    12    7   29 1   
    13    8   13 1   
    14    9   10 1   
    15    9   11 1   
    16    9   30 1   
    17   10   31 1   
    18   11   12 1   
    19   11   13 1   
    20   11   32 1   
    21   12   23 1   
    22   13   14 1   
    23   13   33 1   
    24   14   15 1   
    25   14   22 2   
    26   15   16 2   
    27   15   17 1   
    28   17   18 1   
    29   17   34 1   
    30   18   19 2   
    31   18   20 1   
    32   20   21 1   
    33   20   22 2   
    34   21   35 1   
    35   21   36 1   
    36   21   37 1   
    37   23   24 1   
    38   23   39 1   
    39   23   40 1   
    40   24   25 1   
    41   24   41 1   
    42   24   42 1   
    43   25   26 1   
    44   26   43 1   
    45   26   44 1   
    46   26   45 1   
@<TRIPOS>SUBSTRUCTURE
     1 SMT         1 TEMP              0 ****  ****    0 ROOT
