@<TRIPOS>MOLECULE
SMT
   45    45     1     0     0
SMALL
bcc


@<TRIPOS>ATOM
      1 P           0.1650   -5.9760    2.1640 p4        1 SMT      1.714200
      2 OP1         1.1270   -6.8430    1.3520 o         1 SMT     -0.911000
      3 OP2         0.8240   -5.5690    3.4530 os        1 SMT     -1.268000
      4 OP3        -1.0960   -6.7660    2.4690 o         1 SMT     -0.959800
      5 O5'        -0.2150   -4.6700    1.3220 os        1 SMT     -0.570200
      6 C5'         0.7330   -3.6070    1.2500 c3        1 SMT      0.221400
      7 C4'         0.3380   -2.6450    0.1100 c3        1 SMT      0.065100
      8 O4'        -0.7760   -2.0380    0.4000 os        1 SMT     -0.431600
      9 C3'         1.3720   -1.5280   -0.0310 c3        1 SMT      0.084100
     10 O3'         2.0780   -1.6830   -1.1810 oh        1 SMT     -0.671800
     11 C2'         0.5470   -0.2000   -0.0740 c3        1 SMT      0.106100
     12 O2'         0.9910    0.6490   -1.2270 os        1 SMT     -0.428600
     13 C1'        -0.6600   -0.5650   -0.2330 c3        1 SMT      0.303500
     14 N1         -1.5780    0.3730    0.4790 n         1 SMT     -0.370000
     15 C2         -1.6720    0.3270    1.9390 c         1 SMT      0.797500
     16 O2         -0.7950   -0.2110    2.5870 o         1 SMT     -0.702500
     17 N3         -2.8010    0.9670    2.6240 n         1 SMT     -0.599500
     18 C4         -3.7470    1.7130    1.8820 c         1 SMT      0.717700
     19 O4         -4.6590    2.2470    2.4400 o         1 SMT     -0.684500
     20 C5         -3.6420    1.7790    0.4220 cc        1 SMT     -0.288400
     21 C5A        -4.7060    2.5110   -0.3890 c3        1 SMT     -0.043900
     22 C6         -2.5070    1.1400   -0.2610 cd        1 SMT      0.051600
     23 CA'         2.0230    1.5960   -0.8870 c3        1 SMT      0.151400
     24 CB          2.3270    2.4580   -2.0870 c3        1 SMT     -0.009300
     25 SC          3.8900    3.3630   -1.8080 ss        1 SMT     -0.390200
     26 CD          4.1510    4.5680   -3.1460 c3        1 SMT     -0.029000
     27 H5'         0.7440   -3.1070    2.1220 h1        1 SMT      0.001700
     28 H5'2        1.6370   -3.9810    1.0710 h1        1 SMT      0.001700
     29 H4'         0.2470   -3.1420   -0.7440 h1        1 SMT      0.050700
     30 H3'         1.9720   -1.5240    0.7340 h1        1 SMT      0.150700
     31 HO3         2.8590   -2.0730   -1.0000 ho        1 SMT      0.497000
     32 H2'         0.6450    0.2930    0.7740 h1        1 SMT      0.054700
     33 H1'        -0.8770   -0.5920   -1.1760 h2        1 SMT      0.110700
     34 H3         -2.8610    0.9350    3.5710 hn        1 SMT      0.321500
     35 H5A        -4.7030    3.4640   -0.1490 hc        1 SMT      0.059033
     36 H5A1       -4.5150    2.4160   -1.3290 hc        1 SMT      0.059033
     37 H5A2       -5.5810    2.1290   -0.1960 hc        1 SMT      0.059033
     38 H6         -2.4380    1.1830   -1.2330 h4        1 SMT      0.298000
     39 HA1         1.7240    2.1470   -0.1650 h1        1 SMT      0.044700
     40 HA2         2.8290    1.1160   -0.6170 h1        1 SMT      0.044700
     41 HB1         2.4140    1.9050   -2.8610 h1        1 SMT      0.088200
     42 HB2         1.6060    3.0910   -2.2200 h1        1 SMT      0.088200
     43 HD1         4.9660    5.0610   -2.9800 h1        1 SMT      0.073033
     44 HD2         3.3950    5.1890   -3.1790 h1        1 SMT      0.073033
     45 HD3         4.2240    4.1000   -3.9920 h1        1 SMT      0.073033
@<TRIPOS>BOND
     1    1    2 1   
     2    1    4 2   
     3    1    5 1   
     4    5    6 1   
     5    6    7 1   
     6    6   27 1   
     7    6   28 1   
     8    7    8 1   
     9    7    9 1   
    10    7   29 1   
    11    8   13 1   
    12    9   10 1   
    13    9   11 1   
    14    9   30 1   
    15   10   31 1   
    16   11   12 1   
    17   11   13 1   
    18   11   32 1   
    19   12   23 1   
    20   13   14 1   
    21   13   33 1   
    22   14   15 1   
    23   14   22 1   
    24   15   16 2   
    25   15   17 1   
    26   17   18 1   
    27   17   34 1   
    28   18   19 2   
    29   18   20 1   
    30   20   21 1   
    31   20   22 2   
    32   21   35 1   
    33   21   36 1   
    34   21   37 1   
    35   22   38 1   
    36   23   24 1   
    37   23   39 1   
    38   23   40 1   
    39   24   25 1   
    40   24   41 1   
    41   24   42 1   
    42   25   26 1   
    43   26   43 1   
    44   26   44 1   
    45   26   45 1   
@<TRIPOS>SUBSTRUCTURE
     1 SMT         1 TEMP              0 ****  ****    0 ROOT
