@<TRIPOS>MOLECULE
SMX
   49    52     1     0     0
SMALL
bcc


@<TRIPOS>ATOM
      1 C          -0.3260    0.4500   -0.4690 c         1 SMX      0.680500
      2 N           2.0220    1.2680   -0.9400 n         1 SMX     -0.548900
      3 O          -1.1630    0.6630   -1.3300 o         1 SMX     -0.532500
      4 CA          1.2270    0.2420   -0.3850 cy        1 SMX      0.056700
      5 CB          1.0060    0.2240    1.1830 cy        1 SMX      0.106800
      6 NBD        -0.4410    0.2800    0.9480 n         1 SMX     -0.377000
      7 NBE        -3.1200    1.5440    7.7790 na        1 SMX     -0.052400
      8 NAN        -3.7580    3.5670    7.6080 nc        1 SMX     -0.037000
      9 NAO        -3.1020    3.3320    6.4770 nc        1 SMX     -0.396000
     10 NAP        -3.7790    2.5550    8.3910 nd        1 SMX     -0.187800
     11 CAA        -2.8880    0.2280    8.3130 c3        1 SMX      0.027600
     12 OAB        -3.5480   -0.0450    2.3170 o         1 SMX     -0.465000
     13 OAC         3.2390   -0.1450   -2.2900 o         1 SMX     -0.586100
     14 OAE        -3.3960    1.0750    0.4590 oh        1 SMX     -0.560100
     15 OAF         4.4930    1.8240   -3.5860 oh        1 SMX     -0.567800
     16 CAG         6.4130    3.7030    0.6690 ca        1 SMX     -0.116000
     17 CAH         5.1330    4.2330    0.5050 ca        1 SMX     -0.124000
     18 CAI         6.8550    2.6820   -0.1710 ca        1 SMX     -0.124000
     19 CAJ         4.2960    3.7420   -0.4950 ca        1 SMX     -0.112500
     20 CAK         6.0190    2.1870   -1.1720 ca        1 SMX     -0.112500
     21 CAL        -1.9540    2.0850    3.9210 c3        1 SMX      0.010900
     22 CAM         0.4460    1.8060    3.3290 c3        1 SMX      0.017900
     23 SAR        -1.7700    1.1450    5.4250 ss        1 SMX     -0.180400
     24 SAS         1.6790    1.6020    2.0760 ss        1 SMX     -0.277200
     25 CAT        -2.7990    0.5850    1.5740 c         1 SMX      0.644300
     26 CAU         3.0120    1.0050   -1.8750 c         1 SMX      0.638100
     27 CAV        -0.9670    1.5420    2.9580 c2        1 SMX     -0.116400
     28 CAX        -1.3450    0.8550    1.8430 ce        1 SMX     -0.039600
     29 CAY         4.7340    2.7120   -1.3350 ca        1 SMX     -0.133300
     30 CAZ        -2.6620    2.0320    6.5340 cd        1 SMX      0.429800
     31 CBA         3.8170    2.2040   -2.4090 c3        1 SMX      0.137400
     32 H1         -2.7500    1.4680   -0.1490 ho        1 SMX      0.451000
     33 H2          1.5310   -0.7650   -0.7870 h1        1 SMX      0.141700
     34 H3          1.3040   -0.7420    1.6580 h2        1 SMX      0.118700
     35 H4         -2.7620   -0.4870    7.4550 h1        1 SMX      0.072700
     36 H5         -1.9560    0.2310    8.9410 h1        1 SMX      0.072700
     37 H6         -3.7590   -0.0900    8.9460 h1        1 SMX      0.072700
     38 H11         3.2930    4.1740   -0.6290 ha        1 SMX      0.133500
     39 H12         6.3770    1.3880   -1.8390 ha        1 SMX      0.133500
     40 H13        -1.7520    3.1720    4.1060 h1        1 SMX      0.107700
     41 H14        -3.0080    1.9970    3.5520 h1        1 SMX      0.107700
     42 H15         0.5640    2.8750    3.6560 h1        1 SMX      0.103200
     43 H16         0.7060    1.1560    4.2080 h1        1 SMX      0.103200
     44 H17         4.9020    0.9580   -3.4380 ho        1 SMX      0.425000
     45 H18         3.1160    3.0220   -2.7480 h1        1 SMX      0.103700
     46 H8          7.0730    4.0920    1.4580 ha        1 SMX      0.138000
     47 H9          4.7840    5.0430    1.1630 ha        1 SMX      0.138000
     48 H21         1.9740    2.1730   -0.5250 hn        1 SMX      0.335500
     49 H10         7.8660    2.2650   -0.0480 ha        1 SMX      0.138000
@<TRIPOS>BOND
     1    1    3 2   
     2    1    4 1   
     3    1    6 1   
     4    2    4 1   
     5    2   26 1   
     6    2   48 1   
     7    4    5 1   
     8    4   33 1   
     9    5    6 1   
    10    5   24 1   
    11    5   34 1   
    12    6   28 1   
    13    7   10 1   
    14    7   11 1   
    15    7   30 1   
    16    8    9 1   
    17    8   10 2   
    18    9   30 2   
    19   11   35 1   
    20   11   36 1   
    21   11   37 1   
    22   12   25 2   
    23   13   26 2   
    24   14   25 1   
    25   14   32 1   
    26   15   31 1   
    27   15   44 1   
    28   16   17 ar  
    29   16   18 ar  
    30   16   46 1   
    31   17   19 ar  
    32   17   47 1   
    33   18   20 ar  
    34   18   49 1   
    35   19   29 ar  
    36   19   38 1   
    37   20   29 ar  
    38   20   39 1   
    39   21   23 1   
    40   21   27 1   
    41   21   40 1   
    42   21   41 1   
    43   22   24 1   
    44   22   27 1   
    45   22   42 1   
    46   22   43 1   
    47   23   30 1   
    48   25   28 1   
    49   26   31 1   
    50   27   28 2   
    51   29   31 1   
    52   31   45 1   
@<TRIPOS>SUBSTRUCTURE
     1 SMX         1 TEMP              0 ****  ****    0 ROOT
