@<TRIPOS>MOLECULE
SMX
   48    51     1     0     0
SMALL
bcc


@<TRIPOS>ATOM
      1 C           0.9720    2.5440   -0.3280 c         1 SMX      0.701500
      2 N           3.0870    1.1560   -0.1720 n         1 SMX     -0.526900
      3 O           0.9900    3.6100    0.2560 o         1 SMX     -0.506500
      4 CA          2.0820    1.6690   -1.0320 cy        1 SMX      0.007700
      5 CB          0.8930    0.7100   -1.4150 cy        1 SMX      0.106800
      6 NBD        -0.0380    1.6250   -0.7410 n         1 SMX     -0.334000
      7 NBE        -6.6200   -1.4560   -0.4710 na        1 SMX     -0.076400
      8 NAN        -6.5330   -2.9550    1.0320 nc        1 SMX     -0.058000
      9 NAO        -5.2970   -2.4670    0.9830 nc        1 SMX     -0.417000
     10 NAP        -7.3260   -2.4000    0.1970 nd        1 SMX     -0.223800
     11 CAA        -7.1150   -0.5830   -1.5000 c3        1 SMX      0.032600
     12 OAB        -2.6460    3.1120   -0.1180 o         1 SMX     -0.777800
     13 OAC         4.8750    1.8190   -1.4740 o         1 SMX     -0.618100
     14 OAE        -2.0200    2.3150    1.8960 o         1 SMX     -0.777800
     15 OAF         6.7150    1.1540    0.3160 oh        1 SMX     -0.584800
     16 CAG         5.2060   -3.6290    0.5250 ca        1 SMX     -0.124000
     17 CAH         4.3480   -2.8900    1.3400 ca        1 SMX     -0.126500
     18 CAI         6.1400   -2.9720   -0.2760 ca        1 SMX     -0.126500
     19 CAJ         4.4230   -1.4990    1.3550 ca        1 SMX     -0.110000
     20 CAK         6.2150   -1.5800   -0.2660 ca        1 SMX     -0.110000
     21 CAL        -2.8000   -0.4770    0.7040 c3        1 SMX      0.078900
     22 CAM        -0.8290   -1.2130   -0.6340 c3        1 SMX      0.084900
     23 SAR        -4.0680   -0.5080   -0.5640 ss        1 SMX     -0.221400
     24 SAS         0.9300   -0.9530   -0.8010 ss        1 SMX     -0.360200
     25 CAT        -2.0260    2.3360    0.6420 c         1 SMX      0.927800
     26 CAU         4.4290    1.2540   -0.4540 c         1 SMX      0.639100
     27 CAV        -1.5740   -0.0920   -0.0180 c2        1 SMX     -0.284400
     28 CAX        -1.1770    1.2190   -0.0600 ce        1 SMX      0.036400
     29 CAY         5.3530   -0.8360    0.5450 ca        1 SMX     -0.120300
     30 CAZ        -5.2890   -1.4860    0.0180 cd        1 SMX      0.461800
     31 CBA         5.4160    0.6630    0.5720 c3        1 SMX      0.126400
     32 H1          2.7870    0.5660    0.5740 hn        1 SMX      0.336500
     33 H2          2.5370    2.1830   -1.9190 h1        1 SMX      0.119700
     34 H3          0.7010    0.6900   -2.5160 h2        1 SMX      0.095700
     35 H4         -8.1610   -0.2560   -1.2600 h1        1 SMX      0.065367
     36 H5         -6.4390    0.3160   -1.5560 h1        1 SMX      0.065367
     37 H6         -7.1130   -1.1160   -2.4880 h1        1 SMX      0.065367
     38 H10         6.8190   -3.5510   -0.9180 ha        1 SMX      0.132500
     39 H11         3.7460   -0.9240    2.0060 ha        1 SMX      0.136000
     40 H12         6.9560   -1.0630   -0.8930 ha        1 SMX      0.136000
     41 H13        -3.0790    0.2830    1.4810 h1        1 SMX      0.102200
     42 H14        -2.7020   -1.4740    1.1950 h1        1 SMX      0.102200
     43 H15        -1.2430   -1.4410   -1.6480 h1        1 SMX      0.068700
     44 H16        -0.9080   -2.1380   -0.0070 h1        1 SMX      0.068700
     45 H17         6.8320    1.2160   -0.6440 ho        1 SMX      0.425000
     46 H18         5.1730    1.0450    1.6070 h1        1 SMX      0.099700
     47 H8          5.1430   -4.7260    0.5120 ha        1 SMX      0.129000
     48 H9          3.6070   -3.4040    1.9700 ha        1 SMX      0.132500
@<TRIPOS>BOND
     1    1    3 2   
     2    1    4 1   
     3    1    6 1   
     4    2    4 1   
     5    2   26 1   
     6    2   32 1   
     7    4    5 1   
     8    4   33 1   
     9    5    6 1   
    10    5   24 1   
    11    5   34 1   
    12    6   28 1   
    13    7   10 1   
    14    7   11 1   
    15    7   30 1   
    16    8    9 1   
    17    8   10 2   
    18    9   30 2   
    19   11   35 1   
    20   11   36 1   
    21   11   37 1   
    22   12   25 1   
    23   13   26 2   
    24   14   25 1   
    25   15   31 1   
    26   15   45 1   
    27   16   17 ar  
    28   16   18 ar  
    29   16   47 1   
    30   17   19 ar  
    31   17   48 1   
    32   18   20 ar  
    33   18   38 1   
    34   19   29 ar  
    35   19   39 1   
    36   20   29 ar  
    37   20   40 1   
    38   21   23 1   
    39   21   27 1   
    40   21   41 1   
    41   21   42 1   
    42   22   24 1   
    43   22   27 1   
    44   22   43 1   
    45   22   44 1   
    46   23   30 1   
    47   25   28 1   
    48   26   31 1   
    49   27   28 2   
    50   29   31 1   
    51   31   46 1   
@<TRIPOS>SUBSTRUCTURE
     1 SMX         1 TEMP              0 ****  ****    0 ROOT
