@<TRIPOS>MOLECULE
SMX
   49    52     1     0     0
SMALL
bcc


@<TRIPOS>ATOM
      1 C          -0.3310    0.4320   -0.4600 c         1 SMX      0.680500
      2 N           2.0060    1.2710   -0.9500 ns        1 SMX     -0.548900
      3 O          -1.1760    0.6350   -1.3150 o         1 SMX     -0.532500
      4 CA          1.2250    0.2380   -0.3870 cy        1 SMX      0.056700
      5 CB          1.0150    0.2210    1.1820 cy        1 SMX      0.106800
      6 NBD        -0.4340    0.2630    0.9580 n         1 SMX     -0.377000
      7 NBE        -3.0680    1.5170    7.8090 na        1 SMX     -0.052400
      8 NAN        -3.7230    3.5350    7.6400 nc        1 SMX     -0.037000
      9 NAO        -3.0760    3.3020    6.5030 nc        1 SMX     -0.396000
     10 NAP        -3.7290    2.5240    8.4250 nd        1 SMX     -0.187800
     11 CAA        -2.8200    0.2030    8.3430 c3        1 SMX      0.027600
     12 OAB        -3.5270   -0.0890    2.3510 o         1 SMX     -0.465000
     13 OAC         3.2310   -0.1340   -2.3020 o         1 SMX     -0.586100
     14 OAE        -3.3990    1.0310    0.4900 oh        1 SMX     -0.560100
     15 OAF         4.4610    1.8420   -3.6090 oh        1 SMX     -0.567800
     16 CAG         6.3690    3.7660    0.6320 ca        1 SMX     -0.116000
     17 CAH         5.0830    4.2820    0.4670 ca        1 SMX     -0.124000
     18 CAI         6.8210    2.7440   -0.2030 ca        1 SMX     -0.124000
     19 CAJ         4.2490    3.7750   -0.5280 ca        1 SMX     -0.112500
     20 CAK         5.9880    2.2340   -1.1990 ca        1 SMX     -0.112500
     21 CAL        -1.9400    2.0590    3.9390 c3        1 SMX      0.010900
     22 CAM         0.4570    1.8000    3.3300 c3        1 SMX      0.017900
     23 SAR        -1.7360    1.1220    5.4430 ss        1 SMX     -0.180400
     24 SAS         1.6820    1.6050    2.0680 ss        1 SMX     -0.277200
     25 CAT        -2.7890    0.5480    1.6010 c         1 SMX      0.644300
     26 CAU         2.9940    1.0150   -1.8890 c         1 SMX      0.638100
     27 CAV        -0.9560    1.5230    2.9700 c2        1 SMX     -0.116400
     28 CAX        -1.3360    0.8310    1.8590 ce        1 SMX     -0.039600
     29 CAY         4.6970    2.7440   -1.3630 ca        1 SMX     -0.133300
     30 CAZ        -2.6250    2.0050    6.5590 cd        1 SMX      0.429800
     31 CBA         3.7840    2.2200   -2.4320 c3        1 SMX      0.137400
     32 H1          1.9520    2.1760   -0.5370 hn        1 SMX      0.335500
     33 H2          1.5350   -0.7670   -0.7910 h1        1 SMX      0.141700
     34 H3          1.3260   -0.7420    1.6560 h2        1 SMX      0.118700
     35 H4         -3.6830   -0.1200    8.9850 h1        1 SMX      0.072700
     36 H5         -2.6970   -0.5120    7.4860 h1        1 SMX      0.072700
     37 H6         -1.8840    0.2160    8.9630 h1        1 SMX      0.072700
     38 H11         3.2410    4.1960   -0.6630 ha        1 SMX      0.133500
     39 H12         6.3530    1.4350   -1.8620 ha        1 SMX      0.133500
     40 H13        -2.9960    1.9600    3.5790 h1        1 SMX      0.107700
     41 H14        -1.7460    3.1470    4.1220 h1        1 SMX      0.107700
     42 H15         0.5680    2.8700    3.6550 h1        1 SMX      0.103200
     43 H16         0.7300    1.1530    4.2080 h1        1 SMX      0.103200
     44 H17         4.8800    0.9820   -3.4580 ho        1 SMX      0.425000
     45 H18         3.0710    3.0280   -2.7730 h1        1 SMX      0.104700
     46 H8          7.0260    4.1680    1.4170 ha        1 SMX      0.138000
     47 H9          4.7260    5.0920    1.1200 ha        1 SMX      0.138000
     48 H21        -2.7610    1.4290   -0.1230 ho        1 SMX      0.451000
     49 H10         7.8360    2.3400   -0.0790 ha        1 SMX      0.138000
@<TRIPOS>BOND
     1    1    3 2   
     2    1    4 1   
     3    1    6 1   
     4    2    4 1   
     5    2   26 1   
     6    2   32 1   
     7    4    5 1   
     8    4   33 1   
     9    5    6 1   
    10    5   24 1   
    11    5   34 1   
    12    6   28 1   
    13    7   10 1   
    14    7   11 1   
    15    7   30 1   
    16    8    9 1   
    17    8   10 2   
    18    9   30 2   
    19   11   35 1   
    20   11   36 1   
    21   11   37 1   
    22   12   25 2   
    23   13   26 2   
    24   14   25 1   
    25   14   48 1   
    26   15   31 1   
    27   15   44 1   
    28   16   17 ar  
    29   16   18 ar  
    30   16   46 1   
    31   17   19 ar  
    32   17   47 1   
    33   18   20 ar  
    34   18   49 1   
    35   19   29 ar  
    36   19   38 1   
    37   20   29 ar  
    38   20   39 1   
    39   21   23 1   
    40   21   27 1   
    41   21   40 1   
    42   21   41 1   
    43   22   24 1   
    44   22   27 1   
    45   22   42 1   
    46   22   43 1   
    47   23   30 1   
    48   25   28 1   
    49   26   31 1   
    50   27   28 2   
    51   29   31 1   
    52   31   45 1   
@<TRIPOS>SUBSTRUCTURE
     1 SMX         1 TEMP              0 ****  ****    0 ROOT
