@<TRIPOS>MOLECULE
SMX
   49    52     1     0     0
SMALL
bcc


@<TRIPOS>ATOM
      1 C          -0.3680    0.5630   -0.4990 c         1 SMX      0.680500
      2 N           2.0020    1.3210   -0.9560 n         1 SMX     -0.548900
      3 O          -1.2010    0.8290   -1.3490 o         1 SMX     -0.532500
      4 CA          1.1790    0.3030   -0.4290 cy        1 SMX      0.056700
      5 CB          0.9630    0.2440    1.1390 cy        1 SMX      0.106800
      6 NBD        -0.4830    0.3530    0.9130 n         1 SMX     -0.377000
      7 NBE        -3.0890    1.4890    7.7950 na        1 SMX     -0.052400
      8 NAN        -3.6630    3.5350    7.6890 nc        1 SMX     -0.037000
      9 NAO        -3.0210    3.3140    6.5470 nc        1 SMX     -0.396000
     10 NAP        -3.7120    2.5010    8.4410 nd        1 SMX     -0.187800
     11 CAA        -2.8960    0.1500    8.2870 c3        1 SMX      0.027600
     12 OAB        -3.5920    0.0830    2.2870 o         1 SMX     -0.465000
     13 OAC         3.1730   -0.0880   -2.3520 o         1 SMX     -0.586100
     14 OAE        -3.4130    1.2550    0.4630 oh        1 SMX     -0.560100
     15 OAF         4.4850    1.8790   -3.5910 oh        1 SMX     -0.567800
     16 CAG         6.4650    3.5760    0.7130 ca        1 SMX     -0.116000
     17 CAH         5.2010    4.1500    0.5660 ca        1 SMX     -0.124000
     18 CAI         6.8750    2.5660   -0.1560 ca        1 SMX     -0.124000
     19 CAJ         4.3490    3.7130   -0.4470 ca        1 SMX     -0.112500
     20 CAK         6.0240    2.1250   -1.1690 ca        1 SMX     -0.112500
     21 CAL        -1.9250    2.1110    3.9470 c3        1 SMX      0.010900
     22 CAM         0.4620    1.7740    3.3360 c3        1 SMX      0.017900
     23 SAR        -1.7640    1.1190    5.4210 ss        1 SMX     -0.180400
     24 SAS         1.6820    1.5710    2.0710 ss        1 SMX     -0.277200
     25 CAT        -2.8270    0.7120    1.5600 c         1 SMX      0.644300
     26 CAU         2.9820    1.0560   -1.9020 c         1 SMX      0.638100
     27 CAV        -0.9600    1.5670    2.9640 c2        1 SMX     -0.116400
     28 CAX        -1.3640    0.9270    1.8290 ce        1 SMX     -0.039600
     29 CAY         4.7550    2.6930   -1.3160 ca        1 SMX     -0.133300
     30 CAZ        -2.6220    1.9990    6.5620 cd        1 SMX      0.429800
     31 CBA         3.8230    2.2440   -2.4020 c3        1 SMX      0.137400
     32 H1         -2.7570    1.6460   -0.1350 ho        1 SMX      0.451000
     33 H2          1.4490   -0.7000   -0.8640 h1        1 SMX      0.141700
     34 H3          1.2320   -0.7450    1.5810 h2        1 SMX      0.118700
     35 H4         -3.7730   -0.1590    8.9150 h1        1 SMX      0.072700
     36 H5         -1.9620    0.1050    8.9090 h1        1 SMX      0.072700
     37 H6         -2.7970   -0.5420    7.4070 h1        1 SMX      0.072700
     38 H11         3.3600    4.1790   -0.5670 ha        1 SMX      0.133500
     39 H12         6.3560    1.3340   -1.8590 ha        1 SMX      0.133500
     40 H13        -1.6880    3.1840    4.1660 h1        1 SMX      0.107700
     41 H14        -2.9830    2.0670    3.5820 h1        1 SMX      0.107700
     42 H15         0.6150    2.8280    3.6950 h1        1 SMX      0.103200
     43 H16         0.7050    1.0890    4.1930 h1        1 SMX      0.103200
     44 H17         4.8690    0.9970   -3.4700 ho        1 SMX      0.425000
     45 H18         3.1450    3.0930   -2.7170 h1        1 SMX      0.103700
     46 H8          7.1370    3.9220    1.5120 ha        1 SMX      0.138000
     47 H9          4.8780    4.9510    1.2460 ha        1 SMX      0.138000
     48 H21         1.9850    2.2140   -0.5130 hn        1 SMX      0.335500
     49 H10         7.8720    2.1150   -0.0460 ha        1 SMX      0.138000
@<TRIPOS>BOND
     1    1    3 2   
     2    1    4 1   
     3    1    6 1   
     4    2    4 1   
     5    2   26 1   
     6    2   48 1   
     7    4    5 1   
     8    4   33 1   
     9    5    6 1   
    10    5   24 1   
    11    5   34 1   
    12    6   28 1   
    13    7   10 1   
    14    7   11 1   
    15    7   30 1   
    16    8    9 1   
    17    8   10 2   
    18    9   30 2   
    19   11   35 1   
    20   11   36 1   
    21   11   37 1   
    22   12   25 2   
    23   13   26 2   
    24   14   25 1   
    25   14   32 1   
    26   15   31 1   
    27   15   44 1   
    28   16   17 ar  
    29   16   18 ar  
    30   16   46 1   
    31   17   19 ar  
    32   17   47 1   
    33   18   20 ar  
    34   18   49 1   
    35   19   29 ar  
    36   19   38 1   
    37   20   29 ar  
    38   20   39 1   
    39   21   23 1   
    40   21   27 1   
    41   21   40 1   
    42   21   41 1   
    43   22   24 1   
    44   22   27 1   
    45   22   42 1   
    46   22   43 1   
    47   23   30 1   
    48   25   28 1   
    49   26   31 1   
    50   27   28 2   
    51   29   31 1   
    52   31   45 1   
@<TRIPOS>SUBSTRUCTURE
     1 SMX         1 TEMP              0 ****  ****    0 ROOT
