@<TRIPOS>MOLECULE
SMY
   57    61     1     0     0
SMALL
bcc


@<TRIPOS>ATOM
      1 N1          0.0320   -0.2210   -0.1010 nb        1 SMY     -0.733000
      2 C2          1.3610   -0.4370   -0.2000 ca        1 SMY      0.651900
      3 N3          2.2320   -0.7360    0.8070 nb        1 SMY     -0.663000
      4 C4          1.6910   -0.8010    2.0370 ca        1 SMY      0.453600
      5 C5          0.3010   -0.5570    2.2820 ca        1 SMY     -0.280900
      6 C6         -0.5130   -0.2880    1.1580 ca        1 SMY      0.610200
      7 C7          2.4780   -1.1470    3.2570 c3        1 SMY     -0.073600
      8 S8          1.3150   -1.2410    4.5980 ss        1 SMY     -0.288200
      9 C9         -0.1270   -0.6390    3.6970 c3        1 SMY      0.083700
     10 C10        -0.5800    0.6740    4.2820 c3        1 SMY     -0.080100
     11 N11        -1.9330   -0.0980    1.3570 nh        1 SMY     -0.714300
     12 C12        -2.7200   -1.1950    0.7980 c3        1 SMY      0.143800
     13 C13        -4.2310   -1.0070    1.0490 c3        1 SMY      0.071000
     14 N14        -4.7150    0.3110    0.6520 n         1 SMY     -0.418800
     15 C15        -3.9070    1.4000    1.1650 c3        1 SMY      0.071000
     16 C16        -2.3950    1.2090    0.9020 c3        1 SMY      0.143800
     17 C17        -5.5990    0.4160   -0.3850 c         1 SMY      0.634100
     18 O18        -6.1640   -0.5770   -0.9000 o         1 SMY     -0.615100
     19 C19        -6.0100    1.8130   -0.9210 c3        1 SMY      0.047500
     20 C20        -4.9750    2.2630   -1.9670 c3        1 SMY     -0.008200
     21 C21        -5.4940    3.2700   -2.8970 cc        1 SMY     -0.261400
     22 C22        -5.3050    3.2510   -4.2880 cd        1 SMY     -0.043100
     23 N23        -5.8790    4.3730   -4.8630 na        1 SMY     -0.165400
     24 C24        -6.4290    5.1630   -3.8460 ca        1 SMY     -0.048200
     25 C25        -6.2030    4.4950   -2.5840 ca        1 SMY     -0.117800
     26 C26        -7.1040    6.3940   -3.9100 ca        1 SMY     -0.114000
     27 C27        -7.5370    6.9530   -2.7190 ca        1 SMY     -0.102000
     28 C28        -7.3080    6.3190   -1.4820 ca        1 SMY     -0.119000
     29 C29        -6.6470    5.1030   -1.4060 ca        1 SMY     -0.138000
     30 N30        -7.3880    1.7260   -1.5090 n4        1 SMY     -0.830600
     31 H2          1.7990   -0.3760   -1.2200 h5        1 SMY      0.067100
     32 H7          2.9950   -2.1320    3.1440 h1        1 SMY      0.109200
     33 H7A         3.2560   -0.3710    3.4670 h1        1 SMY      0.109200
     34 H9         -0.9390   -1.4040    3.8180 h1        1 SMY      0.096700
     35 H10         0.1930    1.4670    4.1310 hc        1 SMY      0.049033
     36 H10A       -1.5330    1.0110    3.8050 hc        1 SMY      0.049033
     37 H10B       -0.7540    0.5560    5.3800 hc        1 SMY      0.049033
     38 H12        -2.5470   -1.3280   -0.3090 h1        1 SMY      0.066200
     39 H12A       -2.4040   -2.1430    1.3180 h1        1 SMY      0.066200
     40 H13        -4.7860   -1.8090    0.4860 h1        1 SMY      0.078950
     41 H13A       -4.4500   -1.1170    2.1500 h1        1 SMY      0.078950
     42 H15        -4.0850    1.4440    2.2800 h1        1 SMY      0.078950
     43 H15A       -4.2080    2.3860    0.7210 h1        1 SMY      0.078950
     44 H16        -1.8420    1.9910    1.4950 h1        1 SMY      0.066200
     45 H16A       -2.1930    1.3870   -0.1930 h1        1 SMY      0.066200
     46 H19        -6.0750    2.5730   -0.0860 hx        1 SMY      0.116700
     47 H20        -4.0920    2.6750   -1.4000 hc        1 SMY      0.089200
     48 H20A       -4.6140    1.3640   -2.5410 hc        1 SMY      0.089200
     49 H22        -4.7930    2.5010   -4.9000 h4        1 SMY      0.186000
     50 HN23       -5.8290    4.6270   -5.8170 hn        1 SMY      0.322700
     51 H26        -7.2730    6.8990   -4.8720 ha        1 SMY      0.156000
     52 H27        -8.0630    7.9210   -2.7330 ha        1 SMY      0.156000
     53 H28        -7.6530    6.8130   -0.5610 ha        1 SMY      0.149000
     54 H29        -6.4420    4.6450   -0.4290 ha        1 SMY      0.117000
     55 HN30       -7.5830    2.5890   -2.0380 hn        1 SMY      0.471467
     56 HN3A       -7.4300    0.9100   -2.1360 hn        1 SMY      0.471467
     57 H303       -8.0780    1.6000   -0.7660 hn        1 SMY      0.471467
@<TRIPOS>BOND
     1    1    2 ar  
     2    1    6 ar  
     3    2    3 ar  
     4    2   31 1   
     5    3    4 ar  
     6    4    5 ar  
     7    4    7 1   
     8    5    6 ar  
     9    5    9 1   
    10    6   11 1   
    11    7    8 1   
    12    7   32 1   
    13    7   33 1   
    14    8    9 1   
    15    9   10 1   
    16    9   34 1   
    17   10   35 1   
    18   10   36 1   
    19   10   37 1   
    20   11   12 1   
    21   11   16 1   
    22   12   13 1   
    23   12   38 1   
    24   12   39 1   
    25   13   14 1   
    26   13   40 1   
    27   13   41 1   
    28   14   15 1   
    29   14   17 1   
    30   15   16 1   
    31   15   42 1   
    32   15   43 1   
    33   16   44 1   
    34   16   45 1   
    35   17   18 2   
    36   17   19 1   
    37   19   20 1   
    38   19   30 1   
    39   19   46 1   
    40   20   21 1   
    41   20   47 1   
    42   20   48 1   
    43   21   22 2   
    44   21   25 1   
    45   22   23 1   
    46   22   49 1   
    47   23   24 1   
    48   23   50 1   
    49   24   25 ar  
    50   24   26 ar  
    51   25   29 ar  
    52   26   27 ar  
    53   26   51 1   
    54   27   28 ar  
    55   27   52 1   
    56   28   29 ar  
    57   28   53 1   
    58   29   54 1   
    59   30   55 1   
    60   30   56 1   
    61   30   57 1   
@<TRIPOS>SUBSTRUCTURE
     1 SMY         1 TEMP              0 ****  ****    0 ROOT
