@<TRIPOS>MOLECULE
SMY
   57    61     1     0     0
SMALL
bcc


@<TRIPOS>ATOM
      1 N1          0.0330   -0.2230   -0.0770 nb        1 SMY     -0.733000
      2 C2          1.3610   -0.4400   -0.1680 ca        1 SMY      0.651900
      3 N3          2.2270   -0.7360    0.8460 nb        1 SMY     -0.663000
      4 C4          1.6780   -0.7970    2.0730 ca        1 SMY      0.453600
      5 C5          0.2870   -0.5530    2.3080 ca        1 SMY     -0.280900
      6 C6         -0.5200   -0.2880    1.1790 ca        1 SMY      0.610200
      7 C7          2.4580   -1.1410    3.2980 c3        1 SMY     -0.073600
      8 S8          1.2860   -1.2320    4.6320 ss        1 SMY     -0.288200
      9 C9         -0.1500   -0.6320    3.7210 c3        1 SMY      0.083700
     10 C10        -0.6060    0.6830    4.3000 c3        1 SMY     -0.080100
     11 N11        -1.9410   -0.0980    1.3690 nh        1 SMY     -0.714300
     12 C12        -2.7250   -1.1950    0.8050 c3        1 SMY      0.143800
     13 C13        -4.2380   -1.0060    1.0470 c3        1 SMY      0.071000
     14 N14        -4.7190    0.3110    0.6460 n         1 SMY     -0.418800
     15 C15        -3.9140    1.4010    1.1620 c3        1 SMY      0.071000
     16 C16        -2.4000    1.2090    0.9100 c3        1 SMY      0.143800
     17 C17        -5.5970    0.4150   -0.3970 c         1 SMY      0.634100
     18 O18        -6.1580   -0.5780   -0.9140 o         1 SMY     -0.615100
     19 C19        -6.0050    1.8120   -0.9360 c3        1 SMY      0.047500
     20 C20        -4.9630    2.2600   -1.9770 c3        1 SMY     -0.008200
     21 C21        -5.4770    3.2660   -2.9110 cc        1 SMY     -0.261400
     22 C22        -5.2790    3.2450   -4.3010 cd        1 SMY     -0.043100
     23 N23        -5.8500    4.3660   -4.8810 na        1 SMY     -0.165400
     24 C24        -6.4070    5.1580   -3.8690 ca        1 SMY     -0.048200
     25 C25        -6.1880    4.4910   -2.6050 ca        1 SMY     -0.117800
     26 C26        -7.0810    6.3880   -3.9380 ca        1 SMY     -0.114000
     27 C27        -7.5220    6.9480   -2.7510 ca        1 SMY     -0.102000
     28 C28        -7.3010    6.3160   -1.5120 ca        1 SMY     -0.119000
     29 C29        -6.6400    5.1010   -1.4300 ca        1 SMY     -0.138000
     30 N30        -7.3800    1.7240   -1.5330 n4        1 SMY     -0.830600
     31 H2          1.8060   -0.3810   -1.1850 h5        1 SMY      0.067100
     32 H7          2.9760   -2.1270    3.1910 h1        1 SMY      0.109200
     33 H7A         3.2350   -0.3650    3.5110 h1        1 SMY      0.109200
     34 H9         -0.9630   -1.3970    3.8390 h1        1 SMY      0.096700
     35 H10         0.1670    1.4760    4.1510 hc        1 SMY      0.049033
     36 H10A       -1.5560    1.0180    3.8170 hc        1 SMY      0.049033
     37 H10B       -0.7870    0.5680    5.3970 hc        1 SMY      0.049033
     38 H12        -2.5450   -1.3280   -0.3000 h1        1 SMY      0.066200
     39 H12A       -2.4120   -2.1420    1.3290 h1        1 SMY      0.066200
     40 H13        -4.4630   -1.1160    2.1470 h1        1 SMY      0.078950
     41 H13A       -4.7890   -1.8090    0.4820 h1        1 SMY      0.078950
     42 H15        -4.2130    2.3860    0.7150 h1        1 SMY      0.078950
     43 H15A       -4.0990    1.4470    2.2760 h1        1 SMY      0.078950
     44 H16        -1.8520    1.9920    1.5050 h1        1 SMY      0.066200
     45 H16A       -2.1920    1.3870   -0.1850 h1        1 SMY      0.066200
     46 H19        -6.0750    2.5720   -0.1030 hx        1 SMY      0.116700
     47 H20        -4.0840    2.6730   -1.4050 hc        1 SMY      0.089200
     48 H20A       -4.5990    1.3610   -2.5480 hc        1 SMY      0.089200
     49 H22        -4.7630    2.4950   -4.9090 h4        1 SMY      0.186000
     50 HN23       -5.7940    4.6190   -5.8350 hn        1 SMY      0.322700
     51 H26        -7.2440    6.8930   -4.9020 ha        1 SMY      0.156000
     52 H27        -8.0490    7.9160   -2.7690 ha        1 SMY      0.156000
     53 H28        -7.6520    6.8110   -0.5930 ha        1 SMY      0.149000
     54 H29        -6.4410    4.6440   -0.4510 ha        1 SMY      0.117000
     55 HN30       -7.4180    0.9070   -2.1590 hn        1 SMY      0.471467
     56 HN3A       -8.0740    1.5980   -0.7930 hn        1 SMY      0.471467
     57 H303       -7.5710    2.5870   -2.0640 hn        1 SMY      0.471467
@<TRIPOS>BOND
     1    1    2 ar  
     2    1    6 ar  
     3    2    3 ar  
     4    2   31 1   
     5    3    4 ar  
     6    4    5 ar  
     7    4    7 1   
     8    5    6 ar  
     9    5    9 1   
    10    6   11 1   
    11    7    8 1   
    12    7   32 1   
    13    7   33 1   
    14    8    9 1   
    15    9   10 1   
    16    9   34 1   
    17   10   35 1   
    18   10   36 1   
    19   10   37 1   
    20   11   12 1   
    21   11   16 1   
    22   12   13 1   
    23   12   38 1   
    24   12   39 1   
    25   13   14 1   
    26   13   40 1   
    27   13   41 1   
    28   14   15 1   
    29   14   17 1   
    30   15   16 1   
    31   15   42 1   
    32   15   43 1   
    33   16   44 1   
    34   16   45 1   
    35   17   18 2   
    36   17   19 1   
    37   19   20 1   
    38   19   30 1   
    39   19   46 1   
    40   20   21 1   
    41   20   47 1   
    42   20   48 1   
    43   21   22 2   
    44   21   25 1   
    45   22   23 1   
    46   22   49 1   
    47   23   24 1   
    48   23   50 1   
    49   24   25 ar  
    50   24   26 ar  
    51   25   29 ar  
    52   26   27 ar  
    53   26   51 1   
    54   27   28 ar  
    55   27   52 1   
    56   28   29 ar  
    57   28   53 1   
    58   29   54 1   
    59   30   55 1   
    60   30   56 1   
    61   30   57 1   
@<TRIPOS>SUBSTRUCTURE
     1 SMY         1 TEMP              0 ****  ****    0 ROOT
