@<TRIPOS>MOLECULE
SMY
   56    60     1     0     0
SMALL
bcc


@<TRIPOS>ATOM
      1 N1          2.2210    1.2560   -1.4300 nb        1 SMY     -0.731000
      2 C2          3.1570    2.0340   -2.0130 ca        1 SMY      0.652900
      3 N3          4.4930    2.0740   -1.7460 nb        1 SMY     -0.686000
      4 C4          4.9020    1.2500   -0.7600 ca        1 SMY      0.449600
      5 C5          4.0100    0.4040   -0.0390 ca        1 SMY     -0.312900
      6 C6          2.6420    0.4140   -0.4280 ca        1 SMY      0.649200
      7 C7          6.3320    1.1490   -0.3420 c3        1 SMY     -0.064600
      8 S8          6.3990   -0.1020    0.9180 ss        1 SMY     -0.320200
      9 C9          4.6210   -0.3940    1.0500 c3        1 SMY      0.099700
     10 C10         4.1490   -0.0200    2.4310 c3        1 SMY     -0.083100
     11 N11         1.7120   -0.4280    0.2650 nh        1 SMY     -0.727300
     12 C12         1.7320   -1.8110   -0.2080 c3        1 SMY      0.150300
     13 C13         0.8270   -2.7240    0.6500 c3        1 SMY      0.080000
     14 N14        -0.5110   -2.2020    0.8370 n         1 SMY     -0.459800
     15 C15        -0.5430   -0.8160    1.2390 c3        1 SMY      0.080000
     16 C16         0.3550    0.0980    0.3690 c3        1 SMY      0.150300
     17 C17        -1.6000   -2.8780    0.3040 c         1 SMY      0.610100
     18 O18        -1.4400   -4.0030   -0.2160 o         1 SMY     -0.620100
     19 C19        -3.0290   -2.2910    0.4300 c3        1 SMY      0.112500
     20 C20        -3.2240   -1.3060   -0.7420 c3        1 SMY      0.003800
     21 C21        -4.2780   -0.3210   -0.4720 cc        1 SMY     -0.161400
     22 C22        -5.6040   -0.5750   -0.1160 cd        1 SMY     -0.072100
     23 N23        -6.3010    0.6250    0.0250 na        1 SMY     -0.194400
     24 C24        -5.4260    1.6810   -0.2430 ca        1 SMY     -0.049200
     25 C25        -4.1320    1.1180   -0.5630 ca        1 SMY     -0.088800
     26 C26        -5.6320    3.0690   -0.2400 ca        1 SMY     -0.142000
     27 C27        -4.5530    3.8810   -0.5550 ca        1 SMY     -0.116000
     28 C28        -3.2920    3.3430   -0.8680 ca        1 SMY     -0.154000
     29 C29        -3.0740    1.9740   -0.8750 ca        1 SMY     -0.093000
     30 N30        -4.0540   -3.3110    0.4730 n3        1 SMY     -0.889800
     31 H2          2.7990    2.7140   -2.8160 h5        1 SMY      0.060100
     32 H7          6.9870    0.8520   -1.1980 h1        1 SMY      0.100200
     33 H7A         6.7050    2.1240    0.0590 h1        1 SMY      0.100200
     34 H9          4.4610   -1.4920    0.8810 h1        1 SMY      0.088700
     35 H10         3.0900   -0.3400    2.5840 hc        1 SMY      0.051367
     36 H10A        4.7870   -0.5270    3.1960 hc        1 SMY      0.051367
     37 H10B        4.2140    1.0830    2.5900 hc        1 SMY      0.051367
     38 H12         1.4080   -1.8820   -1.2860 h1        1 SMY      0.055700
     39 H12A        2.7850   -2.1990   -0.1330 h1        1 SMY      0.055700
     40 H13         0.7810   -3.7330    0.1510 h1        1 SMY      0.070200
     41 H13A        1.2910   -2.8470    1.6700 h1        1 SMY      0.070200
     42 H15        -1.5850   -0.3960    1.1910 h1        1 SMY      0.070200
     43 H15A       -0.1900   -0.7620    2.3090 h1        1 SMY      0.070200
     44 H16         0.4080    1.1060    0.8640 h1        1 SMY      0.055700
     45 H16A       -0.1360    0.2260   -0.6390 h1        1 SMY      0.055700
     46 H19        -3.1090   -1.7240    1.4050 h1        1 SMY      0.081700
     47 H20        -2.2550   -0.7660   -0.9240 hc        1 SMY      0.057200
     48 H20A       -3.4620   -1.8760   -1.6820 hc        1 SMY      0.057200
     49 H22        -6.0980   -1.5350    0.0570 h4        1 SMY      0.183000
     50 HN23       -7.2490    0.7180    0.2730 hn        1 SMY      0.299700
     51 H26        -6.6140    3.4960    0.0020 ha        1 SMY      0.132000
     52 H27        -4.6840    4.9740   -0.5620 ha        1 SMY      0.130000
     53 H28        -2.4670    4.0280   -1.1130 ha        1 SMY      0.130000
     54 H29        -2.0840    1.5620   -1.1230 ha        1 SMY      0.131000
     55 HN30       -4.0710   -3.8290   -0.3870 hn        1 SMY      0.360300
     56 HN3A       -3.8690   -3.9500    1.2230 hn        1 SMY      0.360300
@<TRIPOS>BOND
     1    1    2 ar  
     2    1    6 ar  
     3    2    3 ar  
     4    2   31 1   
     5    3    4 ar  
     6    4    5 ar  
     7    4    7 1   
     8    5    6 ar  
     9    5    9 1   
    10    6   11 1   
    11    7    8 1   
    12    7   32 1   
    13    7   33 1   
    14    8    9 1   
    15    9   10 1   
    16    9   34 1   
    17   10   35 1   
    18   10   36 1   
    19   10   37 1   
    20   11   12 1   
    21   11   16 1   
    22   12   13 1   
    23   12   38 1   
    24   12   39 1   
    25   13   14 1   
    26   13   40 1   
    27   13   41 1   
    28   14   15 1   
    29   14   17 1   
    30   15   16 1   
    31   15   42 1   
    32   15   43 1   
    33   16   44 1   
    34   16   45 1   
    35   17   18 2   
    36   17   19 1   
    37   19   20 1   
    38   19   30 1   
    39   19   46 1   
    40   20   21 1   
    41   20   47 1   
    42   20   48 1   
    43   21   22 2   
    44   21   25 1   
    45   22   23 1   
    46   22   49 1   
    47   23   24 1   
    48   23   50 1   
    49   24   25 ar  
    50   24   26 ar  
    51   25   29 ar  
    52   26   27 ar  
    53   26   51 1   
    54   27   28 ar  
    55   27   52 1   
    56   28   29 ar  
    57   28   53 1   
    58   29   54 1   
    59   30   55 1   
    60   30   56 1   
@<TRIPOS>SUBSTRUCTURE
     1 SMY         1 TEMP              0 ****  ****    0 ROOT
