@<TRIPOS>MOLECULE
SMY
   57    61     1     0     0
SMALL
bcc


@<TRIPOS>ATOM
      1 N1          0.0430   -0.2050   -0.0770 nb        1 SMY     -0.733000
      2 C2          1.3730   -0.4150   -0.1650 ca        1 SMY      0.651900
      3 N3          2.2380   -0.7090    0.8500 nb        1 SMY     -0.663000
      4 C4          1.6870   -0.7760    2.0750 ca        1 SMY      0.453600
      5 C5          0.2940   -0.5400    2.3080 ca        1 SMY     -0.280900
      6 C6         -0.5120   -0.2760    1.1780 ca        1 SMY      0.610200
      7 C7          2.4660   -1.1180    3.3010 c3        1 SMY     -0.073600
      8 S8          1.2920   -1.2190    4.6320 ss        1 SMY     -0.288200
      9 C9         -0.1450   -0.6250    3.7200 c3        1 SMY      0.083700
     10 C10        -0.6100    0.6850    4.3010 c3        1 SMY     -0.080100
     11 N11        -1.9350   -0.0940    1.3650 nh        1 SMY     -0.714300
     12 C12        -2.7120   -1.1940    0.7970 c3        1 SMY      0.143800
     13 C13        -4.2260   -1.0140    1.0370 c3        1 SMY      0.071000
     14 N14        -4.7130    0.3020    0.6380 n         1 SMY     -0.418800
     15 C15        -3.9150    1.3940    1.1590 c3        1 SMY      0.071000
     16 C16        -2.4000    1.2110    0.9080 c3        1 SMY      0.143800
     17 C17        -5.5910    0.4040   -0.4050 c         1 SMY      0.634100
     18 O18        -6.1460   -0.5910   -0.9260 o         1 SMY     -0.615100
     19 C19        -6.0040    1.8000   -0.9410 c3        1 SMY      0.047500
     20 C20        -4.9640    2.2570   -1.9800 c3        1 SMY     -0.008200
     21 C21        -5.4820    3.2640   -2.9110 cc        1 SMY     -0.261400
     22 C22        -5.2850    3.2480   -4.3000 cd        1 SMY     -0.043100
     23 N23        -5.8600    4.3690   -4.8760 na        1 SMY     -0.165400
     24 C24        -6.4190    5.1550   -3.8610 ca        1 SMY     -0.048200
     25 C25        -6.1970    4.4850   -2.5990 ca        1 SMY     -0.117800
     26 C26        -7.0980    6.3840   -3.9260 ca        1 SMY     -0.114000
     27 C27        -7.5400    6.9380   -2.7370 ca        1 SMY     -0.102000
     28 C28        -7.3150    6.3030   -1.5000 ca        1 SMY     -0.120000
     29 C29        -6.6510    5.0900   -1.4220 ca        1 SMY     -0.138000
     30 N30        -7.3780    1.7070   -1.5400 nz        1 SMY     -0.830600
     31 H2          1.8190   -0.3510   -1.1810 h5        1 SMY      0.067100
     32 H7          2.9900   -2.1010    3.1920 h1        1 SMY      0.109200
     33 H7A         3.2380   -0.3390    3.5180 h1        1 SMY      0.109200
     34 H9         -0.9540   -1.3950    3.8340 h1        1 SMY      0.096700
     35 H10        -1.5610    1.0170    3.8170 hc        1 SMY      0.049033
     36 H10A        0.1590    1.4830    4.1570 hc        1 SMY      0.049033
     37 H10B       -0.7930    0.5670    5.3970 hc        1 SMY      0.049033
     38 H12        -2.5290   -1.3240   -0.3080 h1        1 SMY      0.066200
     39 H12A       -2.3950   -2.1410    1.3190 h1        1 SMY      0.066200
     40 H13        -4.4530   -1.1280    2.1350 h1        1 SMY      0.078950
     41 H13A       -4.7720   -1.8190    0.4680 h1        1 SMY      0.078950
     42 H15        -4.1020    1.4360    2.2720 h1        1 SMY      0.078950
     43 H15A       -4.2180    2.3790    0.7140 h1        1 SMY      0.078950
     44 H16        -2.1900    1.3930   -0.1850 h1        1 SMY      0.066200
     45 H16A       -1.8560    1.9960    1.5070 h1        1 SMY      0.066200
     46 H19        -6.0800    2.5580   -0.1060 hx        1 SMY      0.116700
     47 H20        -4.5960    1.3610   -2.5530 hc        1 SMY      0.089200
     48 H20A       -4.0880    2.6710   -1.4060 hc        1 SMY      0.089200
     49 H22        -4.7660    2.5020   -4.9110 h4        1 SMY      0.186000
     50 HN23       -5.8050    4.6260   -5.8300 hn        1 SMY      0.322700
     51 H26        -7.2630    6.8910   -4.8880 ha        1 SMY      0.156000
     52 H27        -8.0700    7.9040   -2.7520 ha        1 SMY      0.156000
     53 H28        -7.6680    6.7940   -0.5790 ha        1 SMY      0.149000
     54 H29        -6.4500    4.6300   -0.4450 ha        1 SMY      0.117000
     55 HN30       -7.5730    2.5700   -2.0700 hn        1 SMY      0.471467
     56 HN3A       -7.4120    0.8910   -2.1680 hn        1 SMY      0.471467
     57 H303       -8.0730    1.5770   -0.8020 hn        1 SMY      0.471467
@<TRIPOS>BOND
     1    1    2 ar  
     2    1    6 ar  
     3    2    3 ar  
     4    2   31 1   
     5    3    4 ar  
     6    4    5 ar  
     7    4    7 1   
     8    5    6 ar  
     9    5    9 1   
    10    6   11 1   
    11    7    8 1   
    12    7   32 1   
    13    7   33 1   
    14    8    9 1   
    15    9   10 1   
    16    9   34 1   
    17   10   35 1   
    18   10   36 1   
    19   10   37 1   
    20   11   12 1   
    21   11   16 1   
    22   12   13 1   
    23   12   38 1   
    24   12   39 1   
    25   13   14 1   
    26   13   40 1   
    27   13   41 1   
    28   14   15 1   
    29   14   17 1   
    30   15   16 1   
    31   15   42 1   
    32   15   43 1   
    33   16   44 1   
    34   16   45 1   
    35   17   18 2   
    36   17   19 1   
    37   19   20 1   
    38   19   30 1   
    39   19   46 1   
    40   20   21 1   
    41   20   47 1   
    42   20   48 1   
    43   21   22 2   
    44   21   25 1   
    45   22   23 1   
    46   22   49 1   
    47   23   24 1   
    48   23   50 1   
    49   24   25 ar  
    50   24   26 ar  
    51   25   29 ar  
    52   26   27 ar  
    53   26   51 1   
    54   27   28 ar  
    55   27   52 1   
    56   28   29 ar  
    57   28   53 1   
    58   29   54 1   
    59   30   55 1   
    60   30   56 1   
    61   30   57 1   
@<TRIPOS>SUBSTRUCTURE
     1 SMY         1 TEMP              0 ****  ****    0 ROOT
