@<TRIPOS>MOLECULE
SMZ
   29    25     1     0     0
SMALL
bcc


@<TRIPOS>ATOM
      1 C8          0.1520    0.2740    1.9390 c3        1 SMZ     -0.101800
      2 S1          1.4230   -0.1900    0.8970 s4        1 SMZ     -0.070000
      3 C2          8.3030   -2.6730    4.3470 c1        1 SMZ      0.399800
      4 C4          6.0300   -0.1230    3.8240 c3        1 SMZ     -0.114600
      5 C5          3.3610    1.6020    2.0440 c3        1 SMZ      0.134100
      6 C1          5.5590    2.4660    8.5300 c1        1 SMZ      0.886000
      7 N2          9.2630   -3.2990    4.6080 n1        1 SMZ     -0.846200
      8 C3          4.9360   -0.1220    4.8510 c3        1 SMZ     -0.114600
      9 N6          2.9370    0.4180    1.3860 nh        1 SMZ     -0.281300
     10 C7          2.6530   -0.8310    1.9720 cu        1 SMZ      0.677500
     11 N8          2.9960   -1.8150    2.6560 n2        1 SMZ     -0.609100
     12 H8         -0.6040    0.8480    1.3350 h1        1 SMZ      0.145700
     13 H8A         0.4270    0.9180    2.8110 h1        1 SMZ      0.145700
     14 H8B        -0.3900   -0.6150    2.3620 h1        1 SMZ      0.145700
     15 H2          5.2570    0.4320    5.7690 hc        1 SMZ      0.038367
     16 H4          4.4230    1.4190    2.3920 h1        1 SMZ      0.100700
     17 H4A         6.8940   -0.7490    4.1700 hc        1 SMZ      0.038367
     18 H5          6.4020    0.9140    3.6360 hc        1 SMZ      0.038367
     19 H5A         5.6730   -0.5470    2.8530 hc        1 SMZ      0.038367
     20 HN2         5.2900   -3.2240    3.9000 ha        1 SMZ      0.002000
     21 HN2A       10.0550   -3.8150    4.8230 hn        1 SMZ      0.450400
     22 H3          4.6730   -1.1660    5.1540 hc        1 SMZ      0.038367
     23 H3A         4.0150    0.3760    4.4560 hc        1 SMZ      0.038367
     24 HN6         3.3560    2.4420    1.2950 h1        1 SMZ      0.100700
     25 HN8         3.8700   -1.8490    3.1590 hn        1 SMZ      0.503400
     26 O2          5.1250    2.0560    7.4980 o         1 SMZ     -0.443000
     27 H23         5.8750   -2.8830    3.9430 ha        1 SMZ      0.002000
     28 H62         2.7400    1.8870    2.9380 h1        1 SMZ      0.100700
     29 O1          5.9920    2.8740    9.5570 o         1 SMZ     -0.443000
@<TRIPOS>BOND
     1    1    2 1   
     2    1   12 1   
     3    1   13 1   
     4    1   14 1   
     5    2    9 1   
     6    2   10 1   
     7    3    7 3   
     8    4    8 1   
     9    4   17 1   
    10    4   18 1   
    11    4   19 1   
    12    5    9 1   
    13    5   16 1   
    14    5   24 1   
    15    5   28 1   
    16    6   26 2   
    17    6   29 2   
    18    7   21 1   
    19    8   15 1   
    20    8   22 1   
    21    8   23 1   
    22    9   10 1   
    23   10   11 2   
    24   11   25 1   
    25   20   27 1   
@<TRIPOS>SUBSTRUCTURE
     1 SMZ         1 TEMP              0 ****  ****    0 ROOT
