@<TRIPOS>MOLECULE
SMZ
   29    24     1     0     0
SMALL
bcc


@<TRIPOS>ATOM
      1 C8          2.6160   -3.0550    0.7200 c3        1 SMZ     -0.062000
      2 S1          4.2010   -2.2870    0.7470 ss        1 SMZ     -0.218300
      3 C2          4.7430   -0.3290    4.3080 c1        1 SMZ      0.569300
      4 C4          4.9160    3.6500    5.9470 c3        1 SMZ     -0.085900
      5 C5          4.8280    1.4460    7.0900 c2        1 SMZ     -0.286000
      6 C1          6.4840   -2.3430    7.0770 c1        1 SMZ      0.909000
      7 N2          4.5610   -1.0220    3.4020 n1        1 SMZ     -0.587200
      8 C3          5.5150    2.4070    6.4710 c2        1 SMZ     -0.146200
      9 N6          3.5720   -0.7510   -1.3550 nh        1 SMZ     -0.946800
     10 C7          3.9000   -0.6850   -0.0140 c2        1 SMZ      0.667100
     11 N8          3.9870    0.3200    0.7940 n2        1 SMZ     -0.876100
     12 H8          2.2060   -3.1090   -0.3150 h1        1 SMZ      0.096367
     13 H8A         1.8780   -2.5370    1.3700 h1        1 SMZ      0.096367
     14 H8B         2.7810   -4.0940    1.0960 h1        1 SMZ      0.096367
     15 H2          6.6100    2.3280    6.3420 ha        1 SMZ      0.127000
     16 H4          3.5300    0.0920   -1.8820 hn        1 SMZ      0.436800
     17 H4A         5.1980    3.8000    4.8750 hc        1 SMZ      0.056700
     18 H5          5.3030    4.5250    6.5290 hc        1 SMZ      0.056700
     19 H5A         3.8010    3.6450    6.0260 hc        1 SMZ      0.056700
     20 HN2         4.3900   -1.5630    2.5060 hn        1 SMZ      0.551400
     21 HN2A        3.5000   -0.9140    6.9450 ha        1 SMZ      0.001500
     22 H3          5.3150    0.5550    7.5120 ha        1 SMZ      0.120500
     23 H3A         4.9240    0.2960    5.1930 ha        1 SMZ      0.291500
     24 HN6         3.8340   -1.5680   -1.8560 hn        1 SMZ      0.436800
     25 HN8         3.8910    1.2400    0.4190 hn        1 SMZ      0.422400
     26 O2          5.8640   -1.6520    6.3190 o         1 SMZ     -0.454500
     27 H23         3.4120   -1.1530    6.3160 ha        1 SMZ      0.001500
     28 H62         3.7470    1.5130    7.2770 ha        1 SMZ      0.120500
     29 O1          7.0940   -3.0270    7.8240 o         1 SMZ     -0.454500
@<TRIPOS>BOND
     1    1    2 1   
     2    1   12 1   
     3    1   13 1   
     4    1   14 1   
     5    2   10 1   
     6    3    7 3   
     7    3   23 1   
     8    4    8 1   
     9    4   17 1   
    10    4   18 1   
    11    4   19 1   
    12    5    8 2   
    13    5   22 1   
    14    5   28 1   
    15    6   26 2   
    16    6   29 2   
    17    7   20 1   
    18    8   15 1   
    19    9   10 1   
    20    9   16 1   
    21    9   24 1   
    22   10   11 2   
    23   11   25 1   
    24   21   27 1   
@<TRIPOS>SUBSTRUCTURE
     1 SMZ         1 TEMP              0 ****  ****    0 ROOT
