@<TRIPOS>MOLECULE
SMZ
   27    26     1     0     0
SMALL
bcc


@<TRIPOS>ATOM
      1 C8          5.7290    0.2440   -0.3590 c3        1 SMZ     -0.040000
      2 S1          4.3430   -0.5730    0.3320 ss        1 SMZ     -0.361300
      3 C2         -3.1750   -0.6200    0.2440 c3        1 SMZ      0.016500
      4 C4         -0.6680   -0.3710    0.3860 c3        1 SMZ     -0.088400
      5 C5          0.5080    0.5400    0.0380 c3        1 SMZ      0.186800
      6 C1         -4.4650    0.2360    0.0070 c         1 SMZ      0.888600
      7 N2         -3.1790   -1.9110   -0.4330 n3        1 SMZ     -0.893800
      8 C3         -1.9610    0.2420   -0.1060 c3        1 SMZ     -0.061400
      9 N6          1.7840   -0.0110    0.4560 nh        1 SMZ     -0.794200
     10 C7          2.9720    0.5340   -0.0350 c2        1 SMZ      0.687100
     11 N8          3.0660    1.6920   -0.6040 n2        1 SMZ     -0.847100
     12 H8          5.6160    0.4200   -1.4520 h1        1 SMZ      0.065700
     13 H8A         5.9400    1.2160    0.1420 h1        1 SMZ      0.065700
     14 H8B         6.5920   -0.4420   -0.1910 h1        1 SMZ      0.065700
     15 H2         -3.1420   -0.8410    1.3510 h1        1 SMZ      0.041700
     16 H4         -0.5250   -1.3810   -0.0810 hc        1 SMZ      0.043200
     17 H4A        -0.7240   -0.5200    1.4960 hc        1 SMZ      0.043200
     18 H5          0.5000    0.7370   -1.0730 h1        1 SMZ      0.051700
     19 H5A         0.3850    1.5330    0.5560 h1        1 SMZ      0.051700
     20 HN2        -4.0960   -2.3090   -0.3050 hn        1 SMZ      0.330800
     21 HN2A       -3.0830   -1.7500   -1.4210 hn        1 SMZ      0.330800
     22 H3         -1.9080    0.4010   -1.2150 hc        1 SMZ      0.050700
     23 H3A        -2.1200    1.2460    0.3710 hc        1 SMZ      0.050700
     24 HN6         1.8000   -1.0080    0.5220 hn        1 SMZ      0.412800
     25 HN8         3.9920    1.9970   -0.8040 hn        1 SMZ      0.387400
     26 O1         -5.3840   -0.2600   -0.7060 o         1 SMZ     -0.842800
     27 O2         -4.5230    1.3680    0.5620 o         1 SMZ     -0.842800
@<TRIPOS>BOND
     1    1    2 1   
     2    1   12 1   
     3    1   13 1   
     4    1   14 1   
     5    2   10 1   
     6    3    6 1   
     7    3    7 1   
     8    3    8 1   
     9    3   15 1   
    10    4    5 1   
    11    4    8 1   
    12    4   16 1   
    13    4   17 1   
    14    5    9 1   
    15    5   18 1   
    16    5   19 1   
    17    6   26 1   
    18    6   27 1   
    19    7   20 1   
    20    7   21 1   
    21    8   22 1   
    22    8   23 1   
    23    9   10 1   
    24    9   24 1   
    25   10   11 2   
    26   11   25 1   
@<TRIPOS>SUBSTRUCTURE
     1 SMZ         1 TEMP              0 ****  ****    0 ROOT
