@<TRIPOS>MOLECULE
SMZ
   29    24     1     0     0
SMALL
bcc


@<TRIPOS>ATOM
      1 C8          0.8820   -0.9750    1.5360 c3        1 SMZ     -0.075000
      2 S1          2.4190   -0.9240    2.3640 ss        1 SMZ     -0.095300
      3 C2          6.2690    1.6710    6.5620 c1        1 SMZ      0.349800
      4 C4          6.3630    0.4330    2.0550 c3        1 SMZ     -0.107600
      5 C5          3.7410    1.2480    5.2880 c2        1 SMZ      0.324100
      6 C1          5.0020   -3.4480    5.2530 c1        1 SMZ      0.907000
      7 N2          7.2580    1.9320    7.1270 n1        1 SMZ     -0.762200
      8 C3          6.7810   -0.0280    3.4200 c3        1 SMZ     -0.107600
      9 N6          3.4850    0.3490    4.3920 nh        1 SMZ     -0.258200
     10 C7          2.2020    0.1720    3.6930 c2        1 SMZ      0.457700
     11 N8          1.0790    0.7080    3.9820 n2        1 SMZ     -0.742100
     12 H8          1.0480   -1.6780    0.6820 h1        1 SMZ      0.099367
     13 H8A         0.5740    0.0180    1.1370 h1        1 SMZ      0.099367
     14 H8B         0.0610   -1.3680    2.1780 h1        1 SMZ      0.099367
     15 H2          6.4880    0.7150    4.2050 hc        1 SMZ      0.036200
     16 H4          4.2130   -0.3050    4.1030 hn        1 SMZ      0.353700
     17 H4A         6.8450    1.4090    1.8010 hc        1 SMZ      0.036200
     18 H5          5.2540    0.5650    1.9980 hc        1 SMZ      0.036200
     19 H5A         6.6610   -0.3150    1.2800 hc        1 SMZ      0.036200
     20 HN2         8.0830    2.1510    7.5980 hn        1 SMZ      0.480400
     21 HN2A        4.6670   -1.7160    2.1170 ha        1 SMZ      0.012000
     22 H3          7.8900   -0.1580    3.4660 hc        1 SMZ      0.036200
     23 H3A         6.3080   -1.0110    3.6710 hc        1 SMZ      0.036200
     24 HN6         4.7910    1.3420    5.7790 h4        1 SMZ      0.102800
     25 HN8         0.9660    1.3310    4.7500 hn        1 SMZ      0.435400
     26 O2          4.7780   -2.3120    4.9510 o         1 SMZ     -0.452500
     27 H23         4.4100   -2.2190    2.5020 ha        1 SMZ      0.012000
     28 H62         2.9660    1.9720    5.6150 h4        1 SMZ      0.102800
     29 O1          5.2240   -4.5700    5.5530 o         1 SMZ     -0.452500
@<TRIPOS>BOND
     1    1    2 1   
     2    1   12 1   
     3    1   13 1   
     4    1   14 1   
     5    2   10 1   
     6    3    7 3   
     7    4    8 1   
     8    4   17 1   
     9    4   18 1   
    10    4   19 1   
    11    5    9 2   
    12    5   24 1   
    13    5   28 1   
    14    6   26 2   
    15    6   29 2   
    16    7   20 1   
    17    8   15 1   
    18    8   22 1   
    19    8   23 1   
    20    9   10 1   
    21    9   16 1   
    22   10   11 2   
    23   11   25 1   
    24   21   27 1   
@<TRIPOS>SUBSTRUCTURE
     1 SMZ         1 TEMP              0 ****  ****    0 ROOT
