@<TRIPOS>MOLECULE
SN0
   29    28     1     0     0
SMALL
bcc


@<TRIPOS>ATOM
      1 CA          1.0000    0.0240    0.1530 c3        1 SN0     -0.048500
      2 C          -0.4210   -0.1590    0.8550 c         1 SN0      0.927600
      3 OXT        -1.3600    0.5320    0.3730 o         1 SN0     -0.783300
      4 O          -0.4630   -0.9780    1.7930 o         1 SN0     -0.783300
      5 CB          2.0710    0.2300    1.2100 c3        1 SN0     -0.092400
      6 CG          3.4760    0.0950    0.6670 c3        1 SN0     -0.093400
      7 CD          4.5030    0.2650    1.7570 c3        1 SN0     -0.089100
      8 N1          0.9210    1.1470   -0.8340 n4        1 SN0     -0.670800
      9 C1          1.7320    0.9760   -2.0910 c         1 SN0      0.545100
     10 O1          1.6970   -0.1280   -2.6230 o         1 SN0     -0.465100
     11 C2          2.4720    2.2050   -2.5220 c3        1 SN0     -0.151400
     12 C3          3.2060    2.0280   -3.8270 c3        1 SN0     -0.214400
     13 C4          4.2920    3.1290   -3.9540 c         1 SN0      0.916600
     14 OD1         4.6760    3.4240   -5.1140 o         1 SN0     -0.827800
     15 OD2         4.7200    3.6490   -2.8840 o         1 SN0     -0.827800
     16 HA          1.1990   -0.9220   -0.4250 hx        1 SN0      0.103700
     17 HB1         1.8850   -0.5560    1.9960 hc        1 SN0      0.074200
     18 HB2         1.9470    1.2260    1.7120 hc        1 SN0      0.074200
     19 HG1         3.5980   -0.9140    0.1900 hc        1 SN0      0.041700
     20 HG2         3.6570    0.8610   -0.1350 hc        1 SN0      0.041700
     21 HD1A        4.4160    1.2740    2.2270 hc        1 SN0      0.034033
     22 HD2         4.3620   -0.5070    2.5530 hc        1 SN0      0.034033
     23 HD3         5.5320    0.1590    1.3370 hc        1 SN0      0.034033
     24 HN1        -0.0930    1.2230   -1.0750 hn        1 SN0      0.457800
     25 H21         1.7540    3.0650   -2.6030 hc        1 SN0      0.104700
     26 H22         3.2390    2.4780   -1.7320 hc        1 SN0      0.104700
     27 H31         3.7170    1.0350   -3.8640 hc        1 SN0      0.048200
     28 H32         2.5060    2.0930   -4.6940 hc        1 SN0      0.048200
     29 H12         1.1980    2.0150   -0.3720 hn        1 SN0      0.457800
@<TRIPOS>BOND
     1    1    2 1   
     2    1    5 1   
     3    1    8 1   
     4    1   16 1   
     5    2    3 1   
     6    2    4 1   
     7    5    6 1   
     8    5   17 1   
     9    5   18 1   
    10    6    7 1   
    11    6   19 1   
    12    6   20 1   
    13    7   21 1   
    14    7   22 1   
    15    7   23 1   
    16    8    9 1   
    17    8   24 1   
    18    8   29 1   
    19    9   10 2   
    20    9   11 1   
    21   11   12 1   
    22   11   25 1   
    23   11   26 1   
    24   12   13 1   
    25   12   27 1   
    26   12   28 1   
    27   13   14 1   
    28   13   15 1   
@<TRIPOS>SUBSTRUCTURE
     1 SN0         1 TEMP              0 ****  ****    0 ROOT
