@<TRIPOS>MOLECULE
SN0
   29    28     1     0     0
SMALL
bcc


@<TRIPOS>ATOM
      1 CA          0.9980    0.0660    0.1940 c3        1 SN0     -0.048500
      2 C          -0.4140   -0.0800    0.9210 c         1 SN0      0.927600
      3 OXT        -1.3510    0.6140    0.4390 o         1 SN0     -0.783300
      4 O          -0.4540   -0.8780    1.8770 o         1 SN0     -0.783300
      5 CB          2.0880    0.2780    1.2300 c3        1 SN0     -0.092400
      6 CG          3.4830    0.1090    0.6680 c3        1 SN0     -0.093400
      7 CD          4.5290    0.2850    1.7380 c3        1 SN0     -0.089100
      8 N1          0.9200    1.1700   -0.8150 ny        1 SN0     -0.670800
      9 C1          1.7100    0.9600   -2.0800 c         1 SN0      0.545100
     10 O1          1.6510   -0.1530   -2.5880 o         1 SN0     -0.465100
     11 C2          2.4620    2.1680   -2.5470 c3        1 SN0     -0.151400
     12 C3          3.1800    1.9510   -3.8550 c3        1 SN0     -0.214400
     13 C4          4.2790    3.0330   -4.0180 c         1 SN0      0.916600
     14 OD1         4.6560    3.2950   -5.1890 o         1 SN0     -0.827800
     15 OD2         4.7260    3.5720   -2.9650 o         1 SN0     -0.827800
     16 HA          1.1730   -0.8950   -0.3670 hx        1 SN0      0.103700
     17 HB1         1.9030   -0.4890    2.0350 hc        1 SN0      0.074200
     18 HB2         1.9870    1.2860    1.7130 hc        1 SN0      0.074200
     19 HG1         3.5810   -0.9110    0.2110 hc        1 SN0      0.041700
     20 HG2         3.6620    0.8550   -0.1530 hc        1 SN0      0.041700
     21 HD1A        5.5500    0.1550    1.3040 hc        1 SN0      0.034033
     22 HD2         4.3890   -0.4660    2.5520 hc        1 SN0      0.034033
     23 HD3         4.4650    1.3060    2.1880 hc        1 SN0      0.034033
     24 HN1         1.2170    2.0430   -0.3760 hn        1 SN0      0.457800
     25 H21         3.2410    2.4500   -1.7720 hc        1 SN0      0.104700
     26 H22         1.7540    3.0350   -2.6410 hc        1 SN0      0.104700
     27 H31         3.6770    0.9500   -3.8730 hc        1 SN0      0.048200
     28 H32         2.4720    2.0060   -4.7160 hc        1 SN0      0.048200
     29 H12        -0.0960    1.2560   -1.0430 hn        1 SN0      0.457800
@<TRIPOS>BOND
     1    1    2 1   
     2    1    5 1   
     3    1    8 1   
     4    1   16 1   
     5    2    3 1   
     6    2    4 1   
     7    5    6 1   
     8    5   17 1   
     9    5   18 1   
    10    6    7 1   
    11    6   19 1   
    12    6   20 1   
    13    7   21 1   
    14    7   22 1   
    15    7   23 1   
    16    8    9 1   
    17    8   24 1   
    18    8   29 1   
    19    9   10 2   
    20    9   11 1   
    21   11   12 1   
    22   11   25 1   
    23   11   26 1   
    24   12   13 1   
    25   12   27 1   
    26   12   28 1   
    27   13   14 1   
    28   13   15 1   
@<TRIPOS>SUBSTRUCTURE
     1 SN0         1 TEMP              0 ****  ****    0 ROOT
