@<TRIPOS>MOLECULE
SN0
   28    27     1     0     0
SMALL
bcc


@<TRIPOS>ATOM
      1 CA          2.0750   -0.4920    0.0500 c3        1 SN0     -0.024300
      2 C           2.8110   -1.7080    0.7140 c         1 SN0      0.906600
      3 OXT         2.3440   -2.2190    1.7710 o         1 SN0     -0.848800
      4 O           3.8650   -2.1070    0.1430 o         1 SN0     -0.848800
      5 CB          2.9530    0.7470    0.2930 c3        1 SN0     -0.071400
      6 CG          2.6290    1.8790   -0.6560 c3        1 SN0     -0.088400
      7 CD          3.4500    3.1080   -0.3580 c3        1 SN0     -0.082100
      8 N1          0.7190   -0.3390    0.5230 n         1 SN0     -0.547900
      9 C1         -0.3290    0.0910   -0.2610 c         1 SN0      0.642100
     10 O1         -0.1320    0.5440   -1.4140 o         1 SN0     -0.674100
     11 C2         -1.7150    0.0510    0.3660 c3        1 SN0     -0.132400
     12 C3         -2.8120    0.3890   -0.6120 c3        1 SN0     -0.178400
     13 C4         -4.1570    0.6260    0.0880 c         1 SN0      0.903600
     14 OD1        -5.2110    0.2500   -0.5100 o         1 SN0     -0.866800
     15 OD2        -4.1800    1.2060    1.2140 o         1 SN0     -0.866800
     16 HA          2.0480   -0.6810   -1.0630 h1        1 SN0      0.055700
     17 HB1         4.0200    0.4280    0.1490 hc        1 SN0      0.037200
     18 HB2         2.8440    1.0950    1.3530 hc        1 SN0      0.037200
     19 HG1         1.5340    2.1230   -0.5930 hc        1 SN0      0.051200
     20 HG2         2.8200    1.5440   -1.7100 hc        1 SN0      0.051200
     21 HD1A        3.2400    3.4800    0.6740 hc        1 SN0      0.011033
     22 HD2         4.5410    2.8820   -0.4300 hc        1 SN0      0.011033
     23 HD3         3.2110    3.9240   -1.0810 hc        1 SN0      0.011033
     24 HN1         0.5210   -0.8300    1.3680 hn        1 SN0      0.320500
     25 H21        -1.8990   -0.9670    0.7990 hc        1 SN0      0.061700
     26 H22        -1.7510    0.7880    1.2140 hc        1 SN0      0.061700
     27 H31        -2.5440    1.3220   -1.1710 hc        1 SN0      0.034200
     28 H32        -2.9250   -0.4310   -1.3650 hc        1 SN0      0.034200
@<TRIPOS>BOND
     1    1    2 1   
     2    1    5 1   
     3    1    8 1   
     4    1   16 1   
     5    2    3 1   
     6    2    4 1   
     7    5    6 1   
     8    5   17 1   
     9    5   18 1   
    10    6    7 1   
    11    6   19 1   
    12    6   20 1   
    13    7   21 1   
    14    7   22 1   
    15    7   23 1   
    16    8    9 1   
    17    8   24 1   
    18    9   10 2   
    19    9   11 1   
    20   11   12 1   
    21   11   25 1   
    22   11   26 1   
    23   12   13 1   
    24   12   27 1   
    25   12   28 1   
    26   13   14 1   
    27   13   15 1   
@<TRIPOS>SUBSTRUCTURE
     1 SN0         1 TEMP              0 ****  ****    0 ROOT
