@<TRIPOS>MOLECULE
SN0
   29    28     1     0     0
SMALL
bcc


@<TRIPOS>ATOM
      1 CA          0.9970    0.0270    0.1520 c3        1 SN0     -0.048500
      2 C          -0.4260   -0.1550    0.8490 c         1 SN0      0.927600
      3 OXT        -1.3650    0.5300    0.3580 o         1 SN0     -0.783300
      4 O          -0.4710   -0.9680    1.7920 o         1 SN0     -0.783300
      5 CB          2.0630    0.2420    1.2120 c3        1 SN0     -0.092400
      6 CG          3.4710    0.1070    0.6750 c3        1 SN0     -0.093400
      7 CD          4.4930    0.2860    1.7690 c3        1 SN0     -0.089100
      8 N1          0.9190    1.1430   -0.8430 n4        1 SN0     -0.670800
      9 C1          1.7370    0.9660   -2.0950 c         1 SN0      0.545100
     10 O1          1.7070   -0.1410   -2.6190 o         1 SN0     -0.465100
     11 C2          2.4760    2.1940   -2.5300 c3        1 SN0     -0.151400
     12 C3          3.2210    2.0090   -3.8280 c3        1 SN0     -0.214400
     13 C4          4.3040    3.1120   -3.9550 c         1 SN0      0.916600
     14 OD1         4.6970    3.3990   -5.1140 o         1 SN0     -0.827800
     15 OD2         4.7230    3.6420   -2.8850 o         1 SN0     -0.827800
     16 HA          1.2010   -0.9230   -0.4190 hx        1 SN0      0.103700
     17 HB1         1.9350    1.2410    1.7070 hc        1 SN0      0.074200
     18 HB2         1.8760   -0.5390    2.0020 hc        1 SN0      0.074200
     19 HG1         3.5970   -0.9050    0.2060 hc        1 SN0      0.041700
     20 HG2         3.6530    0.8680   -0.1300 hc        1 SN0      0.041700
     21 HD1A        4.3510   -0.4810    2.5690 hc        1 SN0      0.034033
     22 HD2         4.4020    1.2980    2.2320 hc        1 SN0      0.034033
     23 HD3         5.5240    0.1800    1.3540 hc        1 SN0      0.034033
     24 HN1        -0.0930    1.2150   -1.0890 hn        1 SN0      0.457800
     25 H21         1.7560    3.0500   -2.6230 hc        1 SN0      0.104700
     26 H22         3.2360    2.4760   -1.7370 hc        1 SN0      0.104700
     27 H31         2.5280    2.0640   -4.7010 hc        1 SN0      0.048200
     28 H32         3.7360    1.0170   -3.8520 hc        1 SN0      0.048200
     29 H12         1.1920    2.0150   -0.3850 hn        1 SN0      0.457800
@<TRIPOS>BOND
     1    1    2 1   
     2    1    5 1   
     3    1    8 1   
     4    1   16 1   
     5    2    3 1   
     6    2    4 1   
     7    5    6 1   
     8    5   17 1   
     9    5   18 1   
    10    6    7 1   
    11    6   19 1   
    12    6   20 1   
    13    7   21 1   
    14    7   22 1   
    15    7   23 1   
    16    8    9 1   
    17    8   24 1   
    18    8   29 1   
    19    9   10 2   
    20    9   11 1   
    21   11   12 1   
    22   11   25 1   
    23   11   26 1   
    24   12   13 1   
    25   12   27 1   
    26   12   28 1   
    27   13   14 1   
    28   13   15 1   
@<TRIPOS>SUBSTRUCTURE
     1 SN0         1 TEMP              0 ****  ****    0 ROOT
