@<TRIPOS>MOLECULE
SN1
   20    20     1     0     0
SMALL
bcc


@<TRIPOS>ATOM
      1 CA2         0.4130    0.5820   -0.6480 ce        1 SN1     -0.140200
      2 CB2         1.5300    0.9570   -0.0180 cf        1 SN1     -0.197200
      3 CG          2.0890    0.4040    1.2050 ca        1 SN1     -0.103800
      4 CD1         3.4880    0.3120    1.3700 ca        1 SN1      0.140100
      5 CE1         4.0590   -0.1360    2.5690 ca        1 SN1     -0.258000
      6 CD2         1.2700   -0.0130    2.2640 ca        1 SN1     -0.054000
      7 CE2         1.8130   -0.4670    3.4620 ca        1 SN1     -0.191000
      8 CZ          3.2060   -0.5150    3.6100 ca        1 SN1      0.119100
      9 OH1         3.6930   -0.9540    4.8270 oh        1 SN1     -0.514100
     10 OH2         4.3860    0.6670    0.3830 oh        1 SN1     -0.526100
     11 C2         -0.5420   -0.5400   -0.3070 c         1 SN1      0.898800
     12 O2         -0.5320   -1.5560   -1.0550 o         1 SN1     -0.830800
     13 O1         -1.3360   -0.3800    0.6660 o         1 SN1     -0.830800
     14 HA2         0.1130    1.1210   -1.5640 ha        1 SN1      0.098000
     15 HB2         2.1160    1.8040   -0.4250 ha        1 SN1      0.080000
     16 HE1         5.1500   -0.1900    2.6700 ha        1 SN1      0.129000
     17 HD2         0.1690    0.0050    2.1180 ha        1 SN1      0.209000
     18 HE2         1.1650   -0.7930    4.2860 ha        1 SN1      0.140000
     19 HH1         4.6570   -0.9860    4.7570 ho        1 SN1      0.404000
     20 HH2         3.8960    0.7160   -0.4520 ho        1 SN1      0.427000
@<TRIPOS>BOND
     1    1    2 2   
     2    1   11 1   
     3    1   14 1   
     4    2    3 1   
     5    2   15 1   
     6    3    4 ar  
     7    3    6 ar  
     8    4    5 ar  
     9    4   10 1   
    10    5    8 ar  
    11    5   16 1   
    12    6    7 ar  
    13    6   17 1   
    14    7    8 ar  
    15    7   18 1   
    16    8    9 1   
    17    9   19 1   
    18   10   20 1   
    19   11   12 1   
    20   11   13 1   
@<TRIPOS>SUBSTRUCTURE
     1 SN1         1 TEMP              0 ****  ****    0 ROOT
