@<TRIPOS>MOLECULE
SN1
   20    20     1     0     0
SMALL
bcc


@<TRIPOS>ATOM
      1 CA2         0.4430    0.6110   -0.6630 ce        1 SN1     -0.140200
      2 CB2         1.5740    0.9490   -0.0370 cf        1 SN1     -0.197200
      3 CG          2.1070    0.3960    1.1970 ca        1 SN1     -0.103800
      4 CD1         3.5000    0.2480    1.3680 ca        1 SN1      0.140100
      5 CE1         4.0500   -0.2020    2.5760 ca        1 SN1     -0.258000
      6 CD2         1.2690    0.0350    2.2620 ca        1 SN1     -0.054000
      7 CE2         1.7890   -0.4190    3.4700 ca        1 SN1     -0.191000
      8 CZ          3.1780   -0.5240    3.6220 ca        1 SN1      0.119100
      9 OH1         3.6440   -0.9610    4.8490 oh        1 SN1     -0.514100
     10 OH2         4.4140    0.5450    0.3770 oh        1 SN1     -0.526100
     11 C2         -0.5590   -0.4620   -0.3030 c         1 SN1      0.898800
     12 O2         -0.5910   -1.4920   -1.0330 o         1 SN1     -0.830800
     13 O1         -1.3470   -0.2510    0.6640 o         1 SN1     -0.830800
     14 HA2         0.1680    1.1450   -1.5900 ha        1 SN1      0.098000
     15 HB2         2.1960    1.7620   -0.4580 ha        1 SN1      0.080000
     16 HE1         5.1360   -0.3010    2.6820 ha        1 SN1      0.129000
     17 HD2         0.1690    0.0970    2.1130 ha        1 SN1      0.209000
     18 HE2         1.1260   -0.7010    4.2980 ha        1 SN1      0.140000
     19 HH1         4.6060   -1.0350    4.7820 ho        1 SN1      0.404000
     20 HH2         3.9290    0.5990   -0.4600 ho        1 SN1      0.427000
@<TRIPOS>BOND
     1    1    2 2   
     2    1   11 1   
     3    1   14 1   
     4    2    3 1   
     5    2   15 1   
     6    3    4 ar  
     7    3    6 ar  
     8    4    5 ar  
     9    4   10 1   
    10    5    8 ar  
    11    5   16 1   
    12    6    7 ar  
    13    6   17 1   
    14    7    8 ar  
    15    7   18 1   
    16    8    9 1   
    17    9   19 1   
    18   10   20 1   
    19   11   12 1   
    20   11   13 1   
@<TRIPOS>SUBSTRUCTURE
     1 SN1         1 TEMP              0 ****  ****    0 ROOT
