@<TRIPOS>MOLECULE
SN1
   20    20     1     0     0
SMALL
bcc


@<TRIPOS>ATOM
      1 CA2         0.4270   -0.2640    2.0620 ce        1 SN1     -0.155200
      2 CB2        -0.3380    0.1670    1.0530 cf        1 SN1     -0.199200
      3 CG         -0.0030    0.0620   -0.3560 ca        1 SN1     -0.108800
      4 CD1        -1.0030   -0.2050   -1.3190 ca        1 SN1      0.156100
      5 CE1        -0.7020   -0.2780   -2.6860 ca        1 SN1     -0.252000
      6 CD2         1.3120    0.2330   -0.8060 ca        1 SN1     -0.074000
      7 CE2         1.6400    0.1610   -2.1570 ca        1 SN1     -0.195000
      8 CZ          0.6250   -0.0900   -3.0900 ca        1 SN1      0.121100
      9 OH1         0.9980   -0.1460   -4.4190 oh        1 SN1     -0.513100
     10 OH2        -2.3230   -0.4110   -0.9940 oh        1 SN1     -0.518100
     11 C2          0.0140   -0.1170    3.5130 c         1 SN1      0.889800
     12 O2         -1.1770    0.2170    3.7750 o         1 SN1     -0.831300
     13 O1          0.8970   -0.3480    4.3870 o         1 SN1     -0.831300
     14 HA2         1.4010   -0.7510    1.9010 ha        1 SN1      0.103000
     15 HB2        -1.3010    0.6560    1.2930 ha        1 SN1      0.139000
     16 HE1        -1.4990   -0.4830   -3.4120 ha        1 SN1      0.136000
     17 HD2         2.1020    0.4330   -0.0640 ha        1 SN1      0.144000
     18 HE2         2.6730    0.2990   -2.5000 ha        1 SN1      0.136000
     19 HH1         0.2020   -0.3290   -4.9360 ho        1 SN1      0.408000
     20 HH2        -2.3970   -0.4330   -0.0260 ho        1 SN1      0.445000
@<TRIPOS>BOND
     1    1    2 2   
     2    1   11 1   
     3    1   14 1   
     4    2    3 1   
     5    2   15 1   
     6    3    4 ar  
     7    3    6 ar  
     8    4    5 ar  
     9    4   10 1   
    10    5    8 ar  
    11    5   16 1   
    12    6    7 ar  
    13    6   17 1   
    14    7    8 ar  
    15    7   18 1   
    16    8    9 1   
    17    9   19 1   
    18   10   20 1   
    19   11   12 1   
    20   11   13 1   
@<TRIPOS>SUBSTRUCTURE
     1 SN1         1 TEMP              0 ****  ****    0 ROOT
