@<TRIPOS>MOLECULE
SN2
   34    34     1     0     0
SMALL
bcc


@<TRIPOS>ATOM
      1 C1          0.7900   -0.5090    1.9060 ca        1 SN2      0.293600
      2 C2          0.7790   -0.9830    0.5570 ca        1 SN2     -0.180000
      3 C3          1.9190   -1.4300   -0.0840 ca        1 SN2     -0.006600
      4 C4          3.1520   -1.4330    0.6010 ca        1 SN2     -0.214200
      5 C5          3.1910   -1.0830    1.9520 ca        1 SN2      0.017000
      6 C6          2.0210   -0.6730    2.6110 ca        1 SN2     -0.249200
      7 C7         -1.6470   -0.4650    2.0840 c3        1 SN2      0.199800
      8 C8         -0.2890    1.0970    3.4520 c3        1 SN2      0.199800
      9 C9         -2.3710    0.2660    0.9500 c3        1 SN2      0.002000
     10 C10        -1.2800    2.2440    3.2380 c3        1 SN2      0.002000
     11 C13         1.7520   -1.9480   -1.4870 c         1 SN2      0.649700
     12 O1          5.3250   -2.2220    0.6270 o         1 SN2     -0.201000
     13 O2          1.2010   -0.8240    4.7810 o         1 SN2     -0.196000
     14 O3          4.5240   -1.7260   -1.2530 o         1 SN2     -0.201000
     15 O4          1.2060   -3.0500   -1.6830 o         1 SN2     -0.569100
     16 O5          3.1550   -0.0830    4.5410 o         1 SN2     -0.196000
     17 N1          4.4210   -1.8310   -0.0600 no        1 SN2      0.326200
     18 N2          2.1270   -0.5040    4.0850 no        1 SN2      0.317200
     19 N3         -0.3490    0.0750    2.4290 nh        1 SN2     -0.681000
     20 N4          2.1000   -1.1080   -2.5220 n         1 SN2     -0.614000
     21 CL1        -1.0260    3.4690    4.4590 cl        1 SN2     -0.156900
     22 CL2        -3.9120   -0.5030    0.6490 cl        1 SN2     -0.156900
     23 HC2        -0.1710   -0.9990   -0.0060 ha        1 SN2      0.172000
     24 HC5         4.1460   -1.1450    2.5150 ha        1 SN2      0.203000
     25 HC71       -1.5320   -1.5520    1.7960 h1        1 SN2      0.079950
     26 HC72       -2.2930   -0.4260    3.0100 h1        1 SN2      0.079950
     27 HC81       -0.4920    0.6310    4.4630 h1        1 SN2      0.079950
     28 HC82        0.7470    1.5440    3.4610 h1        1 SN2      0.079950
     29 HC91       -1.7970    0.2340   -0.0060 h1        1 SN2      0.073200
     30 HC92       -2.5850    1.3300    1.2130 h1        1 SN2      0.073200
     31 H101       -2.3360    1.8980    3.3420 h1        1 SN2      0.073200
     32 H102       -1.1350    2.7380    2.2470 h1        1 SN2      0.073200
     33 HN41        2.8090   -0.4330   -2.3510 hn        1 SN2      0.312000
     34 HN42        2.0930   -1.5050   -3.4350 hn        1 SN2      0.312000
@<TRIPOS>BOND
     1    1    2 ar  
     2    1    6 ar  
     3    1   19 1   
     4    2    3 ar  
     5    2   23 1   
     6    3    4 ar  
     7    3   11 1   
     8    4    5 ar  
     9    4   17 1   
    10    5    6 ar  
    11    5   24 1   
    12    6   18 1   
    13    7    9 1   
    14    7   19 1   
    15    7   25 1   
    16    7   26 1   
    17    8   10 1   
    18    8   19 1   
    19    8   27 1   
    20    8   28 1   
    21    9   22 1   
    22    9   29 1   
    23    9   30 1   
    24   10   21 1   
    25   10   31 1   
    26   10   32 1   
    27   11   15 2   
    28   11   20 1   
    29   12   17 1   
    30   13   18 1   
    31   14   17 1   
    32   16   18 1   
    33   20   33 1   
    34   20   34 1   
@<TRIPOS>SUBSTRUCTURE
     1 SN2         1 TEMP              0 ****  ****    0 ROOT
