@<TRIPOS>MOLECULE
SN2
   35    35     1     0     0
SMALL
bcc


@<TRIPOS>ATOM
      1 C1          0.0400   -0.0280    0.0350 ca        1 SN2      0.306600
      2 C2          1.3770   -0.5260    0.2370 ca        1 SN2     -0.169000
      3 C3          2.0340   -0.3770    1.4380 ca        1 SN2     -0.068600
      4 C4          1.4030    0.2590    2.5340 ca        1 SN2     -0.234200
      5 C5          0.0600    0.6250    2.4230 ca        1 SN2      0.047000
      6 C6         -0.6270    0.4240    1.2170 ca        1 SN2     -0.245200
      7 C7         -0.1800   -1.0500   -2.1810 c3        1 SN2      0.181300
      8 C8         -1.5420    0.9390   -1.5980 c3        1 SN2      0.181300
      9 C9          0.8110   -0.7310   -3.2950 c3        1 SN2      0.005500
     10 C10        -1.4140    1.5200   -3.0070 c3        1 SN2      0.005500
     11 C13         3.3860   -0.9640    1.5820 c         1 SN2      0.581700
     12 O1          1.5470    0.8570    4.7680 o         1 SN2     -0.195500
     13 O2         -2.8010   -0.1210    0.6260 o         1 SN2     -0.168000
     14 O3          3.3370    0.3280    3.7880 o         1 SN2     -0.195500
     15 O4          3.6950   -2.1090    1.8550 o         1 SN2     -0.359100
     16 O5         -2.5410    1.4740    1.9840 o         1 SN2     -0.168000
     17 N1          2.1350    0.4980    3.7990 no        1 SN2      0.332200
     18 N2         -2.1090    0.6160    1.2700 no        1 SN2      0.319200
     19 N3         -0.4770    0.0130   -1.2360 nh        1 SN2     -0.641000
     20 N4          4.5340   -0.0110    1.3300 nz        1 SN2     -0.756400
     21 Cl1        -2.7050    2.6610   -3.2710 cl        1 SN2     -0.160900
     22 Cl2         2.4950   -0.8170   -2.7980 cl        1 SN2     -0.160900
     23 HC2         1.8890   -1.0340   -0.6050 ha        1 SN2      0.188000
     24 HC5        -0.4730    1.0590    3.2990 ha        1 SN2      0.223000
     25 HC71        0.1690   -1.9660   -1.6210 h1        1 SN2      0.091700
     26 HC72       -1.1580   -1.3240   -2.6860 h1        1 SN2      0.091700
     27 HC81       -2.5410    0.4100   -1.5170 h1        1 SN2      0.091700
     28 HC82       -1.5260    1.8070   -0.8770 h1        1 SN2      0.091700
     29 HC91        0.6950   -1.4990   -4.1020 h1        1 SN2      0.087200
     30 HC92        0.6710    0.2900   -3.7250 h1        1 SN2      0.087200
     31 H101       -0.4540    2.0750   -3.1400 h1        1 SN2      0.087200
     32 H102       -1.5120    0.7290   -3.7900 h1        1 SN2      0.087200
     33 HN41        4.3850    0.5120    0.4640 hn        1 SN2      0.478800
     34 HN42        4.5880    0.6500    2.1240 hn        1 SN2      0.478800
     35 H43         5.4180   -0.5300    1.2760 hn        1 SN2      0.478800
@<TRIPOS>BOND
     1    1    2 ar  
     2    1    6 ar  
     3    1   19 1   
     4    2    3 ar  
     5    2   23 1   
     6    3    4 ar  
     7    3   11 1   
     8    4    5 ar  
     9    4   17 1   
    10    5    6 ar  
    11    5   24 1   
    12    6   18 1   
    13    7    9 1   
    14    7   19 1   
    15    7   25 1   
    16    7   26 1   
    17    8   10 1   
    18    8   19 1   
    19    8   27 1   
    20    8   28 1   
    21    9   22 1   
    22    9   29 1   
    23    9   30 1   
    24   10   21 1   
    25   10   31 1   
    26   10   32 1   
    27   11   15 2   
    28   11   20 1   
    29   12   17 1   
    30   13   18 1   
    31   14   17 1   
    32   16   18 1   
    33   20   33 1   
    34   20   34 1   
    35   20   35 1   
@<TRIPOS>SUBSTRUCTURE
     1 SN2         1 TEMP              0 ****  ****    0 ROOT
