@<TRIPOS>MOLECULE
SN2
   34    34     1     0     0
SMALL
bcc


@<TRIPOS>ATOM
      1 C1          0.0490   -0.0090    0.0340 ca        1 SN2      0.293600
      2 C2          1.3870   -0.4720    0.2320 ca        1 SN2     -0.180000
      3 C3          2.0570   -0.3220    1.4330 ca        1 SN2     -0.006600
      4 C4          1.4120    0.3040    2.5200 ca        1 SN2     -0.214200
      5 C5          0.0690    0.6730    2.4060 ca        1 SN2      0.017000
      6 C6         -0.6190    0.4760    1.1990 ca        1 SN2     -0.249200
      7 C7         -0.2060   -1.1630   -2.1060 c3        1 SN2      0.199800
      8 C8         -1.4980    0.9100   -1.6670 c3        1 SN2      0.199800
      9 C9          0.9170   -0.9190   -3.1170 c3        1 SN2      0.002000
     10 C10        -1.2940    1.4140   -3.0980 c3        1 SN2      0.002000
     11 C13         3.4430   -0.9010    1.5170 c         1 SN2      0.649700
     12 O1          1.4410    0.6860    4.8000 o         1 SN2     -0.201000
     13 O2         -2.8170    0.0140    0.5990 o         1 SN2     -0.196000
     14 O3          3.3030    0.6620    3.8240 o         1 SN2     -0.201000
     15 O4          3.5990   -2.1350    1.5800 o         1 SN2     -0.569100
     16 O5         -2.4980    1.6110    1.9310 o         1 SN2     -0.196000
     17 N1          2.1050    0.5590    3.8080 no        1 SN2      0.326200
     18 N2         -2.0850    0.7240    1.2340 no        1 SN2      0.317200
     19 N3         -0.4980   -0.0430   -1.2350 nh        1 SN2     -0.681000
     20 N4          4.5050   -0.0330    1.3870 n         1 SN2     -0.614000
     21 CL1        -2.4820    2.6450   -3.4570 cl        1 SN2     -0.156900
     22 CL2         1.1530   -2.3560   -4.0850 cl        1 SN2     -0.156900
     23 HC2         1.9190   -0.9710   -0.5970 ha        1 SN2      0.172000
     24 HC5        -0.4630    1.1070    3.2790 ha        1 SN2      0.203000
     25 HC71        0.0630   -2.0610   -1.4760 h1        1 SN2      0.079950
     26 HC72       -1.1520   -1.4160   -2.6700 h1        1 SN2      0.079950
     27 HC81       -2.5240    0.4380   -1.5960 h1        1 SN2      0.079950
     28 HC82       -1.4650    1.8080   -0.9860 h1        1 SN2      0.079950
     29 HC91        1.8910   -0.6980   -2.6190 h1        1 SN2      0.073200
     30 HC92        0.6690   -0.0900   -3.8220 h1        1 SN2      0.073200
     31 H101       -1.4400    0.5970   -3.8450 h1        1 SN2      0.073200
     32 H102       -0.2890    1.8820   -3.2330 h1        1 SN2      0.073200
     33 HN41        4.3700    0.9090    1.6750 hn        1 SN2      0.312000
     34 HN42        5.4090   -0.4130    1.5590 hn        1 SN2      0.312000
@<TRIPOS>BOND
     1    1    2 ar  
     2    1    6 ar  
     3    1   19 1   
     4    2    3 ar  
     5    2   23 1   
     6    3    4 ar  
     7    3   11 1   
     8    4    5 ar  
     9    4   17 1   
    10    5    6 ar  
    11    5   24 1   
    12    6   18 1   
    13    7    9 1   
    14    7   19 1   
    15    7   25 1   
    16    7   26 1   
    17    8   10 1   
    18    8   19 1   
    19    8   27 1   
    20    8   28 1   
    21    9   22 1   
    22    9   29 1   
    23    9   30 1   
    24   10   21 1   
    25   10   31 1   
    26   10   32 1   
    27   11   15 2   
    28   11   20 1   
    29   12   17 1   
    30   13   18 1   
    31   14   17 1   
    32   16   18 1   
    33   20   33 1   
    34   20   34 1   
@<TRIPOS>SUBSTRUCTURE
     1 SN2         1 TEMP              0 ****  ****    0 ROOT
