@<TRIPOS>MOLECULE
SN2
   35    35     1     0     0
SMALL
bcc


@<TRIPOS>ATOM
      1 C1          0.0410   -0.0320    0.0350 ca        1 SN2      0.306600
      2 C2          1.3810   -0.5230    0.2340 ca        1 SN2     -0.169000
      3 C3          2.0380   -0.3760    1.4350 ca        1 SN2     -0.067600
      4 C4          1.4040    0.2530    2.5340 ca        1 SN2     -0.234200
      5 C5          0.0590    0.6130    2.4250 ca        1 SN2      0.047000
      6 C6         -0.6280    0.4130    1.2190 ca        1 SN2     -0.245200
      7 C7         -0.1750   -1.0460   -2.1850 c3        1 SN2      0.181300
      8 C8         -1.5470    0.9330   -1.5930 c3        1 SN2      0.181300
      9 C9          0.8140   -0.7170   -3.2990 c3        1 SN2      0.005500
     10 C10        -1.4240    1.5200   -3.0010 c3        1 SN2      0.005500
     11 C13         3.3930   -0.9570    1.5760 c         1 SN2      0.581700
     12 O1          1.5470    0.8440    4.7700 o         1 SN2     -0.195500
     13 O2         -2.7990   -0.1420    0.6280 o         1 SN2     -0.168000
     14 O3          3.3380    0.3270    3.7870 o         1 SN2     -0.195500
     15 O4          3.7080   -2.1000    1.8450 o         1 SN2     -0.359100
     16 O5         -2.5460    1.4490    1.9920 o         1 SN2     -0.168000
     17 N1          2.1360    0.4910    3.7990 no        1 SN2      0.332200
     18 N2         -2.1100    0.5960    1.2740 no        1 SN2      0.319200
     19 N3         -0.4770    0.0120   -1.2360 nh        1 SN2     -0.641000
     20 N4          4.5350    0.0040    1.3260 n4        1 SN2     -0.756400
     21 CL1        -2.7210    2.6550   -3.2580 cl        1 SN2     -0.160900
     22 CL2         2.4980   -0.7960   -2.8030 cl        1 SN2     -0.160900
     23 HC2         1.8950   -1.0260   -0.6100 ha        1 SN2      0.188000
     24 HC5        -0.4750    1.0400    3.3040 ha        1 SN2      0.223000
     25 HC71       -1.1520   -1.3230   -2.6900 h1        1 SN2      0.091700
     26 HC72        0.1790   -1.9630   -1.6290 h1        1 SN2      0.091700
     27 HC81       -2.5430    0.3980   -1.5140 h1        1 SN2      0.091700
     28 HC82       -1.5350    1.7980   -0.8690 h1        1 SN2      0.091700
     29 HC91        0.6680    0.3040   -3.7240 h1        1 SN2      0.087200
     30 HC92        0.7000   -1.4830   -4.1080 h1        1 SN2      0.087200
     31 H101       -0.4670    2.0810   -3.1320 h1        1 SN2      0.087200
     32 H102       -1.5180    0.7320   -3.7860 h1        1 SN2      0.087200
     33 HN41        4.5870    0.6620    2.1230 hn        1 SN2      0.478800
     34 HN42        5.4230   -0.5110    1.2700 hn        1 SN2      0.478800
     35 H43         4.3830    0.5290    0.4630 hn        1 SN2      0.478800
@<TRIPOS>BOND
     1    1    2 ar  
     2    1    6 ar  
     3    1   19 1   
     4    2    3 ar  
     5    2   23 1   
     6    3    4 ar  
     7    3   11 1   
     8    4    5 ar  
     9    4   17 1   
    10    5    6 ar  
    11    5   24 1   
    12    6   18 1   
    13    7    9 1   
    14    7   19 1   
    15    7   25 1   
    16    7   26 1   
    17    8   10 1   
    18    8   19 1   
    19    8   27 1   
    20    8   28 1   
    21    9   22 1   
    22    9   29 1   
    23    9   30 1   
    24   10   21 1   
    25   10   31 1   
    26   10   32 1   
    27   11   15 2   
    28   11   20 1   
    29   12   17 1   
    30   13   18 1   
    31   14   17 1   
    32   16   18 1   
    33   20   33 1   
    34   20   34 1   
    35   20   35 1   
@<TRIPOS>SUBSTRUCTURE
     1 SN2         1 TEMP              0 ****  ****    0 ROOT
