@<TRIPOS>MOLECULE
SN5
   31    31     1     0     0
SMALL
bcc


@<TRIPOS>ATOM
      1 C1          0.2250   -0.3210    0.0420 c3        1 SN5      0.349900
      2 S7          3.5650   -0.0600   -2.6550 s         1 SN5      0.034600
      3 C2          1.7760   -0.1540    0.1040 c3        1 SN5      0.054500
      4 C3          2.1490   -0.0370    1.6010 c3        1 SN5      0.092100
      5 C4          1.4160    1.1920    2.1800 c3        1 SN5      0.084100
      6 C5         -0.0980    1.0050    1.9990 c3        1 SN5      0.108100
      7 C6         -0.8820    2.2480    2.4360 c3        1 SN5      0.134400
      8 C7          2.6500   -1.1090   -2.0590 c         1 SN5      0.134400
      9 C8          1.8040   -2.0960   -2.7900 c3        1 SN5     -0.181100
     10 N2          2.5220   -1.2670   -0.5630 n4        1 SN5     -0.608800
     11 O3          3.5530    0.0820    1.6820 oh        1 SN5     -0.618800
     12 O4          1.8030    1.3690    3.5210 oh        1 SN5     -0.567800
     13 O5         -0.3840    0.8200    0.6060 os        1 SN5     -0.422600
     14 O6         -1.9990    1.7620    3.1580 oh        1 SN5     -0.601800
     15 O1         -0.1970   -0.3080   -1.2900 oh        1 SN5     -0.616800
     16 H81C        2.0530   -3.1510   -2.5070 hc        1 SN5      0.103367
     17 H82C        1.9660   -1.9850   -3.8930 hc        1 SN5      0.103367
     18 H83C        0.7130   -1.9170   -2.5810 hc        1 SN5      0.103367
     19 H2          3.4730   -1.2770   -0.1540 hn        1 SN5      0.459800
     20 HA          2.0640    0.8040   -0.4240 hx        1 SN5      0.135700
     21 H1         -0.1050   -1.2730    0.5450 h2        1 SN5      0.075700
     22 H3          1.8380   -0.9670    2.1590 h1        1 SN5      0.062700
     23 HB         -0.8760    0.3800   -1.4080 ho        1 SN5      0.472000
     24 HC          3.7650    0.6220    2.4620 ho        1 SN5      0.467000
     25 H4          1.7700    2.1270    1.6560 h1        1 SN5      0.113700
     26 HD          1.2810    0.7720    4.0770 ho        1 SN5      0.427000
     27 H5         -0.4570    0.1050    2.5750 h1        1 SN5      0.085700
     28 H61C       -0.2390    2.8790    3.1080 h1        1 SN5      0.063200
     29 H62C       -1.2040    2.8420    1.5400 h1        1 SN5      0.063200
     30 H6         -2.6130    2.4990    3.2650 ho        1 SN5      0.430000
     31 H22         2.0580   -2.1550   -0.3430 hn        1 SN5      0.459800
@<TRIPOS>BOND
     1    1    3 1   
     2    1   13 1   
     3    1   15 1   
     4    1   21 1   
     5    2    8 2   
     6    3    4 1   
     7    3   10 1   
     8    3   20 1   
     9    4    5 1   
    10    4   11 1   
    11    4   22 1   
    12    5    6 1   
    13    5   12 1   
    14    5   25 1   
    15    6    7 1   
    16    6   13 1   
    17    6   27 1   
    18    7   14 1   
    19    7   28 1   
    20    7   29 1   
    21    8    9 1   
    22    8   10 1   
    23    9   16 1   
    24    9   17 1   
    25    9   18 1   
    26   10   19 1   
    27   10   31 1   
    28   11   24 1   
    29   12   26 1   
    30   14   30 1   
    31   15   23 1   
@<TRIPOS>SUBSTRUCTURE
     1 SN5         1 TEMP              0 ****  ****    0 ROOT
