@<TRIPOS>MOLECULE
SN5
   31    31     1     0     0
SMALL
bcc


@<TRIPOS>ATOM
      1 C1          0.1880   -0.2680   -0.0340 c3        1 SN5      0.353900
      2 S7          3.6860   -0.0710   -2.5360 s         1 SN5      0.035600
      3 C2          1.7390   -0.1740    0.1070 c3        1 SN5      0.052500
      4 C3          2.0350   -0.1220    1.6240 c3        1 SN5      0.127100
      5 C4          1.3380    1.1230    2.2070 c3        1 SN5      0.099100
      6 C5         -0.1690    1.0870    1.9010 c3        1 SN5      0.071100
      7 C6         -0.8420    2.4270    2.2450 c3        1 SN5      0.131400
      8 C7          2.6960   -1.1010   -2.0330 c         1 SN5      0.132400
      9 C8          1.8600   -2.0300   -2.8480 c3        1 SN5     -0.181100
     10 N2          2.4680   -1.3020   -0.5550 ny        1 SN5     -0.608800
     11 O3          3.4390   -0.0610    1.7720 oh        1 SN5     -0.622800
     12 O4          1.5750    1.0430    3.5980 oh        1 SN5     -0.601800
     13 O5         -0.3930    0.9020    0.4980 os        1 SN5     -0.425600
     14 O6         -0.6710    2.6950    3.6180 oh        1 SN5     -0.593800
     15 O1         -0.1750   -0.2420   -1.3830 oh        1 SN5     -0.615800
     16 H81C        2.0930   -1.8860   -3.9360 hc        1 SN5      0.103700
     17 H82C        0.7660   -1.8190   -2.6970 hc        1 SN5      0.103700
     18 H83C        2.0570   -3.1020   -2.5910 hc        1 SN5      0.103700
     19 H2          1.9450   -2.1700   -0.3960 hn        1 SN5      0.460300
     20 HA          2.0990    0.7850   -0.3730 hx        1 SN5      0.135700
     21 H1         -0.2110   -1.2030    0.4510 h2        1 SN5      0.078700
     22 H3          1.6470   -1.0460    2.1420 h1        1 SN5      0.073700
     23 HB         -0.7390    0.5320   -1.5540 ho        1 SN5      0.470000
     24 HC          3.6230    0.2330    2.6800 ho        1 SN5      0.469000
     25 H4          1.7990    2.0570    1.7810 h1        1 SN5      0.076700
     26 HD          1.2340    1.8570    4.0030 ho        1 SN5      0.458000
     27 H5         -0.6510    0.2470    2.4720 h1        1 SN5      0.073700
     28 H61C       -1.9230    2.3930    1.9510 h1        1 SN5      0.078700
     29 H62C       -0.3310    3.2710    1.7080 h1        1 SN5      0.078700
     30 H6         -1.3510    2.2130    4.1050 ho        1 SN5      0.423000
     31 H22         3.3890   -1.3760   -0.0890 hn        1 SN5      0.460300
@<TRIPOS>BOND
     1    1    3 1   
     2    1   13 1   
     3    1   15 1   
     4    1   21 1   
     5    2    8 2   
     6    3    4 1   
     7    3   10 1   
     8    3   20 1   
     9    4    5 1   
    10    4   11 1   
    11    4   22 1   
    12    5    6 1   
    13    5   12 1   
    14    5   25 1   
    15    6    7 1   
    16    6   13 1   
    17    6   27 1   
    18    7   14 1   
    19    7   28 1   
    20    7   29 1   
    21    8    9 1   
    22    8   10 1   
    23    9   16 1   
    24    9   17 1   
    25    9   18 1   
    26   10   19 1   
    27   10   31 1   
    28   11   24 1   
    29   12   26 1   
    30   14   30 1   
    31   15   23 1   
@<TRIPOS>SUBSTRUCTURE
     1 SN5         1 TEMP              0 ****  ****    0 ROOT
