@<TRIPOS>MOLECULE
SN5
   30    29     1     0     0
SMALL
bcc


@<TRIPOS>ATOM
      1 C1         -1.2560   -0.3100   -0.5840 c3        1 SN5      0.155000
      2 S7          1.4530    0.1740   -3.3970 s         1 SN5     -0.218000
      3 C2          0.1920   -0.1980   -0.6430 c3        1 SN5     -0.055000
      4 C3          0.8140   -0.0920    0.6080 c3        1 SN5      0.026000
      5 C4          0.2330    0.9770    1.4690 c3        1 SN5     -0.034000
      6 C5         -1.3470    0.8560    1.6870 c3        1 SN5     -0.039000
      7 C6         -1.8330    1.9470    2.2780 c3        1 SN5     -0.011000
      8 C7          1.4410   -1.3030   -2.6110 c1        1 SN5      0.026000
      9 C8          2.2210   -2.4650   -3.1780 c2        1 SN5     -0.229000
     10 N2          0.7470   -1.4450   -1.3600 n3        1 SN5     -0.275000
     11 O3          2.2880    0.2080    0.3920 oh        1 SN5     -0.325000
     12 O4          0.8650    0.9340    2.7310 oh        1 SN5     -0.330000
     13 O5         -1.8930    0.7250    0.2130 os        1 SN5     -0.305000
     14 O6         -3.2630    1.8160    2.4220 oh        1 SN5     -0.319000
     15 O1         -1.7760   -0.2400   -1.9190 oh        1 SN5     -0.299000
     16 H81C        1.6450   -2.9920   -3.7490 ha        1 SN5      0.110000
     17 H82C        2.9680   -2.1310   -3.6940 ha        1 SN5      0.110000
     18 H83C        2.5510   -3.0180   -2.4530 ha        1 SN5      0.110000
     19 H2          0.6830   -2.2470   -0.9730 hn        1 SN5      0.231000
     20 HA          0.4190    0.5830   -1.1650 h1        1 SN5      0.155000
     21 H1         -1.4860   -1.1770   -0.2050 h2        1 SN5      0.120000
     22 H3          0.7310   -0.9520    1.0740 h1        1 SN5      0.094000
     23 HB         -2.6460   -0.3730   -1.9010 ho        1 SN5      0.239000
     24 HC          2.7750   -0.1920    1.0400 ho        1 SN5      0.228000
     25 H4          0.4210    1.8340    1.0600 h1        1 SN5      0.107000
     26 HD          1.2710    1.7220    2.8910 ho        1 SN5      0.215000
     27 H5         -1.5670    0.0360    2.2190 h1        1 SN5      0.109000
     28 H61C       -1.6290    2.7380    1.7290 h1        1 SN5      0.091500
     29 H62C       -1.4280    2.0480    3.1500 h1        1 SN5      0.091500
     30 H6         -3.5920    2.5410    2.8670 ho        1 SN5      0.221000
@<TRIPOS>BOND
     1    1    3 1   
     2    1   13 1   
     3    1   15 1   
     4    1   21 1   
     5    2    8 1   
     6    3    4 1   
     7    3   10 1   
     8    3   20 1   
     9    4    5 1   
    10    4   11 1   
    11    4   22 1   
    12    5    6 1   
    13    5   12 1   
    14    5   25 1   
    15    6    7 1   
    16    6   13 1   
    17    6   27 1   
    18    7   14 1   
    19    7   28 1   
    20    7   29 1   
    21    8   10 1   
    22    9   16 1   
    23    9   17 1   
    24    9   18 1   
    25   10   19 1   
    26   11   24 1   
    27   12   26 1   
    28   14   30 1   
    29   15   23 1   
@<TRIPOS>SUBSTRUCTURE
     1 SN5         1 TEMP              0 ****  ****    0 ROOT
