@<TRIPOS>MOLECULE
SN5
   31    31     1     0     0
SMALL
bcc


@<TRIPOS>ATOM
      1 C1         -0.0490   -0.1790    0.0250 c3        1 SN5      0.352900
      2 S7          3.0110    0.3410   -2.5290 s         1 SN5      0.055600
      3 C2          1.5110   -0.1840    0.0710 c3        1 SN5      0.034500
      4 C3          1.8990   -0.1880    1.5660 c3        1 SN5      0.131100
      5 C4          1.3270    1.0950    2.2040 c3        1 SN5      0.099100
      6 C5         -0.1930    1.1770    1.9820 c3        1 SN5      0.072100
      7 C6         -0.7410    2.5600    2.3740 c3        1 SN5      0.130400
      8 C7          2.5780   -1.0340   -2.0730 c         1 SN5      0.118400
      9 C8          2.5580   -2.2790   -2.9010 c3        1 SN5     -0.180100
     10 N2          2.1070   -1.3340   -0.6710 n4        1 SN5     -0.600800
     11 O3          3.3090   -0.2330    1.6340 oh        1 SN5     -0.622800
     12 O4          1.6330    0.9740    3.5780 oh        1 SN5     -0.602800
     13 O5         -0.5160    1.0240    0.5940 os        1 SN5     -0.424600
     14 O6         -0.4780    2.7950    3.7390 oh        1 SN5     -0.594800
     15 O1         -0.4870   -0.1320   -1.3010 oh        1 SN5     -0.612800
     16 H81C        1.5080   -2.6420   -3.0570 hc        1 SN5      0.098700
     17 H82C        3.1560   -3.1040   -2.4340 hc        1 SN5      0.098700
     18 H83C        2.9990   -2.0640   -3.9090 hc        1 SN5      0.098700
     19 H2          1.4150   -2.0920   -0.7140 hn        1 SN5      0.462300
     20 HA          1.8970    0.7720   -0.4060 hx        1 SN5      0.149700
     21 H1         -0.4770   -1.0880    0.5340 h2        1 SN5      0.077700
     22 H3          1.4740   -1.0900    2.0920 h1        1 SN5      0.071700
     23 HB         -1.0080    0.6780   -1.4420 ho        1 SN5      0.470000
     24 HC          3.5650    0.0300    2.5330 ho        1 SN5      0.468000
     25 H4          1.8320    2.0000    1.7660 h1        1 SN5      0.076700
     26 HD          1.3720    1.8020    4.0120 ho        1 SN5      0.457000
     27 H5         -0.7040    0.3690    2.5760 h1        1 SN5      0.073700
     28 H61C       -0.1940    3.3690    1.8200 h1        1 SN5      0.078700
     29 H62C       -1.8350    2.6140    2.1380 h1        1 SN5      0.078700
     30 H6         -1.1670    2.3600    4.2570 ho        1 SN5      0.422000
     31 H22         2.9260   -1.6690   -0.1360 hn        1 SN5      0.462300
@<TRIPOS>BOND
     1    1    3 1   
     2    1   13 1   
     3    1   15 1   
     4    1   21 1   
     5    2    8 2   
     6    3    4 1   
     7    3   10 1   
     8    3   20 1   
     9    4    5 1   
    10    4   11 1   
    11    4   22 1   
    12    5    6 1   
    13    5   12 1   
    14    5   25 1   
    15    6    7 1   
    16    6   13 1   
    17    6   27 1   
    18    7   14 1   
    19    7   28 1   
    20    7   29 1   
    21    8    9 1   
    22    8   10 1   
    23    9   16 1   
    24    9   17 1   
    25    9   18 1   
    26   10   19 1   
    27   10   31 1   
    28   11   24 1   
    29   12   26 1   
    30   14   30 1   
    31   15   23 1   
@<TRIPOS>SUBSTRUCTURE
     1 SN5         1 TEMP              0 ****  ****    0 ROOT
