@<TRIPOS>MOLECULE
SN5
   30    30     1     0     0
SMALL
bcc


@<TRIPOS>ATOM
      1 C1          0.2350   -0.9530   -0.9320 c3        1 SN5      0.337900
      2 S7         -2.9120   -1.1280    1.0440 s         1 SN5     -0.501400
      3 C2         -0.4990    0.2300   -0.2280 c3        1 SN5      0.021700
      4 C3          0.4290    1.4580   -0.3730 c3        1 SN5      0.137100
      5 C4          1.7750    1.1360    0.3060 c3        1 SN5      0.077100
      6 C5          2.3810   -0.1470   -0.2780 c3        1 SN5      0.072100
      7 C6          3.5890   -0.6240    0.5370 c3        1 SN5      0.139400
      8 C7         -2.9350   -0.0450   -0.1230 c         1 SN5      0.426400
      9 C8         -4.2550    0.4610   -0.6360 c3        1 SN5     -0.161100
     10 N2         -1.8250    0.4560   -0.7470 n         1 SN5     -0.465900
     11 O3         -0.1970    2.5620    0.2530 oh        1 SN5     -0.597800
     12 O4          2.5980    2.2620    0.0410 oh        1 SN5     -0.602800
     13 O5          1.4420   -1.2190   -0.2150 os        1 SN5     -0.448600
     14 O6          4.2080   -1.7320   -0.0750 oh        1 SN5     -0.591800
     15 O1         -0.4230   -2.1750   -0.8610 oh        1 SN5     -0.571800
     16 H81C       -4.3340    1.5700   -0.5070 hc        1 SN5      0.070700
     17 H82C       -4.3800    0.2180   -1.7210 hc        1 SN5      0.070700
     18 H83C       -5.0840   -0.0250   -0.0640 hc        1 SN5      0.070700
     19 H2         -1.9280    1.2200   -1.3780 hn        1 SN5      0.317500
     20 HA         -0.5890   -0.0330    0.8760 h1        1 SN5      0.115700
     21 H1          0.4410   -0.7510   -2.0190 h2        1 SN5      0.080700
     22 H3          0.6100    1.6980   -1.4590 h1        1 SN5      0.054700
     23 HB         -0.7710   -2.2860    0.0410 ho        1 SN5      0.440000
     24 HC          0.4610    3.2710    0.2840 ho        1 SN5      0.429000
     25 H4          1.6200    1.0240    1.4150 h1        1 SN5      0.067700
     26 HD          3.4270    2.1270    0.5160 ho        1 SN5      0.416000
     27 H5          2.6830    0.0270   -1.3490 h1        1 SN5      0.069700
     28 H61C        4.3750    0.1760    0.5570 h1        1 SN5      0.052200
     29 H62C        3.2670   -0.8810    1.5810 h1        1 SN5      0.052200
     30 H6          3.5370   -2.4250   -0.1550 ho        1 SN5      0.422000
@<TRIPOS>BOND
     1    1    3 1   
     2    1   13 1   
     3    1   15 1   
     4    1   21 1   
     5    2    8 2   
     6    3    4 1   
     7    3   10 1   
     8    3   20 1   
     9    4    5 1   
    10    4   11 1   
    11    4   22 1   
    12    5    6 1   
    13    5   12 1   
    14    5   25 1   
    15    6    7 1   
    16    6   13 1   
    17    6   27 1   
    18    7   14 1   
    19    7   28 1   
    20    7   29 1   
    21    8    9 1   
    22    8   10 1   
    23    9   16 1   
    24    9   17 1   
    25    9   18 1   
    26   10   19 1   
    27   11   24 1   
    28   12   26 1   
    29   14   30 1   
    30   15   23 1   
@<TRIPOS>SUBSTRUCTURE
     1 SN5         1 TEMP              0 ****  ****    0 ROOT
