@<TRIPOS>MOLECULE
SN6
   62    66     1     0     0
SMALL
bcc


@<TRIPOS>ATOM
      1 C1         -0.4740    0.6810   -0.1310 ca        1 SN6     -0.038000
      2 C2          0.8400    0.3040   -0.3130 ca        1 SN6     -0.159000
      3 C3          1.7080    0.1470    0.8040 ca        1 SN6      0.062700
      4 C4          1.2020    0.3780    2.1210 ca        1 SN6     -0.129000
      5 C5         -0.1520    0.7700    2.2600 ca        1 SN6     -0.083000
      6 C6         -0.9740    0.9180    1.1630 ca        1 SN6     -0.114000
      7 N7          3.0460   -0.2300    0.6160 na        1 SN6     -0.046100
      8 C8          3.8620   -0.3700    1.6940 ca        1 SN6      0.063700
      9 C9          3.4330   -0.1610    2.9940 ca        1 SN6     -0.293000
     10 C10         2.0880    0.2100    3.2640 ca        1 SN6      0.330600
     11 N11         1.6420    0.3970    4.5330 nu        1 SN6     -0.594000
     12 C12         2.4450    0.2810    5.7000 ca        1 SN6      0.105600
     13 C13         2.0550   -0.6170    6.7160 ca        1 SN6     -0.131500
     14 C14         2.8030   -0.7040    7.8870 ca        1 SN6     -0.073000
     15 C15         3.9320    0.1020    8.0670 ca        1 SN6     -0.133600
     16 C16         4.3210    0.9930    7.0630 ca        1 SN6     -0.073000
     17 C17         3.5870    1.0850    5.8830 ca        1 SN6     -0.131500
     18 C18         4.7210   -0.0670    9.3260 c         1 SN6      0.680700
     19 O19         4.9720   -1.1980    9.7730 o         1 SN6     -0.555100
     20 N20         5.1330    1.1070    9.9520 ns        1 SN6     -0.467100
     21 C21         5.8760    1.2060   11.1350 ca        1 SN6      0.096600
     22 C22         5.9840    2.4730   11.7640 ca        1 SN6     -0.155000
     23 C23         6.7260    2.6340   12.9240 ca        1 SN6     -0.093500
     24 C24         7.3940    1.5340   13.5010 ca        1 SN6     -0.088200
     25 C25         7.2940    0.2750   12.8820 ca        1 SN6     -0.093500
     26 C26         6.5470    0.1110   11.7220 ca        1 SN6     -0.155000
     27 N27         8.1970    1.7340   14.6550 nu        1 SN6     -0.264200
     28 C28         8.0800    1.0430   15.8120 cc        1 SN6      0.445900
     29 C29         7.0980    0.0190   16.0240 cc        1 SN6     -0.327100
     30 C30         7.0370   -0.6520   17.2290 cd        1 SN6      0.123000
     31 N31         7.8980   -0.3760   18.2650 na        1 SN6     -0.433200
     32 C32         8.8500    0.6010   18.0910 cd        1 SN6      0.123000
     33 C33         8.9640    1.3120   16.9140 cc        1 SN6     -0.327100
     34 C34         7.8230   -1.1230   19.5070 c3        1 SN6      0.161100
     35 C35         3.5520   -0.4700   -0.7230 c3        1 SN6     -0.015400
     36 H1         -1.1410    0.7990   -1.0030 ha        1 SN6      0.176000
     37 H2          1.2070    0.1270   -1.3380 ha        1 SN6      0.167000
     38 H5         -0.5830    0.9730    3.2530 ha        1 SN6      0.146000
     39 H6         -2.0270    1.2240    1.2920 ha        1 SN6      0.174000
     40 H8          4.9130   -0.6720    1.4940 h4        1 SN6      0.197000
     41 H9          4.1540   -0.3080    3.8160 ha        1 SN6      0.190000
     42 HN1         0.6680    0.5510    4.6970 hn        1 SN6      0.469800
     43 H13         1.1670   -1.2580    6.5950 ha        1 SN6      0.158500
     44 H14         2.5150   -1.4240    8.6730 ha        1 SN6      0.166500
     45 H16         5.2190    1.6210    7.1850 ha        1 SN6      0.166500
     46 H17         3.9050    1.7960    5.1030 ha        1 SN6      0.158500
     47 HN2         4.7990    1.9680    9.5740 hn        1 SN6      0.328500
     48 H22         5.4760    3.3540   11.3390 ha        1 SN6      0.170500
     49 H23         6.7880    3.6350   13.3830 ha        1 SN6      0.152000
     50 H25         7.8200   -0.6000   13.3000 ha        1 SN6      0.152000
     51 H26         6.4950   -0.8940   11.2650 ha        1 SN6      0.170500
     52 HN7         8.8660    2.4760   14.6010 hn        1 SN6      0.315700
     53 H29         6.3760   -0.2340   15.2290 ha        1 SN6      0.191500
     54 H30         6.2800   -1.4450   17.4080 h4        1 SN6      0.201500
     55 H32         9.5280    0.7950   18.9490 h4        1 SN6      0.201500
     56 H33         9.7450    2.0870   16.8350 ha        1 SN6      0.191500
     57 H341        6.7610   -1.4310   19.7010 h1        1 SN6      0.091367
     58 H342        8.1800   -0.4830   20.3580 h1        1 SN6      0.091367
     59 H343        8.4700   -2.0390   19.4320 h1        1 SN6      0.091367
     60 H351        3.4520    0.4660   -1.3370 h1        1 SN6      0.087700
     61 H352        4.6350   -0.7640   -0.6790 h1        1 SN6      0.087700
     62 H353        2.9670   -1.3020   -1.2020 h1        1 SN6      0.087700
@<TRIPOS>BOND
     1    1    2 ar  
     2    1    6 ar  
     3    1   36 1   
     4    2    3 ar  
     5    2   37 1   
     6    3    4 ar  
     7    3    7 1   
     8    4    5 ar  
     9    4   10 ar  
    10    5    6 ar  
    11    5   38 1   
    12    6   39 1   
    13    7    8 2   
    14    7   35 1   
    15    8    9 ar  
    16    8   40 1   
    17    9   10 ar  
    18    9   41 1   
    19   10   11 1   
    20   11   12 1   
    21   11   42 1   
    22   12   13 ar  
    23   12   17 ar  
    24   13   14 ar  
    25   13   43 1   
    26   14   15 ar  
    27   14   44 1   
    28   15   16 ar  
    29   15   18 1   
    30   16   17 ar  
    31   16   45 1   
    32   17   46 1   
    33   18   19 2   
    34   18   20 1   
    35   20   21 1   
    36   20   47 1   
    37   21   22 ar  
    38   21   26 ar  
    39   22   23 ar  
    40   22   48 1   
    41   23   24 ar  
    42   23   49 1   
    43   24   25 ar  
    44   24   27 1   
    45   25   26 ar  
    46   25   50 1   
    47   26   51 1   
    48   27   28 2   
    49   27   52 1   
    50   28   29 1   
    51   28   33 1   
    52   29   30 2   
    53   29   53 1   
    54   30   31 1   
    55   30   54 1   
    56   31   32 1   
    57   31   34 1   
    58   32   33 2   
    59   32   55 1   
    60   33   56 1   
    61   34   57 1   
    62   34   58 1   
    63   34   59 1   
    64   35   60 1   
    65   35   61 1   
    66   35   62 1   
@<TRIPOS>SUBSTRUCTURE
     1 SN6         1 TEMP              0 ****  ****    0 ROOT
