@<TRIPOS>MOLECULE
SN6
   65    69     1     0     0
SMALL
bcc


@<TRIPOS>ATOM
      1 C1         -0.5060    0.2850   -0.2210 ca        1 SN6     -0.013000
      2 C2          0.7610   -0.2390   -0.3610 ca        1 SN6     -0.113000
      3 C3          1.6610   -0.2650    0.7460 ca        1 SN6      0.020700
      4 C4          1.2270    0.2640    2.0180 ca        1 SN6     -0.057000
      5 C5         -0.0840    0.7920    2.1110 ca        1 SN6     -0.156000
      6 C6         -0.9330    0.8050    1.0240 ca        1 SN6     -0.017000
      7 N7          2.9510   -0.7940    0.6130 na        1 SN6      0.095900
      8 C8          3.7870   -0.8120    1.6640 ca        1 SN6      0.022700
      9 C9          3.4180   -0.3070    2.9410 ca        1 SN6     -0.136000
     10 C10         2.1540    0.2230    3.1150 ca        1 SN6      0.064600
     11 N11         1.7070    0.7670    4.4130 n4        1 SN6     -0.528800
     12 C12         2.6290    0.6860    5.5590 ca        1 SN6      0.011600
     13 C13         2.6460   -0.4650    6.3670 ca        1 SN6     -0.086000
     14 C14         3.4240   -0.4830    7.5290 ca        1 SN6     -0.046500
     15 C15         4.1790    0.6420    7.8980 ca        1 SN6     -0.151600
     16 C16         4.1810    1.7760    7.0750 ca        1 SN6     -0.046500
     17 C17         3.4150    1.8020    5.9070 ca        1 SN6     -0.086000
     18 C18         5.0170    0.5170    9.1130 c         1 SN6      0.564700
     19 O19         5.6630   -0.4500    9.4660 o         1 SN6     -0.347100
     20 N20         5.0520    1.7410   10.0400 n4        1 SN6     -0.560200
     21 C21         5.8350    1.6040   11.2790 ca        1 SN6      0.010600
     22 C22         5.2220    1.8570   12.5230 ca        1 SN6     -0.063000
     23 C23         5.9840    1.8620   13.6930 ca        1 SN6     -0.070000
     24 C24         7.3650    1.6060   13.6340 ca        1 SN6     -0.002400
     25 C25         7.9650    1.2800   12.4020 ca        1 SN6     -0.070000
     26 C26         7.2040    1.2820   11.2310 ca        1 SN6     -0.063000
     27 N27         8.2220    1.7890   14.8220 n4        1 SN6     -0.526800
     28 C28         7.9700    0.9260   15.9900 ca        1 SN6      0.050600
     29 C29         7.4840    1.4930   17.1850 ca        1 SN6     -0.121500
     30 C30         7.3880    0.6890   18.3350 ca        1 SN6      0.016200
     31 N31         7.7470   -0.6300   18.3210 na        1 SN6      0.085900
     32 C32         8.1940   -1.1880   17.1560 ca        1 SN6      0.016200
     33 C33         8.3130   -0.4370   15.9720 ca        1 SN6     -0.121500
     34 C34         7.6860   -1.4250   19.5520 c3        1 SN6     -0.056400
     35 C35         3.3860   -1.3280   -0.6800 c3        1 SN6     -0.054400
     36 H1         -1.2020    0.3020   -1.0870 ha        1 SN6      0.224000
     37 H2          1.0670   -0.6390   -1.3480 ha        1 SN6      0.204000
     38 H5         -0.4640    1.2100    3.0570 ha        1 SN6      0.145000
     39 H6         -1.9570    1.2220    1.1130 ha        1 SN6      0.213000
     40 H8          4.8080   -1.2420    1.5180 h4        1 SN6      0.242000
     41 H9          4.1720   -0.3650    3.7450 ha        1 SN6      0.196000
     42 HN1         0.8350    0.2650    4.6690 hn        1 SN6      0.492800
     43 H13         2.0510   -1.3660    6.1170 ha        1 SN6      0.203000
     44 H14         3.4370   -1.4010    8.1500 ha        1 SN6      0.192000
     45 H16         4.7960    2.6640    7.3070 ha        1 SN6      0.192000
     46 H17         3.4400    2.7150    5.2800 ha        1 SN6      0.203000
     47 HN2         4.0770    1.9740   10.2860 hn        1 SN6      0.481800
     48 H22         4.1390    2.0750   12.6080 ha        1 SN6      0.200500
     49 H23         5.4740    2.0900   14.6490 ha        1 SN6      0.199500
     50 H25         9.0430    1.0390   12.3180 ha        1 SN6      0.199500
     51 H26         7.7070    1.0260   10.2780 ha        1 SN6      0.200500
     52 HN7         9.2110    1.6410   14.5390 hn        1 SN6      0.497800
     53 H29         7.1940    2.5580   17.2810 ha        1 SN6      0.220000
     54 H30         7.0260    1.1190   19.3040 h4        1 SN6      0.261500
     55 H32         8.4800   -2.2700   17.1760 h4        1 SN6      0.261500
     56 H33         8.6970   -0.9530   15.0710 ha        1 SN6      0.220000
     57 H341        7.5450   -2.5130   19.3000 h1        1 SN6      0.140033
     58 H342        8.6540   -1.2920   20.1190 h1        1 SN6      0.140033
     59 H343        6.8250   -1.0750   20.1900 h1        1 SN6      0.140033
     60 H351        3.3400   -0.5100   -1.4540 h1        1 SN6      0.130367
     61 H352        4.4420   -1.7100   -0.6100 h1        1 SN6      0.130367
     62 H353        2.7060   -2.1780   -0.9780 h1        1 SN6      0.130367
     63 H112        1.4680    1.7660    4.2570 hn        1 SN6      0.492800
     64 H202        5.4470    2.5330    9.5090 hn        1 SN6      0.481800
     65 H272        8.1230    2.7790   15.1210 hn        1 SN6      0.497800
@<TRIPOS>BOND
     1    1    2 ar  
     2    1    6 ar  
     3    1   36 1   
     4    2    3 ar  
     5    2   37 1   
     6    3    4 ar  
     7    3    7 1   
     8    4    5 ar  
     9    4   10 ar  
    10    5    6 ar  
    11    5   38 1   
    12    6   39 1   
    13    7    8 2   
    14    7   35 1   
    15    8    9 ar  
    16    8   40 1   
    17    9   10 ar  
    18    9   41 1   
    19   10   11 1   
    20   11   12 1   
    21   11   42 1   
    22   11   63 1   
    23   12   13 ar  
    24   12   17 ar  
    25   13   14 ar  
    26   13   43 1   
    27   14   15 ar  
    28   14   44 1   
    29   15   16 ar  
    30   15   18 1   
    31   16   17 ar  
    32   16   45 1   
    33   17   46 1   
    34   18   19 2   
    35   18   20 1   
    36   20   21 1   
    37   20   47 1   
    38   20   64 1   
    39   21   22 ar  
    40   21   26 ar  
    41   22   23 ar  
    42   22   48 1   
    43   23   24 ar  
    44   23   49 1   
    45   24   25 ar  
    46   24   27 1   
    47   25   26 ar  
    48   25   50 1   
    49   26   51 1   
    50   27   28 1   
    51   27   52 1   
    52   27   65 1   
    53   28   29 ar  
    54   28   33 ar  
    55   29   30 ar  
    56   29   53 1   
    57   30   31 1   
    58   30   54 1   
    59   31   32 2   
    60   31   34 1   
    61   32   33 ar  
    62   32   55 1   
    63   33   56 1   
    64   34   57 1   
    65   34   58 1   
    66   34   59 1   
    67   35   60 1   
    68   35   61 1   
    69   35   62 1   
@<TRIPOS>SUBSTRUCTURE
     1 SN6         1 TEMP              0 ****  ****    0 ROOT
