@<TRIPOS>MOLECULE
SN6
   62    66     1     0     0
SMALL
bcc


@<TRIPOS>ATOM
      1 C1        -10.0080    0.7270   -0.9250 ca        1 SN6     -0.038000
      2 C2         -9.6630   -0.2370   -0.0010 ca        1 SN6     -0.159000
      3 C3         -8.2970   -0.4640    0.3290 ca        1 SN6      0.062700
      4 C4         -7.2850    0.3230   -0.3020 ca        1 SN6     -0.129000
      5 C5         -7.6860    1.2980   -1.2490 ca        1 SN6     -0.083000
      6 C6         -9.0150    1.4980   -1.5560 ca        1 SN6     -0.114000
      7 N7         -7.9470   -1.4490    1.2640 na        1 SN6     -0.046100
      8 C8         -6.6370   -1.6560    1.5630 ca        1 SN6      0.063700
      9 C9         -5.6100   -0.9270    0.9870 ca        1 SN6     -0.293000
     10 C10        -5.8880    0.0970    0.0410 ca        1 SN6      0.330600
     11 N11        -4.8970    0.8380   -0.5180 nh        1 SN6     -0.594000
     12 C12        -3.5110    0.6630   -0.2600 ca        1 SN6      0.105600
     13 C13        -2.7560    1.7580    0.2130 ca        1 SN6     -0.131500
     14 C14        -1.3870    1.6170    0.4220 ca        1 SN6     -0.073000
     15 C15        -0.7530    0.3990    0.1540 ca        1 SN6     -0.133600
     16 C16        -1.4960   -0.6870   -0.3140 ca        1 SN6     -0.073000
     17 C17        -2.8680   -0.5640   -0.5200 ca        1 SN6     -0.131500
     18 C18         0.7120    0.2940    0.4390 c         1 SN6      0.680700
     19 O19         1.1930    0.7650    1.4820 o         1 SN6     -0.555100
     20 N20         1.4800   -0.3440   -0.5320 n         1 SN6     -0.467100
     21 C21         2.8630   -0.5610   -0.4940 ca        1 SN6      0.096600
     22 C22         3.5150   -0.9920   -1.6770 ca        1 SN6     -0.155000
     23 C23         4.8780   -1.2450   -1.6900 ca        1 SN6     -0.093500
     24 C24         5.6450   -1.0800   -0.5180 ca        1 SN6     -0.088200
     25 C25         5.0040   -0.6560    0.6610 ca        1 SN6     -0.093500
     26 C26         3.6400   -0.3980    0.6750 ca        1 SN6     -0.155000
     27 N27         7.0270   -1.4030   -0.5390 nh        1 SN6     -0.264200
     28 C28         8.0240   -0.5730   -0.1560 cc        1 SN6      0.445900
     29 C29         7.8030    0.7670    0.3070 cc        1 SN6     -0.327100
     30 C30         8.8660    1.5600    0.6890 cd        1 SN6      0.123000
     31 N31        10.1650    1.1100    0.6510 na        1 SN6     -0.433200
     32 C32        10.4090   -0.1670    0.2050 cd        1 SN6      0.123000
     33 C33         9.3930   -1.0110   -0.1950 cc        1 SN6     -0.327100
     34 C34        11.2600    1.9790    1.0410 c3        1 SN6      0.161100
     35 C35        -8.9800   -2.2400    1.9070 c3        1 SN6     -0.015400
     36 H1        -11.0710    0.8970   -1.1750 ha        1 SN6      0.176000
     37 H2        -10.4610   -0.8300    0.4760 ha        1 SN6      0.167000
     38 H5         -6.9410    1.9180   -1.7730 ha        1 SN6      0.146000
     39 H6         -9.3080    2.2620   -2.2960 ha        1 SN6      0.174000
     40 H8         -6.4100   -2.4470    2.3110 h4        1 SN6      0.197000
     41 H9         -4.5730   -1.1470    1.2920 ha        1 SN6      0.190000
     42 HN1        -5.1290    1.6190   -1.0950 hn        1 SN6      0.469800
     43 H13        -3.2370    2.7270    0.4260 ha        1 SN6      0.158500
     44 H14        -0.7990    2.4650    0.8160 ha        1 SN6      0.166500
     45 H16        -1.0110   -1.6570   -0.5110 ha        1 SN6      0.166500
     46 H17        -3.4380   -1.4290   -0.8940 ha        1 SN6      0.158500
     47 HN2         1.0220   -0.6000   -1.3810 hn        1 SN6      0.328500
     48 H22         2.9460   -1.1320   -2.6110 ha        1 SN6      0.170500
     49 H23         5.3490   -1.5800   -2.6290 ha        1 SN6      0.152000
     50 H25         5.5750   -0.5360    1.5970 ha        1 SN6      0.152000
     51 H26         3.1740   -0.0680    1.6210 ha        1 SN6      0.170500
     52 HN7         7.2630   -2.3020   -0.9070 hn        1 SN6      0.315700
     53 H29         6.7800    1.1790    0.3520 ha        1 SN6      0.191500
     54 H30         8.7090    2.6000    1.0450 h4        1 SN6      0.201500
     55 H32        11.4710   -0.4930    0.1820 h4        1 SN6      0.201500
     56 H33         9.6520   -2.0250   -0.5420 ha        1 SN6      0.191500
     57 H341       11.6150    2.5580    0.1450 h1        1 SN6      0.091367
     58 H342       10.9130    2.6940    1.8350 h1        1 SN6      0.091367
     59 H343       12.1070    1.3640    1.4480 h1        1 SN6      0.091367
     60 H351       -9.6730   -1.5630    2.4760 h1        1 SN6      0.087700
     61 H352       -9.5580   -2.8080    1.1290 h1        1 SN6      0.087700
     62 H353       -8.5160   -2.9710    2.6230 h1        1 SN6      0.087700
@<TRIPOS>BOND
     1    1    2 ar  
     2    1    6 ar  
     3    1   36 1   
     4    2    3 ar  
     5    2   37 1   
     6    3    4 ar  
     7    3    7 1   
     8    4    5 ar  
     9    4   10 ar  
    10    5    6 ar  
    11    5   38 1   
    12    6   39 1   
    13    7    8 2   
    14    7   35 1   
    15    8    9 ar  
    16    8   40 1   
    17    9   10 ar  
    18    9   41 1   
    19   10   11 1   
    20   11   12 1   
    21   11   42 1   
    22   12   13 ar  
    23   12   17 ar  
    24   13   14 ar  
    25   13   43 1   
    26   14   15 ar  
    27   14   44 1   
    28   15   16 ar  
    29   15   18 1   
    30   16   17 ar  
    31   16   45 1   
    32   17   46 1   
    33   18   19 2   
    34   18   20 1   
    35   20   21 1   
    36   20   47 1   
    37   21   22 ar  
    38   21   26 ar  
    39   22   23 ar  
    40   22   48 1   
    41   23   24 ar  
    42   23   49 1   
    43   24   25 ar  
    44   24   27 1   
    45   25   26 ar  
    46   25   50 1   
    47   26   51 1   
    48   27   28 2   
    49   27   52 1   
    50   28   29 1   
    51   28   33 1   
    52   29   30 2   
    53   29   53 1   
    54   30   31 1   
    55   30   54 1   
    56   31   32 1   
    57   31   34 1   
    58   32   33 2   
    59   32   55 1   
    60   33   56 1   
    61   34   57 1   
    62   34   58 1   
    63   34   59 1   
    64   35   60 1   
    65   35   61 1   
    66   35   62 1   
@<TRIPOS>SUBSTRUCTURE
     1 SN6         1 TEMP              0 ****  ****    0 ROOT
