@<TRIPOS>MOLECULE
SN6
   62    66     1     0     0
SMALL
bcc


@<TRIPOS>ATOM
      1 C1         -0.4820    0.6460   -0.1270 ca        1 SN6     -0.038000
      2 C2          0.8350    0.2820   -0.3110 ca        1 SN6     -0.159000
      3 C3          1.7060    0.1300    0.8050 ca        1 SN6      0.062700
      4 C4          1.1980    0.3540    2.1230 ca        1 SN6     -0.129000
      5 C5         -0.1600    0.7330    2.2630 ca        1 SN6     -0.083000
      6 C6         -0.9840    0.8770    1.1680 ca        1 SN6     -0.114000
      7 N7          3.0460   -0.2340    0.6160 na        1 SN6     -0.046100
      8 C8          3.8640   -0.3690    1.6930 ca        1 SN6      0.063700
      9 C9          3.4340   -0.1660    2.9940 ca        1 SN6     -0.293000
     10 C10         2.0860    0.1920    3.2660 ca        1 SN6      0.330600
     11 N11         1.6390    0.3720    4.5350 nh        1 SN6     -0.594000
     12 C12         2.4430    0.2620    5.7010 ca        1 SN6      0.105600
     13 C13         2.0630   -0.6410    6.7160 ca        1 SN6     -0.131500
     14 C14         2.8120   -0.7230    7.8860 ca        1 SN6     -0.073000
     15 C15         3.9340    0.0950    8.0670 ca        1 SN6     -0.133600
     16 C16         4.3140    0.9900    7.0640 ca        1 SN6     -0.073000
     17 C17         3.5790    1.0770    5.8840 ca        1 SN6     -0.131500
     18 C18         4.7250   -0.0690    9.3250 c         1 SN6      0.680700
     19 O19         4.9880   -1.1970    9.7710 o         1 SN6     -0.555100
     20 N20         5.1260    1.1080    9.9530 n         1 SN6     -0.467100
     21 C21         5.8700    1.2140   11.1350 ca        1 SN6      0.096600
     22 C22         5.9650    2.4810   11.7650 ca        1 SN6     -0.155000
     23 C23         6.7080    2.6480   12.9240 ca        1 SN6     -0.093500
     24 C24         7.3860    1.5540   13.5000 ca        1 SN6     -0.088200
     25 C25         7.2980    0.2940   12.8790 ca        1 SN6     -0.093500
     26 C26         6.5520    0.1240   11.7200 ca        1 SN6     -0.155000
     27 N27         8.1890    1.7600   14.6530 nh        1 SN6     -0.264200
     28 C28         8.0790    1.0670   15.8100 cc        1 SN6      0.445900
     29 C29         7.1070    0.0340   16.0220 cc        1 SN6     -0.327100
     30 C30         7.0530   -0.6380   17.2270 cd        1 SN6      0.123000
     31 N31         7.9120   -0.3550   18.2620 na        1 SN6     -0.433200
     32 C32         8.8550    0.6310   18.0880 cd        1 SN6      0.123000
     33 C33         8.9620    1.3440   16.9110 cc        1 SN6     -0.327100
     34 C34         7.8450   -1.1030   19.5040 c3        1 SN6      0.161100
     35 C35         3.5540   -0.4680   -0.7230 c3        1 SN6     -0.015400
     36 H1         -1.1500    0.7610   -0.9990 ha        1 SN6      0.176000
     37 H2          1.2040    0.1100   -1.3360 ha        1 SN6      0.167000
     38 H5         -0.5920    0.9310    3.2570 ha        1 SN6      0.146000
     39 H6         -2.0380    1.1730    1.2970 ha        1 SN6      0.174000
     40 H8          4.9180   -0.6610    1.4920 h4        1 SN6      0.197000
     41 H9          4.1570   -0.3080    3.8150 ha        1 SN6      0.190000
     42 HN1         0.6640    0.5170    4.7000 hn        1 SN6      0.469800
     43 H13         1.1810   -1.2900    6.5950 ha        1 SN6      0.158500
     44 H14         2.5320   -1.4460    8.6720 ha        1 SN6      0.166500
     45 H16         5.2060    1.6260    7.1860 ha        1 SN6      0.166500
     46 H17         3.8890    1.7920    5.1050 ha        1 SN6      0.158500
     47 HN2         4.7840    1.9660    9.5760 hn        1 SN6      0.328500
     48 H22         5.4490    3.3580   11.3410 ha        1 SN6      0.170500
     49 H23         6.7600    3.6480   13.3840 ha        1 SN6      0.152000
     50 H25         7.8330   -0.5760   13.2960 ha        1 SN6      0.152000
     51 H26         6.5080   -0.8810   11.2630 ha        1 SN6      0.170500
     52 HN7         8.8510    2.5080   14.6000 hn        1 SN6      0.315700
     53 H29         6.3870   -0.2250   15.2270 ha        1 SN6      0.191500
     54 H30         6.3040   -1.4380   17.4060 h4        1 SN6      0.201500
     55 H32         9.5330    0.8310   18.9450 h4        1 SN6      0.201500
     56 H33         9.7350    2.1260   16.8320 ha        1 SN6      0.191500
     57 H341        6.7850   -1.4180   19.7000 h1        1 SN6      0.091367
     58 H342        8.4990   -2.0140   19.4270 h1        1 SN6      0.091367
     59 H343        8.1990   -0.4600   20.3550 h1        1 SN6      0.091367
     60 H351        2.9760   -1.3030   -1.2040 h1        1 SN6      0.087700
     61 H352        4.6390   -0.7530   -0.6800 h1        1 SN6      0.087700
     62 H353        3.4460    0.4690   -1.3350 h1        1 SN6      0.087700
@<TRIPOS>BOND
     1    1    2 ar  
     2    1    6 ar  
     3    1   36 1   
     4    2    3 ar  
     5    2   37 1   
     6    3    4 ar  
     7    3    7 1   
     8    4    5 ar  
     9    4   10 ar  
    10    5    6 ar  
    11    5   38 1   
    12    6   39 1   
    13    7    8 2   
    14    7   35 1   
    15    8    9 ar  
    16    8   40 1   
    17    9   10 ar  
    18    9   41 1   
    19   10   11 1   
    20   11   12 1   
    21   11   42 1   
    22   12   13 ar  
    23   12   17 ar  
    24   13   14 ar  
    25   13   43 1   
    26   14   15 ar  
    27   14   44 1   
    28   15   16 ar  
    29   15   18 1   
    30   16   17 ar  
    31   16   45 1   
    32   17   46 1   
    33   18   19 2   
    34   18   20 1   
    35   20   21 1   
    36   20   47 1   
    37   21   22 ar  
    38   21   26 ar  
    39   22   23 ar  
    40   22   48 1   
    41   23   24 ar  
    42   23   49 1   
    43   24   25 ar  
    44   24   27 1   
    45   25   26 ar  
    46   25   50 1   
    47   26   51 1   
    48   27   28 2   
    49   27   52 1   
    50   28   29 1   
    51   28   33 1   
    52   29   30 2   
    53   29   53 1   
    54   30   31 1   
    55   30   54 1   
    56   31   32 1   
    57   31   34 1   
    58   32   33 2   
    59   32   55 1   
    60   33   56 1   
    61   34   57 1   
    62   34   58 1   
    63   34   59 1   
    64   35   60 1   
    65   35   61 1   
    66   35   62 1   
@<TRIPOS>SUBSTRUCTURE
     1 SN6         1 TEMP              0 ****  ****    0 ROOT
