@<TRIPOS>MOLECULE
SN7
   71    75     1     0     0
SMALL
bcc


@<TRIPOS>ATOM
      1 C1         -0.8530    0.6240   -0.1560 ca        1 SN7     -0.027000
      2 C2          0.4970    0.8660   -0.3020 ca        1 SN7     -0.053000
      3 C3          1.4050    0.6570    0.7770 ca        1 SN7      0.032700
      4 C4          0.9060    0.1830    2.0440 ca        1 SN7     -0.051000
      5 C5         -0.4880   -0.0570    2.1630 ca        1 SN7     -0.106000
      6 C6         -1.3540    0.1570    1.0890 ca        1 SN7      0.062600
      7 N7          2.7790    0.9170    0.5900 na        1 SN7      0.110900
      8 C8          3.6350    0.7250    1.5970 ca        1 SN7      0.060700
      9 C9          3.2070    0.2550    2.8830 ca        1 SN7     -0.109000
     10 C10         1.8760   -0.0130    3.1110 ca        1 SN7      0.059600
     11 N11         1.4180   -0.5050    4.4350 n4        1 SN7     -0.535800
     12 C12         2.3860   -0.6600    5.5500 ca        1 SN7      0.025600
     13 C13         2.6740    0.4160    6.4030 ca        1 SN7     -0.033000
     14 C14         3.4350    0.2090    7.5680 ca        1 SN7     -0.048000
     15 C15         3.9330   -1.0440    7.9320 ca        1 SN7     -0.097600
     16 C16         3.6830   -2.1290    7.0290 ca        1 SN7      0.063600
     17 C17         2.9220   -1.9320    5.8600 ca        1 SN7     -0.070000
     18 C18         4.6980   -1.2660    9.2070 c         1 SN7      0.542700
     19 O19         5.2090   -2.3380    9.5030 o         1 SN7     -0.384100
     20 N20         4.8630   -0.1360   10.1980 n4        1 SN7     -0.528200
     21 C21         5.4810   -0.4540   11.5110 ca        1 SN7     -0.021400
     22 C22         4.6940   -0.9850   12.5520 ca        1 SN7     -0.063000
     23 C23         5.2160   -1.0780   13.8440 ca        1 SN7     -0.061000
     24 C24         6.5290   -0.6360   14.1210 ca        1 SN7      0.033600
     25 C25         7.3400   -0.1940   13.0620 ca        1 SN7     -0.061000
     26 C26         6.8230   -0.1070   11.7630 ca        1 SN7     -0.063000
     27 N27         6.9500   -0.5380   15.5340 n4        1 SN7     -0.531800
     28 C28         8.2810   -1.0280   15.9500 ca        1 SN7      0.034600
     29 C29         8.5090   -2.3980   16.1700 ca        1 SN7     -0.124000
     30 C30         9.7160   -2.8030   16.7730 ca        1 SN7      0.021700
     31 N31        10.6750   -1.9010   17.1430 na        1 SN7      0.094900
     32 C32        10.4710   -0.5730   16.8960 ca        1 SN7      0.021700
     33 C33         9.2860   -0.1040   16.2960 ca        1 SN7     -0.124000
     34 C34        11.8910   -2.3480   17.8360 c3        1 SN7     -0.060400
     35 C35         3.2660    1.4000   -0.7120 c3        1 SN7     -0.069400
     36 N36        -2.7980   -0.0820    1.1860 n4        1 SN7     -0.730000
     37 N37         4.1930   -3.4820    7.2840 n4        1 SN7     -0.729000
     38 H1         -1.5260    0.8020   -1.0290 ha        1 SN7      0.248000
     39 H2          0.8540    1.2310   -1.2940 ha        1 SN7      0.244000
     40 H5         -0.9030   -0.4200    3.1190 ha        1 SN7      0.153000
     41 H8          4.7240    0.9400    1.4240 h4        1 SN7      0.274000
     42 H9          4.0000    0.1330    3.6430 ha        1 SN7      0.203000
     43 HN1         0.6850    0.1570    4.7640 hn        1 SN7      0.498300
     44 H13         2.3000    1.4460    6.2040 ha        1 SN7      0.229000
     45 H14         3.6090    1.1100    8.1910 ha        1 SN7      0.204000
     46 H17         2.7280   -2.7910    5.1800 ha        1 SN7      0.211000
     47 HN2         3.9300    0.2630   10.3990 hn        1 SN7      0.493800
     48 H22         3.6500   -1.3150   12.3940 ha        1 SN7      0.197500
     49 H23         4.5540   -1.4840   14.6380 ha        1 SN7      0.214500
     50 H25         8.3930    0.1150   13.2260 ha        1 SN7      0.214500
     51 H26         7.4970    0.2650   10.9670 ha        1 SN7      0.197500
     52 HN7         6.8930    0.4690   15.7910 hn        1 SN7      0.502800
     53 H29         7.7720   -3.1860   15.9240 ha        1 SN7      0.219500
     54 H30         9.9110   -3.8850   16.9880 h4        1 SN7      0.269500
     55 H32        11.2750    0.1450   17.2090 h4        1 SN7      0.269500
     56 H33         9.1870    0.9910   16.1580 ha        1 SN7      0.219500
     57 H341       12.1340   -3.4080   17.5430 h1        1 SN7      0.147367
     58 H342       11.7130   -2.2980   18.9520 h1        1 SN7      0.147367
     59 H343       12.7550   -1.6760   17.5650 h1        1 SN7      0.147367
     60 H351        3.0290    0.6340   -1.5090 h1        1 SN7      0.153033
     61 H352        4.3840    1.5530   -0.6810 h1        1 SN7      0.153033
     62 H353        2.7730    2.3860   -0.9550 h1        1 SN7      0.153033
     63 H361       -3.0750   -0.4160    2.1190 hn        1 SN7      0.508800
     64 H362       -3.3160    0.7960    0.9820 hn        1 SN7      0.508800
     65 H371        3.7690   -3.8720    8.1470 hn        1 SN7      0.509800
     66 H372        5.2230   -3.4630    7.4160 hn        1 SN7      0.509800
     67 H112        0.9710   -1.4290    4.2740 hn        1 SN7      0.498300
     68 H202        5.4480    0.5950    9.7540 hn        1 SN7      0.493800
     69 H272        6.2550   -1.0490   16.1160 hn        1 SN7      0.502800
     70 H363       -3.0870   -0.7920    0.4820 hn        1 SN7      0.508800
     71 H373        3.9790   -4.1240    6.4990 hn        1 SN7      0.509800
@<TRIPOS>BOND
     1    1    2 ar  
     2    1    6 ar  
     3    1   38 1   
     4    2    3 ar  
     5    2   39 1   
     6    3    4 ar  
     7    3    7 1   
     8    4    5 ar  
     9    4   10 ar  
    10    5    6 ar  
    11    5   40 1   
    12    6   36 1   
    13    7    8 2   
    14    7   35 1   
    15    8    9 ar  
    16    8   41 1   
    17    9   10 ar  
    18    9   42 1   
    19   10   11 1   
    20   11   12 1   
    21   11   43 1   
    22   11   67 1   
    23   12   13 ar  
    24   12   17 ar  
    25   13   14 ar  
    26   13   44 1   
    27   14   15 ar  
    28   14   45 1   
    29   15   16 ar  
    30   15   18 1   
    31   16   17 ar  
    32   16   37 1   
    33   17   46 1   
    34   18   19 2   
    35   18   20 1   
    36   20   21 1   
    37   20   47 1   
    38   20   68 1   
    39   21   22 ar  
    40   21   26 ar  
    41   22   23 ar  
    42   22   48 1   
    43   23   24 ar  
    44   23   49 1   
    45   24   25 ar  
    46   24   27 1   
    47   25   26 ar  
    48   25   50 1   
    49   26   51 1   
    50   27   28 1   
    51   27   52 1   
    52   27   69 1   
    53   28   29 ar  
    54   28   33 ar  
    55   29   30 ar  
    56   29   53 1   
    57   30   31 1   
    58   30   54 1   
    59   31   32 2   
    60   31   34 1   
    61   32   33 ar  
    62   32   55 1   
    63   33   56 1   
    64   34   57 1   
    65   34   58 1   
    66   34   59 1   
    67   35   60 1   
    68   35   61 1   
    69   35   62 1   
    70   36   63 1   
    71   36   64 1   
    72   36   70 1   
    73   37   65 1   
    74   37   66 1   
    75   37   71 1   
@<TRIPOS>SUBSTRUCTURE
     1 SN7         1 TEMP              0 ****  ****    0 ROOT
