@<TRIPOS>MOLECULE
SN7
   66    70     1     0     0
SMALL
bcc


@<TRIPOS>ATOM
      1 C1         -9.7290   -0.8160   -0.3980 ca        1 SN7     -0.125000
      2 C2         -9.3880    0.4180    0.0850 ca        1 SN7     -0.103000
      3 C3         -8.0230    0.7950    0.2600 ca        1 SN7     -0.015300
      4 C4         -7.0050   -0.1480   -0.0690 ca        1 SN7     -0.049000
      5 C5         -7.3740   -1.4070   -0.5780 ca        1 SN7     -0.224000
      6 C6         -8.7220   -1.7740   -0.7510 ca        1 SN7      0.232600
      7 N7         -7.6920    2.0690    0.7430 na        1 SN7     -0.022100
      8 C8         -6.3890    2.4090    0.8930 ca        1 SN7      0.047700
      9 C9         -5.3470    1.5380    0.5990 ca        1 SN7     -0.290000
     10 C10        -5.6070    0.2290    0.1260 ca        1 SN7      0.313600
     11 N11        -4.6010   -0.6520   -0.1260 nh        1 SN7     -0.603000
     12 C12        -3.2150   -0.3610   -0.0280 ca        1 SN7      0.173600
     13 C13        -2.3960   -1.2130    0.7480 ca        1 SN7     -0.206000
     14 C14        -1.0310   -0.9720    0.8070 ca        1 SN7     -0.031000
     15 C15        -0.4430    0.0900    0.1170 ca        1 SN7     -0.239600
     16 C16        -1.2510    0.9640   -0.6660 ca        1 SN7      0.268600
     17 C17        -2.6520    0.7130   -0.7230 ca        1 SN7     -0.238000
     18 C18         1.0210    0.3420    0.2420 c         1 SN7      0.699700
     19 O19         1.4800    1.4870    0.4150 o         1 SN7     -0.593100
     20 N20         1.8430   -0.7790    0.1450 n         1 SN7     -0.466100
     21 C21         3.2330   -0.8230    0.3020 ca        1 SN7      0.100600
     22 C22         3.9160   -2.0180   -0.0440 ca        1 SN7     -0.157500
     23 C23         5.2870   -2.1300    0.1200 ca        1 SN7     -0.092500
     24 C24         6.0340   -1.0520    0.6390 ca        1 SN7     -0.092200
     25 C25         5.3640    0.1380    0.9810 ca        1 SN7     -0.092500
     26 C26         3.9910    0.2530    0.8140 ca        1 SN7     -0.157500
     27 N27         7.4270   -1.2120    0.8610 nh        1 SN7     -0.262200
     28 C28         8.3910   -0.4020    0.3690 cc        1 SN7      0.445900
     29 C29         8.1170    0.7310   -0.4690 cc        1 SN7     -0.327100
     30 C30         9.1490    1.5200   -0.9350 cd        1 SN7      0.122500
     31 N31        10.4640    1.2700   -0.6180 na        1 SN7     -0.434200
     32 C32        10.7570    0.1880    0.1780 cd        1 SN7      0.122500
     33 C33         9.7750   -0.6450    0.6740 cc        1 SN7     -0.327100
     34 C34        11.5240    2.1100   -1.1440 c3        1 SN7      0.161100
     35 C35        -8.7410    3.0130    1.0780 c3        1 SN7     -0.016400
     36 N36        -9.0760   -3.0040   -1.2300 nh        1 SN7     -0.858200
     37 N37        -0.7100    1.9850   -1.4040 nh        1 SN7     -0.845200
     38 H1        -10.7960   -1.0760   -0.5180 ha        1 SN7      0.169000
     39 H2        -10.1960    1.1260    0.3400 ha        1 SN7      0.163000
     40 H5         -6.6060   -2.1400   -0.8680 ha        1 SN7      0.141000
     41 H8         -6.1710    3.4290    1.2780 h4        1 SN7      0.193000
     42 H9         -4.3140    1.8850    0.7680 ha        1 SN7      0.188000
     43 HN1        -4.8230   -1.6090   -0.3090 hn        1 SN7      0.467800
     44 H13        -2.8260   -2.0560    1.3080 ha        1 SN7      0.155000
     45 H14        -0.4100   -1.6300    1.4380 ha        1 SN7      0.151000
     46 H17        -3.2880    1.3690   -1.3390 ha        1 SN7      0.152000
     47 HN2         1.4070   -1.6400   -0.1090 hn        1 SN7      0.330500
     48 H22         3.3630   -2.8810   -0.4500 ha        1 SN7      0.170000
     49 H23         5.7820   -3.0760   -0.1570 ha        1 SN7      0.151000
     50 H25         5.9200    0.9920    1.4030 ha        1 SN7      0.151000
     51 H26         3.5010    1.2020    1.0980 ha        1 SN7      0.170000
     52 HN7         7.6970   -2.0170    1.3910 hn        1 SN7      0.315700
     53 H29         7.0800    0.9720   -0.7560 ha        1 SN7      0.191500
     54 H30         8.9530    2.3960   -1.5880 h4        1 SN7      0.200500
     55 H32        11.8290    0.0130    0.4070 h4        1 SN7      0.200500
     56 H33        10.0720   -1.4960    1.3090 ha        1 SN7      0.191500
     57 H341       11.8590    1.7090   -2.1390 h1        1 SN7      0.091033
     58 H342       11.1470    3.1600   -1.2710 h1        1 SN7      0.091033
     59 H343       12.3920    2.1160   -0.4320 h1        1 SN7      0.091033
     60 H351       -9.3600    3.2280    0.1650 h1        1 SN7      0.086700
     61 H352       -9.3930    2.5800    1.8840 h1        1 SN7      0.086700
     62 H353       -8.2920    3.9730    1.4490 h1        1 SN7      0.086700
     63 H361      -10.0300   -3.2260   -1.3740 hn        1 SN7      0.450800
     64 H362       -8.3840   -3.6520   -1.5090 hn        1 SN7      0.450800
     65 H371       -1.3230    2.6330   -1.8360 hn        1 SN7      0.444800
     66 H372        0.2120    2.2940   -1.1960 hn        1 SN7      0.444800
@<TRIPOS>BOND
     1    1    2 ar  
     2    1    6 ar  
     3    1   38 1   
     4    2    3 ar  
     5    2   39 1   
     6    3    4 ar  
     7    3    7 1   
     8    4    5 ar  
     9    4   10 ar  
    10    5    6 ar  
    11    5   40 1   
    12    6   36 1   
    13    7    8 2   
    14    7   35 1   
    15    8    9 ar  
    16    8   41 1   
    17    9   10 ar  
    18    9   42 1   
    19   10   11 1   
    20   11   12 1   
    21   11   43 1   
    22   12   13 ar  
    23   12   17 ar  
    24   13   14 ar  
    25   13   44 1   
    26   14   15 ar  
    27   14   45 1   
    28   15   16 ar  
    29   15   18 1   
    30   16   17 ar  
    31   16   37 1   
    32   17   46 1   
    33   18   19 2   
    34   18   20 1   
    35   20   21 1   
    36   20   47 1   
    37   21   22 ar  
    38   21   26 ar  
    39   22   23 ar  
    40   22   48 1   
    41   23   24 ar  
    42   23   49 1   
    43   24   25 ar  
    44   24   27 1   
    45   25   26 ar  
    46   25   50 1   
    47   26   51 1   
    48   27   28 2   
    49   27   52 1   
    50   28   29 1   
    51   28   33 1   
    52   29   30 2   
    53   29   53 1   
    54   30   31 1   
    55   30   54 1   
    56   31   32 1   
    57   31   34 1   
    58   32   33 2   
    59   32   55 1   
    60   33   56 1   
    61   34   57 1   
    62   34   58 1   
    63   34   59 1   
    64   35   60 1   
    65   35   61 1   
    66   35   62 1   
    67   36   63 1   
    68   36   64 1   
    69   37   65 1   
    70   37   66 1   
@<TRIPOS>SUBSTRUCTURE
     1 SN7         1 TEMP              0 ****  ****    0 ROOT
