@<TRIPOS>MOLECULE
SN7
   66    60     1     0     0
SMALL
bcc


@<TRIPOS>ATOM
      1 C1         -6.7510    0.5780   -6.2990 c1        1 SN7     -0.125000
      2 C2         -6.5110   -0.7650   -6.0340 c1        1 SN7     -0.103000
      3 C3         -5.2890   -1.1620   -5.4660 c1        1 SN7      0.008000
      4 C4         -4.3270   -0.2160   -5.1700 c1        1 SN7     -0.048000
      5 C5         -4.5750    1.1450   -5.4390 c1        1 SN7     -0.224000
      6 C6         -5.7820    1.5330   -6.0000 c1        1 SN7      0.152000
      7 N7         -5.0250   -2.5090   -5.2600 n3        1 SN7     -0.089000
      8 C8         -3.8120   -2.9020   -4.7640 c1        1 SN7      0.071000
      9 C9         -2.8350   -1.9450   -4.4630 c1        1 SN7     -0.291000
     10 C10        -3.0930   -0.6140   -4.6650 c2        1 SN7      0.231000
     11 N11        -2.0530    0.3520   -4.4560 n3        1 SN7     -0.234000
     12 C12        -1.3220    0.3710   -3.2060 c2        1 SN7      0.093000
     13 C13        -1.8610    1.0200   -2.0950 c2        1 SN7     -0.204000
     14 C14        -1.1160    1.1260   -0.9160 c1        1 SN7     -0.032000
     15 C15         0.1690    0.5820   -0.8510 c1        1 SN7     -0.214000
     16 C16         0.7110   -0.0710   -1.9690 c1        1 SN7      0.178000
     17 C17        -0.0340   -0.1750   -3.1420 c1        1 SN7     -0.235000
     18 C18         1.0030    0.7240    0.4340 c2        1 SN7      0.372000
     19 O19         2.1080    0.2540    0.4860 o         1 SN7     -0.352000
     20 N20         0.4160    1.2970    1.6060 n         1 SN7     -0.321000
     21 C21         1.1630    1.3090    2.8670 c2        1 SN7      0.107000
     22 C22         2.4410    1.8450    2.9130 c2        1 SN7     -0.144000
     23 C23         3.1520    1.8560    4.1160 c1        1 SN7     -0.099000
     24 C24         2.5760    1.3290    5.2690 c1        1 SN7     -0.046000
     25 C25         1.2960    0.7920    5.2220 c1        1 SN7     -0.088000
     26 C26         0.5870    0.7820    4.0210 c1        1 SN7     -0.169000
     27 N27         3.3190    1.3260    6.5190 n3        1 SN7     -0.203000
     28 C28         4.5670    0.6170    6.6090 c2        1 SN7      0.217000
     29 C29         5.7440    1.2800    6.4050 c2        1 SN7     -0.246000
     30 C30         6.9600    0.6080    6.5550 c1        1 SN7      0.043000
     31 N31         6.9720   -0.7100    6.9050 n2        1 SN7     -0.112000
     32 C32         5.7870   -1.3780    7.1100 c1        1 SN7      0.038000
     33 C33         4.5780   -0.7100    6.9610 c1        1 SN7     -0.235000
     34 C34         8.2300   -1.3970    7.0840 c3        1 SN7     -0.115000
     35 C35        -5.9200   -3.6400   -5.3200 c3        1 SN7     -0.115000
     36 N36        -6.0990    2.8570   -6.3760 n3        1 SN7     -0.365000
     37 N37         1.9810   -0.7480   -1.8610 n3        1 SN7     -0.343000
     38 H1         -7.5850    0.8470   -6.6860 ha        1 SN7      0.169000
     39 H2         -7.1820   -1.4250   -6.2410 ha        1 SN7      0.163000
     40 H5         -3.8950    1.8170   -5.2300 ha        1 SN7      0.142000
     41 H8         -3.6260   -3.8580   -4.6180 ha        1 SN7      0.193000
     42 H9         -1.9700   -2.2250   -4.1090 ha        1 SN7      0.189000
     43 HN1        -1.8480    0.9540   -5.1150 hn        1 SN7      0.264000
     44 H13        -2.7760    1.4070   -2.1420 ha        1 SN7      0.155000
     45 H14        -1.5010    1.5890   -0.1240 ha        1 SN7      0.151000
     46 H17         0.3440   -0.6310   -3.9230 ha        1 SN7      0.152000
     47 HN2        -0.3790    1.7240    1.5490 hn        1 SN7      0.244000
     48 H22         2.8380    2.2080    2.1180 ha        1 SN7      0.188000
     49 H23         4.0600    2.2360    4.1490 ha        1 SN7      0.149000
     50 H25         0.8940    0.4240    6.0270 ha        1 SN7      0.153000
     51 H26        -0.3200    0.4010    3.9880 ha        1 SN7      0.152000
     52 HN7         3.0370    1.8520    7.2220 hn        1 SN7      0.266000
     53 H29         5.7350    2.2130    6.1580 ha        1 SN7      0.188000
     54 H30         7.8020    1.0830    6.4090 ha        1 SN7      0.202000
     55 H32         5.7950   -2.3370    7.3650 ha        1 SN7      0.199000
     56 H33         3.7190   -1.1930    7.1100 ha        1 SN7      0.195000
     57 H341        8.8290   -0.8490    7.6660 h1        1 SN7      0.130333
     58 H342        8.0700   -2.2610    7.5040 h1        1 SN7      0.130333
     59 H343        8.6570   -1.5320    6.2080 h1        1 SN7      0.130333
     60 H351       -6.6220   -3.5370   -4.6430 h1        1 SN7      0.126000
     61 H352       -5.4190   -4.4620   -5.1480 h1        1 SN7      0.126000
     62 H353       -6.3310   -3.6870   -6.2130 h1        1 SN7      0.126000
     63 H361       -6.9080    3.0430   -6.7610 hn        1 SN7      0.246000
     64 H362       -5.5150    3.5290   -6.2020 hn        1 SN7      0.246000
     65 H371        2.4110   -0.7800   -1.0600 hn        1 SN7      0.233000
     66 H372        2.3300   -1.1930   -2.5910 hn        1 SN7      0.233000
@<TRIPOS>BOND
     1    1    6 1   
     2    1   38 1   
     3    2    3 1   
     4    2   39 1   
     5    3    7 1   
     6    4    5 1   
     7    4   10 1   
     8    5   40 1   
     9    6   36 1   
    10    7    8 1   
    11    7   35 1   
    12    8   41 1   
    13    9   10 1   
    14    9   42 1   
    15   10   11 1   
    16   11   12 1   
    17   11   43 1   
    18   12   13 1   
    19   12   17 1   
    20   13   14 1   
    21   13   44 1   
    22   14   45 1   
    23   15   16 1   
    24   15   18 1   
    25   16   37 1   
    26   17   46 1   
    27   18   19 1   
    28   18   20 1   
    29   20   21 1   
    30   20   47 1   
    31   21   22 1   
    32   21   26 1   
    33   22   23 1   
    34   22   48 1   
    35   23   49 1   
    36   24   25 1   
    37   24   27 1   
    38   25   50 1   
    39   26   51 1   
    40   27   28 1   
    41   27   52 1   
    42   28   29 1   
    43   28   33 1   
    44   29   30 1   
    45   29   53 1   
    46   30   54 1   
    47   31   32 1   
    48   31   34 1   
    49   32   55 1   
    50   33   56 1   
    51   34   57 1   
    52   34   58 1   
    53   34   59 1   
    54   35   60 1   
    55   35   61 1   
    56   35   62 1   
    57   36   63 1   
    58   36   64 1   
    59   37   65 1   
    60   37   66 1   
@<TRIPOS>SUBSTRUCTURE
     1 SN7         1 TEMP              0 ****  ****    0 ROOT
