@<TRIPOS>MOLECULE
SN7
   66    70     1     0     0
SMALL
bcc


@<TRIPOS>ATOM
      1 C1         -0.9760    0.0520    0.1790 ca        1 SN7     -0.125000
      2 C2          0.3480    0.2040   -0.1290 ca        1 SN7     -0.103000
      3 C3          1.3540    0.1700    0.8820 ca        1 SN7     -0.015300
      4 C4          0.9550   -0.0160    2.2390 ca        1 SN7     -0.049000
      5 C5         -0.4100   -0.1850    2.5360 ca        1 SN7     -0.224000
      6 C6         -1.3990   -0.1540    1.5350 ca        1 SN7      0.232600
      7 N7          2.7080    0.3150    0.5460 na        1 SN7     -0.022100
      8 C8          3.6470    0.2720    1.5210 ca        1 SN7      0.047700
      9 C9          3.3290    0.1000    2.8620 ca        1 SN7     -0.290000
     10 C10         1.9820   -0.0330    3.2780 ca        1 SN7      0.313600
     11 N11         1.6490   -0.1600    4.5910 nh        1 SN7     -0.603000
     12 C12         2.5740   -0.2510    5.6650 ca        1 SN7      0.173600
     13 C13         2.4270    0.6270    6.7620 ca        1 SN7     -0.206000
     14 C14         3.2900    0.5120    7.8420 ca        1 SN7     -0.031000
     15 C15         4.3000   -0.4510    7.8760 ca        1 SN7     -0.239600
     16 C16         4.4680   -1.3430    6.7770 ca        1 SN7      0.268600
     17 C17         3.5800   -1.2200    5.6700 ca        1 SN7     -0.238000
     18 C18         5.2340   -0.5140    9.0350 c         1 SN7      0.699700
     19 O19         6.4630   -0.6500    8.8840 o         1 SN7     -0.593100
     20 N20         4.6480   -0.4210   10.2960 n         1 SN7     -0.466100
     21 C21         5.3050   -0.3770   11.5310 ca        1 SN7      0.100600
     22 C22         4.5310   -0.4980   12.7140 ca        1 SN7     -0.157500
     23 C23         5.1230   -0.4300   13.9650 ca        1 SN7     -0.092500
     24 C24         6.5150   -0.2370   14.0860 ca        1 SN7     -0.092200
     25 C25         7.2900   -0.1200   12.9170 ca        1 SN7     -0.092500
     26 C26         6.6990   -0.1910   11.6630 ca        1 SN7     -0.157500
     27 N27         7.0900   -0.1040   15.3770 nh        1 SN7     -0.262200
     28 C28         8.1140   -0.8480   15.8520 cc        1 SN7      0.445900
     29 C29         8.7450   -1.8950   15.1000 cc        1 SN7     -0.327100
     30 C30         9.7900   -2.6140   15.6430 cd        1 SN7      0.122500
     31 N31        10.2740   -2.3620   16.9060 na        1 SN7     -0.434200
     32 C32         9.6860   -1.3690   17.6530 cd        1 SN7      0.122500
     33 C33         8.6350   -0.6140   17.1730 cc        1 SN7     -0.327100
     34 C34        11.3600   -3.1540   17.4520 c3        1 SN7      0.161100
     35 C35         3.0940    0.5100   -0.8390 c3        1 SN7     -0.016400
     36 N36        -2.7250   -0.3020    1.8290 nh        1 SN7     -0.858200
     37 N37         5.4090   -2.3400    6.7900 nh        1 SN7     -0.845200
     38 H1         -1.7300    0.0860   -0.6270 ha        1 SN7      0.169000
     39 H2          0.6290    0.3550   -1.1860 ha        1 SN7      0.163000
     40 H5         -0.7390   -0.3610    3.5710 ha        1 SN7      0.141000
     41 H8          4.7070    0.3900    1.2100 h4        1 SN7      0.193000
     42 H9          4.1520    0.0960    3.5970 ha        1 SN7      0.188000
     43 HN1         0.6890   -0.0970    4.8610 hn        1 SN7      0.467800
     44 H13         1.6460    1.4020    6.7680 ha        1 SN7      0.155000
     45 H14         3.1790    1.2220    8.6800 ha        1 SN7      0.151000
     46 H17         3.6850   -1.9150    4.8200 ha        1 SN7      0.152000
     47 HN2         3.6510   -0.4310   10.3350 hn        1 SN7      0.330500
     48 H22         3.4400   -0.6470   12.6570 ha        1 SN7      0.170000
     49 H23         4.4880   -0.5250   14.8620 ha        1 SN7      0.151000
     50 H25         8.3780    0.0470   12.9810 ha        1 SN7      0.151000
     51 H26         7.3410   -0.0900   10.7690 ha        1 SN7      0.170000
     52 HN7         6.6630    0.5700   15.9810 hn        1 SN7      0.315700
     53 H29         8.3910   -2.1400   14.0840 ha        1 SN7      0.191500
     54 H30        10.2830   -3.4300   15.0750 h4        1 SN7      0.200500
     55 H32        10.0990   -1.1980   18.6700 h4        1 SN7      0.200500
     56 H33         8.2060    0.1690   17.8180 ha        1 SN7      0.191500
     57 H341       12.0460   -3.4790   16.6240 h1        1 SN7      0.091033
     58 H342       11.9440   -2.5410   18.1910 h1        1 SN7      0.091033
     59 H343       10.9400   -4.0600   17.9680 h1        1 SN7      0.091033
     60 H351        4.2100    0.6100   -0.9180 h1        1 SN7      0.086700
     61 H352        2.6150    1.4470   -1.2340 h1        1 SN7      0.086700
     62 H353        2.7610   -0.3720   -1.4500 h1        1 SN7      0.086700
     63 H361       -3.3980   -0.3090    1.1040 hn        1 SN7      0.450800
     64 H362       -3.0160   -0.4800    2.7580 hn        1 SN7      0.450800
     65 H371        5.5640   -2.8560    5.9580 hn        1 SN7      0.444800
     66 H372        6.1570   -2.2880    7.4440 hn        1 SN7      0.444800
@<TRIPOS>BOND
     1    1    2 ar  
     2    1    6 ar  
     3    1   38 1   
     4    2    3 ar  
     5    2   39 1   
     6    3    4 ar  
     7    3    7 1   
     8    4    5 ar  
     9    4   10 ar  
    10    5    6 ar  
    11    5   40 1   
    12    6   36 1   
    13    7    8 2   
    14    7   35 1   
    15    8    9 ar  
    16    8   41 1   
    17    9   10 ar  
    18    9   42 1   
    19   10   11 1   
    20   11   12 1   
    21   11   43 1   
    22   12   13 ar  
    23   12   17 ar  
    24   13   14 ar  
    25   13   44 1   
    26   14   15 ar  
    27   14   45 1   
    28   15   16 ar  
    29   15   18 1   
    30   16   17 ar  
    31   16   37 1   
    32   17   46 1   
    33   18   19 2   
    34   18   20 1   
    35   20   21 1   
    36   20   47 1   
    37   21   22 ar  
    38   21   26 ar  
    39   22   23 ar  
    40   22   48 1   
    41   23   24 ar  
    42   23   49 1   
    43   24   25 ar  
    44   24   27 1   
    45   25   26 ar  
    46   25   50 1   
    47   26   51 1   
    48   27   28 2   
    49   27   52 1   
    50   28   29 1   
    51   28   33 1   
    52   29   30 2   
    53   29   53 1   
    54   30   31 1   
    55   30   54 1   
    56   31   32 1   
    57   31   34 1   
    58   32   33 2   
    59   32   55 1   
    60   33   56 1   
    61   34   57 1   
    62   34   58 1   
    63   34   59 1   
    64   35   60 1   
    65   35   61 1   
    66   35   62 1   
    67   36   63 1   
    68   36   64 1   
    69   37   65 1   
    70   37   66 1   
@<TRIPOS>SUBSTRUCTURE
     1 SN7         1 TEMP              0 ****  ****    0 ROOT
