@<TRIPOS>MOLECULE
SN7
   66    70     1     0     0
SMALL
bcc


@<TRIPOS>ATOM
      1 C1         -0.9740    0.0380    0.1770 ca        1 SN7     -0.125000
      2 C2          0.3510    0.1860   -0.1320 ca        1 SN7     -0.103000
      3 C3          1.3560    0.1520    0.8800 ca        1 SN7     -0.015300
      4 C4          0.9560   -0.0300    2.2370 ca        1 SN7     -0.049000
      5 C5         -0.4090   -0.1950    2.5340 ca        1 SN7     -0.224000
      6 C6         -1.3980   -0.1630    1.5330 ca        1 SN7      0.232600
      7 N7          2.7110    0.2920    0.5430 na        1 SN7     -0.022100
      8 C8          3.6490    0.2490    1.5190 ca        1 SN7      0.047700
      9 C9          3.3310    0.0820    2.8610 ca        1 SN7     -0.290000
     10 C10         1.9830   -0.0460    3.2770 ca        1 SN7      0.313600
     11 N11         1.6490   -0.1670    4.5900 nu        1 SN7     -0.603000
     12 C12         2.5740   -0.2570    5.6640 ca        1 SN7      0.173600
     13 C13         2.4300    0.6270    6.7580 ca        1 SN7     -0.206000
     14 C14         3.2920    0.5130    7.8380 ca        1 SN7     -0.031000
     15 C15         4.2980   -0.4540    7.8770 ca        1 SN7     -0.239600
     16 C16         4.4640   -1.3510    6.7820 ca        1 SN7      0.268600
     17 C17         3.5770   -1.2300    5.6740 ca        1 SN7     -0.238000
     18 C18         5.2320   -0.5140    9.0360 c         1 SN7      0.699700
     19 O19         6.4610   -0.6550    8.8860 o         1 SN7     -0.593100
     20 N20         4.6470   -0.4130   10.2970 ns        1 SN7     -0.466100
     21 C21         5.3040   -0.3660   11.5310 ca        1 SN7      0.100600
     22 C22         4.5300   -0.4780   12.7150 ca        1 SN7     -0.157500
     23 C23         5.1220   -0.4080   13.9660 ca        1 SN7     -0.092500
     24 C24         6.5150   -0.2210   14.0850 ca        1 SN7     -0.092200
     25 C25         7.2910   -0.1130   12.9160 ca        1 SN7     -0.092500
     26 C26         6.6990   -0.1870   11.6620 ca        1 SN7     -0.157500
     27 N27         7.0910   -0.0850   15.3760 nu        1 SN7     -0.262200
     28 C28         8.1110   -0.8330   15.8550 cc        1 SN7      0.445900
     29 C29         8.7350   -1.8870   15.1070 cc        1 SN7     -0.327100
     30 C30         9.7750   -2.6100   15.6540 cd        1 SN7      0.122500
     31 N31        10.2560   -2.3600   16.9180 na        1 SN7     -0.434200
     32 C32         9.6790   -1.3550   17.6580 cd        1 SN7      0.122500
     33 C33         8.6330   -0.5960   17.1740 cc        1 SN7     -0.327100
     34 C34        11.3710   -3.1220   17.4490 c3        1 SN7      0.161100
     35 C35         3.0980    0.4820   -0.8420 c3        1 SN7     -0.016400
     36 N36        -2.7240   -0.3070    1.8270 nv        1 SN7     -0.858200
     37 N37         5.4010   -2.3510    6.7990 nv        1 SN7     -0.845200
     38 H1         -1.7270    0.0720   -0.6300 ha        1 SN7      0.169000
     39 H2          0.6320    0.3340   -1.1890 ha        1 SN7      0.163000
     40 H5         -0.7380   -0.3670    3.5700 ha        1 SN7      0.141000
     41 H8          4.7100    0.3620    1.2080 h4        1 SN7      0.193000
     42 H9          4.1530    0.0770    3.5950 ha        1 SN7      0.188000
     43 HN1         0.6900   -0.1000    4.8590 hn        1 SN7      0.467800
     44 H13         1.6510    1.4050    6.7610 ha        1 SN7      0.155000
     45 H14         3.1830    1.2280    8.6730 ha        1 SN7      0.151000
     46 H17         3.6790   -1.9280    4.8270 ha        1 SN7      0.152000
     47 HN2         3.6500   -0.4190   10.3350 hn        1 SN7      0.330500
     48 H22         3.4380   -0.6220   12.6580 ha        1 SN7      0.170000
     49 H23         4.4870   -0.4950   14.8630 ha        1 SN7      0.151000
     50 H25         8.3800    0.0490   12.9790 ha        1 SN7      0.151000
     51 H26         7.3410   -0.0940   10.7680 ha        1 SN7      0.170000
     52 HN7         6.6670    0.5940   15.9770 hn        1 SN7      0.315700
     53 H29         8.3800   -2.1350   14.0920 ha        1 SN7      0.191500
     54 H30        10.2650   -3.4300   15.0890 h4        1 SN7      0.200500
     55 H32        10.0940   -1.1810   18.6730 h4        1 SN7      0.200500
     56 H33         8.2080    0.1930   17.8160 ha        1 SN7      0.191500
     57 H341       11.3570   -4.1620   17.0250 h1        1 SN7      0.090700
     58 H342       11.2930   -3.1810   18.5680 h1        1 SN7      0.090700
     59 H343       12.3360   -2.6170   17.1680 h1        1 SN7      0.090700
     60 H351        2.6220    1.4190   -1.2400 h1        1 SN7      0.086700
     61 H352        2.7630   -0.4020   -1.4510 h1        1 SN7      0.086700
     62 H353        4.2140    0.5770   -0.9210 h1        1 SN7      0.086700
     63 H361       -3.0150   -0.4830    2.7560 hn        1 SN7      0.450800
     64 H362       -3.3970   -0.3150    1.1020 hn        1 SN7      0.450800
     65 H371        5.5540   -2.8720    5.9700 hn        1 SN7      0.444800
     66 H372        6.1490   -2.3000    7.4530 hn        1 SN7      0.444800
@<TRIPOS>BOND
     1    1    2 ar  
     2    1    6 ar  
     3    1   38 1   
     4    2    3 ar  
     5    2   39 1   
     6    3    4 ar  
     7    3    7 1   
     8    4    5 ar  
     9    4   10 ar  
    10    5    6 ar  
    11    5   40 1   
    12    6   36 1   
    13    7    8 2   
    14    7   35 1   
    15    8    9 ar  
    16    8   41 1   
    17    9   10 ar  
    18    9   42 1   
    19   10   11 1   
    20   11   12 1   
    21   11   43 1   
    22   12   13 ar  
    23   12   17 ar  
    24   13   14 ar  
    25   13   44 1   
    26   14   15 ar  
    27   14   45 1   
    28   15   16 ar  
    29   15   18 1   
    30   16   17 ar  
    31   16   37 1   
    32   17   46 1   
    33   18   19 2   
    34   18   20 1   
    35   20   21 1   
    36   20   47 1   
    37   21   22 ar  
    38   21   26 ar  
    39   22   23 ar  
    40   22   48 1   
    41   23   24 ar  
    42   23   49 1   
    43   24   25 ar  
    44   24   27 1   
    45   25   26 ar  
    46   25   50 1   
    47   26   51 1   
    48   27   28 2   
    49   27   52 1   
    50   28   29 1   
    51   28   33 1   
    52   29   30 2   
    53   29   53 1   
    54   30   31 1   
    55   30   54 1   
    56   31   32 1   
    57   31   34 1   
    58   32   33 2   
    59   32   55 1   
    60   33   56 1   
    61   34   57 1   
    62   34   58 1   
    63   34   59 1   
    64   35   60 1   
    65   35   61 1   
    66   35   62 1   
    67   36   63 1   
    68   36   64 1   
    69   37   65 1   
    70   37   66 1   
@<TRIPOS>SUBSTRUCTURE
     1 SN7         1 TEMP              0 ****  ****    0 ROOT
