@<TRIPOS>MOLECULE
SN8
   83    84     1     0     0
SMALL
bcc


@<TRIPOS>ATOM
      1 CBG         0.7440   -3.7230    5.9530 c1        1 SN8     -0.107000
      2 CAU         1.9790   -3.9200    5.2760 c1        1 SN8     -0.089000
      3 CAZ         2.9940   -4.7000    5.8730 c1        1 SN8     -0.120000
      4 CAA         4.2800   -4.9560    5.1340 c2        1 SN8     -0.169000
      5 CAM         2.7810   -5.2830    7.1400 c2        1 SN8     -0.084000
      6 CAQ         1.5670   -5.0900    7.8040 c1        1 SN8     -0.197000
      7 CBH         0.5370   -4.2990    7.2000 c1        1 SN8      0.110000
      8 NBJ        -0.6780   -3.9640    7.9820 n3        1 SN8     -0.260000
      9 CAC        -0.9370   -5.0160    8.9420 c3        1 SN8     -0.085000
     10 CAT        -1.9330   -3.6050    7.2850 c3        1 SN8      0.022000
     11 CAP        -1.7100   -2.9640    5.8960 c2        1 SN8     -0.250000
     12 CBF        -0.3540   -2.9610    5.2960 c2        1 SN8      0.070000
     13 NAX        -0.0410   -2.0340    4.1620 n3        1 SN8     -0.272000
     14 CBC        -0.6790   -2.2270    2.8560 c3        1 SN8     -0.005000
     15 CAJ        -1.6570   -1.1170    2.6340 c3        1 SN8     -0.177000
     16 CAL        -0.9870    0.2320    2.4200 c3        1 SN8     -0.144500
     17 CAI         0.3910   -2.2970    1.7970 c3        1 SN8     -0.177000
     18 CAK         1.0900   -0.9680    1.5730 c3        1 SN8     -0.144500
     19 CBE         0.0980    0.2080    1.2950 c3        1 SN8     -0.122000
     20 CAY        -0.5090    0.1440   -0.1000 c2        1 SN8      0.307000
     21 OAD        -1.0140   -0.8810   -0.4920 o         1 SN8     -0.374000
     22 NAV        -0.3580    1.2800   -1.0110 n         1 SN8     -0.381000
     23 CBA        -0.8190    1.1720   -2.3950 c3        1 SN8      0.024000
     24 CAF        -1.7290    2.3290   -2.7010 c3        1 SN8     -0.172500
     25 CAH        -0.9850    3.6530   -2.7540 c3        1 SN8     -0.174000
     26 CAE         0.3790    1.1280   -3.3060 c3        1 SN8     -0.172500
     27 CAG         1.1180    2.4470   -3.3560 c3        1 SN8     -0.174000
     28 CBB         0.2100    3.6040   -3.6630 c3        1 SN8     -0.014000
     29 NAW        -0.2550    3.4830   -5.0510 n3        1 SN8     -0.306000
     30 CBD         0.0800    4.7120   -5.7870 c3        1 SN8     -0.016000
     31 CAN         1.1640    4.4110   -6.7830 c3        1 SN8     -0.169000
     32 CAR         0.6810    3.5360   -7.9100 c3        1 SN8     -0.066000
     33 NBI        -0.5530    4.0610   -8.5500 n3        1 SN8     -0.260000
     34 CAB        -1.0360    3.1020   -9.5150 c3        1 SN8     -0.117000
     35 CAS        -1.6200    4.3520   -7.5790 c3        1 SN8     -0.066000
     36 CAO        -1.1440    5.2370   -6.4350 c3        1 SN8     -0.169000
     37 HAU         2.1720   -3.4090    4.4230 ha        1 SN8      0.123000
     38 HAA1        4.0820   -5.2550    4.2380 ha        1 SN8      0.079000
     39 HAA2        4.7990   -5.6520    5.6060 ha        1 SN8      0.079000
     40 HAA3        4.7920   -4.1490    5.0950 ha        1 SN8      0.079000
     41 HAM         3.4850   -5.8240    7.5540 ha        1 SN8      0.130000
     42 HAQ         1.4170   -5.5030    8.7000 ha        1 SN8      0.134000
     43 HAC1       -0.1730   -5.0610    9.6040 h1        1 SN8      0.077667
     44 HAC2       -1.0160   -5.8850    8.4670 h1        1 SN8      0.077667
     45 HAC3       -1.7740   -4.8260    9.4200 h1        1 SN8      0.077667
     46 HAT        -2.6270   -3.0640    7.7510 h1        1 SN8      0.073500
     47 HAT1       -2.4190   -4.4770    7.2060 h1        1 SN8      0.073500
     48 HAP        -2.4610   -2.6980    5.3700 ha        1 SN8      0.139000
     49 HAX         0.4950   -1.3530    4.2900 hn        1 SN8      0.178000
     50 HBC        -1.1590   -3.0670    2.8670 h1        1 SN8      0.104000
     51 HAJ        -2.1970   -1.3280    1.8480 hc        1 SN8      0.100000
     52 HAJ1       -2.2400   -1.0570    3.4070 hc        1 SN8      0.100000
     53 HAL        -1.6770    0.8920    2.1810 hc        1 SN8      0.085250
     54 HAL1       -0.5600    0.5120    3.2660 hc        1 SN8      0.085250
     55 HAI        -0.0250   -2.5900    0.9400 hc        1 SN8      0.100000
     56 HAI1        1.0700   -2.9730    2.0710 hc        1 SN8      0.100000
     57 HAK         1.7020   -1.0590    0.7950 hc        1 SN8      0.085250
     58 HAK1        1.6100   -0.7570    2.3540 hc        1 SN8      0.085250
     59 HBE         0.5730    1.0610    1.2530 hc        1 SN8      0.100000
     60 HAV         0.1150    2.0280   -0.7400 hn        1 SN8      0.219000
     61 HBA        -1.3200    0.3450   -2.4950 h1        1 SN8      0.128000
     62 HAF        -2.1660    2.1690   -3.5820 hc        1 SN8      0.089750
     63 HAF1       -2.4200    2.3820   -2.0090 hc        1 SN8      0.089750
     64 HAH        -1.5920    4.3430   -3.0710 hc        1 SN8      0.084500
     65 HAH1       -0.6800    3.8900   -1.8310 hc        1 SN8      0.084500
     66 HAE         0.0780    0.8960   -4.2170 hc        1 SN8      0.089750
     67 HAE1        0.9720    0.4580   -2.9990 hc        1 SN8      0.089750
     68 HAG         1.7970    2.3980   -4.0320 hc        1 SN8      0.084500
     69 HAG1        1.5520    2.6040   -2.4730 hc        1 SN8      0.084500
     70 HBB         0.7230    4.4500   -3.5670 h1        1 SN8      0.093000
     71 HAW        -1.1450    3.3600   -5.0590 hn        1 SN8      0.158000
     72 HBD         0.4170    5.3880   -5.1430 h1        1 SN8      0.089000
     73 HAN         1.9030    3.9520   -6.3210 hc        1 SN8      0.091500
     74 HAN1        1.4970    5.2560   -7.1570 hc        1 SN8      0.091500
     75 HAR         1.3870    3.4760   -8.5880 h1        1 SN8      0.069250
     76 HAR1        0.5040    2.6610   -7.5680 h1        1 SN8      0.069250
     77 HAB1       -0.3490    2.9330  -10.1720 h1        1 SN8      0.070333
     78 HAB2       -1.8460    3.4630   -9.9660 h1        1 SN8      0.070333
     79 HAB3       -1.2590    2.2790   -9.0640 h1        1 SN8      0.070333
     80 HAS        -1.9620    3.4840   -7.2010 h1        1 SN8      0.069250
     81 HAS1       -2.3490    4.8040   -8.0400 h1        1 SN8      0.069250
     82 HAO        -0.9620    6.1190   -6.7790 hc        1 SN8      0.091500
     83 HAO1       -1.8570    5.2960   -5.7660 hc        1 SN8      0.091500
@<TRIPOS>BOND
     1    1    7 1   
     2    1   12 1   
     3    2    3 1   
     4    2   37 1   
     5    3    5 1   
     6    4   38 1   
     7    4   39 1   
     8    4   40 1   
     9    5    6 1   
    10    5   41 1   
    11    6   42 1   
    12    7    8 1   
    13    8    9 1   
    14    8   10 1   
    15    9   43 1   
    16    9   44 1   
    17    9   45 1   
    18   10   11 1   
    19   10   46 1   
    20   10   47 1   
    21   11   12 1   
    22   11   48 1   
    23   12   13 1   
    24   13   14 1   
    25   13   49 1   
    26   14   15 1   
    27   14   17 1   
    28   14   50 1   
    29   15   16 1   
    30   15   51 1   
    31   15   52 1   
    32   16   19 1   
    33   16   53 1   
    34   16   54 1   
    35   17   18 1   
    36   17   55 1   
    37   17   56 1   
    38   18   19 1   
    39   18   57 1   
    40   18   58 1   
    41   19   20 1   
    42   19   59 1   
    43   20   21 1   
    44   20   22 1   
    45   22   23 1   
    46   22   60 1   
    47   23   24 1   
    48   23   26 1   
    49   23   61 1   
    50   24   25 1   
    51   24   62 1   
    52   24   63 1   
    53   25   28 1   
    54   25   64 1   
    55   25   65 1   
    56   26   27 1   
    57   26   66 1   
    58   26   67 1   
    59   27   28 1   
    60   27   68 1   
    61   27   69 1   
    62   28   29 1   
    63   28   70 1   
    64   29   30 1   
    65   29   71 1   
    66   30   31 1   
    67   30   36 1   
    68   30   72 1   
    69   31   32 1   
    70   31   73 1   
    71   31   74 1   
    72   32   33 1   
    73   32   75 1   
    74   32   76 1   
    75   33   34 1   
    76   33   35 1   
    77   34   77 1   
    78   34   78 1   
    79   34   79 1   
    80   35   36 1   
    81   35   80 1   
    82   35   81 1   
    83   36   82 1   
    84   36   83 1   
@<TRIPOS>SUBSTRUCTURE
     1 SN8         1 TEMP              0 ****  ****    0 ROOT
