@<TRIPOS>MOLECULE
SN8
   86    90     1     0     0
SMALL
bcc


@<TRIPOS>ATOM
      1 CBG        -0.0340    0.0040   -0.2900 ca        1 SN8     -0.184800
      2 CAU         0.2610   -1.3610   -0.4610 ca        1 SN8     -0.123000
      3 CAZ         0.0480   -2.2850    0.5500 ca        1 SN8     -0.088300
      4 CAA         0.3860   -3.7160    0.3780 c3        1 SN8     -0.062800
      5 CAM        -0.4780   -1.8370    1.7790 ca        1 SN8     -0.049000
      6 CAQ        -0.7800   -0.5080    1.9790 ca        1 SN8     -0.167000
      7 CBH        -0.5720    0.4580    0.9520 ca        1 SN8      0.225600
      8 NBJ        -0.9550    1.7850    1.1280 nh        1 SN8     -0.661000
      9 CAC        -1.3850    2.2360    2.4310 c3        1 SN8      0.177100
     10 CAT        -0.3510    2.8100    0.3010 c3        1 SN8      0.237000
     11 CAP         0.1070    2.3400   -1.0380 c2        1 SN8     -0.119200
     12 CBF         0.2320    1.0180   -1.3060 ce        1 SN8      0.017800
     13 NAX         0.6940    0.5940   -2.6390 n4        1 SN8     -0.635800
     14 CBC        -0.4440    0.4130   -3.6140 c3        1 SN8      0.123500
     15 CAJ         0.0530    0.4420   -5.0660 c3        1 SN8     -0.104400
     16 CAL        -1.1240    0.3570   -6.0170 c3        1 SN8     -0.079900
     17 CAI        -1.2100   -0.8920   -3.3730 c3        1 SN8     -0.104400
     18 CAK        -2.3970   -0.9780   -4.3110 c3        1 SN8     -0.079900
     19 CBE        -1.9460   -0.9090   -5.7710 c3        1 SN8     -0.133700
     20 CAY        -3.1780   -0.8600   -6.6540 c         1 SN8      0.545100
     21 OAD        -4.0710   -0.0320   -6.6290 o         1 SN8     -0.385100
     22 NAV        -3.3080   -1.9720   -7.6870 n4        1 SN8     -0.684800
     23 CBA        -4.4020   -1.7630   -8.7080 c3        1 SN8      0.118500
     24 CAF        -4.1140   -2.5530   -9.9930 c3        1 SN8     -0.098900
     25 CAH        -5.1850   -2.2690  -11.0280 c3        1 SN8     -0.101400
     26 CAE        -5.7810   -2.1600   -8.1650 c3        1 SN8     -0.098900
     27 CAG        -6.8520   -1.8820   -9.2020 c3        1 SN8     -0.101400
     28 CBB        -6.5700   -2.6630  -10.4930 c3        1 SN8      0.115500
     29 NAW        -7.6360   -2.4450  -11.5280 n4        1 SN8     -0.771000
     30 CBD        -8.8660   -3.3190  -11.3400 c3        1 SN8      0.129500
     31 CAN       -10.0720   -2.6810  -12.0390 c3        1 SN8     -0.108400
     32 CAR       -11.2960   -3.5910  -11.8700 c3        1 SN8      0.174800
     33 NBI       -11.0460   -4.9310  -12.3670 n3        1 SN8     -0.742600
     34 CAB       -12.2280   -5.7640  -12.4100 c3        1 SN8      0.154100
     35 CAS        -9.9160   -5.5580  -11.7080 c3        1 SN8      0.174800
     36 CAO        -8.6310   -4.7350  -11.8710 c3        1 SN8     -0.108400
     37 HAU         0.6850   -1.7400   -1.4030 ha        1 SN8      0.096000
     38 HAA1        1.2710   -3.9780    1.0130 hc        1 SN8      0.058367
     39 HAA2        0.6360   -3.9560   -0.6840 hc        1 SN8      0.058367
     40 HAA3       -0.4700   -4.3620    0.6970 hc        1 SN8      0.058367
     41 HAM        -0.6370   -2.5660    2.5930 ha        1 SN8      0.168000
     42 HAQ        -1.1770   -0.1950    2.9600 ha        1 SN8      0.169000
     43 HAC1       -1.6660    3.3210    2.3760 h1        1 SN8      0.065367
     44 HAC2       -0.5800    2.1090    3.2050 h1        1 SN8      0.065367
     45 HAC3       -2.2920    1.6490    2.7390 h1        1 SN8      0.065367
     46 HAT         0.5370    3.2890    0.8230 h1        1 SN8      0.083700
     47 HAT1       -1.1290    3.6200    0.1500 h1        1 SN8      0.083700
     48 HAP         0.3460    3.1460   -1.7510 ha        1 SN8      0.158000
     49 HAX         1.2180   -0.2850   -2.5480 hn        1 SN8      0.460800
     50 HBC        -1.1440    1.2880   -3.4410 hx        1 SN8      0.119700
     51 HAJ         0.7580   -0.4110   -5.2510 hc        1 SN8      0.091450
     52 HAJ1        0.6070    1.3970   -5.2790 hc        1 SN8      0.091450
     53 HAL        -0.7340    0.3620   -7.0700 hc        1 SN8      0.085700
     54 HAL1       -1.7820    1.2590   -5.8900 hc        1 SN8      0.085700
     55 HAI        -0.5320   -1.7730   -3.5300 hc        1 SN8      0.091450
     56 HAI1       -1.5790   -0.9320   -2.3080 hc        1 SN8      0.091450
     57 HAK        -2.9350   -1.9440   -4.1200 hc        1 SN8      0.085700
     58 HAK1       -3.1140   -0.1380   -4.1000 hc        1 SN8      0.085700
     59 HBE        -1.3110   -1.8110   -6.0000 hc        1 SN8      0.091700
     60 HAV        -2.4120   -2.0580   -8.1820 hn        1 SN8      0.464800
     61 HBA        -4.4060   -0.6540   -8.9450 hx        1 SN8      0.126700
     62 HAF        -4.0820   -3.6540   -9.7740 hc        1 SN8      0.087950
     63 HAF1       -3.1210   -2.2570  -10.4280 hc        1 SN8      0.087950
     64 HAH        -4.9380   -2.8580  -11.9540 hc        1 SN8      0.092450
     65 HAH1       -5.1710   -1.1800  -11.3020 hc        1 SN8      0.092450
     66 HAE        -5.7930   -3.2480   -7.8890 hc        1 SN8      0.087950
     67 HAE1       -6.0190   -1.5610   -7.2440 hc        1 SN8      0.087950
     68 HAG        -7.8450   -2.1830   -8.7690 hc        1 SN8      0.092450
     69 HAG1       -6.8940   -0.7800   -9.4160 hc        1 SN8      0.092450
     70 HBB        -6.5710   -3.7730  -10.2620 hx        1 SN8      0.117700
     71 HAW        -7.2440   -2.6450  -12.4580 hn        1 SN8      0.455300
     72 HBD        -9.0610   -3.3600  -10.2270 hx        1 SN8      0.096700
     73 HAN       -10.3120   -1.6830  -11.5870 hc        1 SN8      0.072700
     74 HAN1       -9.8650   -2.5410  -13.1330 hc        1 SN8      0.072700
     75 HAR       -12.1430   -3.1470  -12.4670 h1        1 SN8      0.063700
     76 HAR1      -11.5990   -3.5850  -10.7810 h1        1 SN8      0.063700
     77 HAB1      -13.0090   -5.2460  -13.0280 h1        1 SN8      0.058367
     78 HAB2      -12.6520   -5.9780  -11.3920 h1        1 SN8      0.058367
     79 HAB3      -11.9660   -6.7350  -12.9070 h1        1 SN8      0.058367
     80 HAS        -9.7460   -6.5660  -12.1840 h1        1 SN8      0.063700
     81 HAS1      -10.0960   -5.7220  -10.6040 h1        1 SN8      0.063700
     82 HAO        -7.8120   -5.2450  -11.3030 hc        1 SN8      0.072700
     83 HAO1       -8.3490   -4.7070  -12.9570 hc        1 SN8      0.072700
     84 HAX2        1.3310    1.3110   -3.0120 hn        1 SN8      0.460800
     85 HAV2       -3.4820   -2.8520   -7.1860 hn        1 SN8      0.464800
     86 HAW2       -7.9310   -1.4610  -11.5120 hn        1 SN8      0.455300
@<TRIPOS>BOND
     1    1    2 ar  
     2    1    7 ar  
     3    1   12 1   
     4    2    3 ar  
     5    2   37 1   
     6    3    4 1   
     7    3    5 ar  
     8    4   38 1   
     9    4   39 1   
    10    4   40 1   
    11    5    6 ar  
    12    5   41 1   
    13    6    7 ar  
    14    6   42 1   
    15    7    8 1   
    16    8    9 1   
    17    8   10 1   
    18    9   43 1   
    19    9   44 1   
    20    9   45 1   
    21   10   11 1   
    22   10   46 1   
    23   10   47 1   
    24   11   12 2   
    25   11   48 1   
    26   12   13 1   
    27   13   14 1   
    28   13   49 1   
    29   13   84 1   
    30   14   15 1   
    31   14   17 1   
    32   14   50 1   
    33   15   16 1   
    34   15   51 1   
    35   15   52 1   
    36   16   19 1   
    37   16   53 1   
    38   16   54 1   
    39   17   18 1   
    40   17   55 1   
    41   17   56 1   
    42   18   19 1   
    43   18   57 1   
    44   18   58 1   
    45   19   20 1   
    46   19   59 1   
    47   20   21 2   
    48   20   22 1   
    49   22   23 1   
    50   22   60 1   
    51   22   85 1   
    52   23   24 1   
    53   23   26 1   
    54   23   61 1   
    55   24   25 1   
    56   24   62 1   
    57   24   63 1   
    58   25   28 1   
    59   25   64 1   
    60   25   65 1   
    61   26   27 1   
    62   26   66 1   
    63   26   67 1   
    64   27   28 1   
    65   27   68 1   
    66   27   69 1   
    67   28   29 1   
    68   28   70 1   
    69   29   30 1   
    70   29   71 1   
    71   29   86 1   
    72   30   31 1   
    73   30   36 1   
    74   30   72 1   
    75   31   32 1   
    76   31   73 1   
    77   31   74 1   
    78   32   33 1   
    79   32   75 1   
    80   32   76 1   
    81   33   34 1   
    82   33   35 1   
    83   34   77 1   
    84   34   78 1   
    85   34   79 1   
    86   35   36 1   
    87   35   80 1   
    88   35   81 1   
    89   36   82 1   
    90   36   83 1   
@<TRIPOS>SUBSTRUCTURE
     1 SN8         1 TEMP              0 ****  ****    0 ROOT
