@<TRIPOS>MOLECULE
SN8
   86    90     1     0     0
SMALL
bcc


@<TRIPOS>ATOM
      1 CBG        -0.0370   -0.0170   -0.2820 ca        1 SN8     -0.184800
      2 CAU         0.2740   -1.3760   -0.4710 ca        1 SN8     -0.123000
      3 CAZ         0.0770   -2.3150    0.5300 ca        1 SN8     -0.088300
      4 CAA         0.4310   -3.7390    0.3380 c3        1 SN8     -0.062800
      5 CAM        -0.4500   -1.8890    1.7660 ca        1 SN8     -0.049000
      6 CAQ        -0.7670   -0.5660    1.9840 ca        1 SN8     -0.167000
      7 CBH        -0.5740    0.4150    0.9680 ca        1 SN8      0.225600
      8 NBJ        -0.9720    1.7350    1.1630 nh        1 SN8     -0.661000
      9 CAC        -1.4020    2.1640    2.4730 c3        1 SN8      0.177100
     10 CAT        -0.3840    2.7780    0.3460 c3        1 SN8      0.237000
     11 CAP         0.0730    2.3300   -1.0000 c2        1 SN8     -0.119200
     12 CBF         0.2130    1.0130   -1.2850 ce        1 SN8      0.017800
     13 NAX         0.6730    0.6120   -2.6270 n4        1 SN8     -0.635800
     14 CBC        -0.4670    0.4290   -3.5980 c3        1 SN8      0.123500
     15 CAJ         0.0230    0.4850   -5.0510 c3        1 SN8     -0.104900
     16 CAL        -1.1580    0.3970   -5.9980 c3        1 SN8     -0.079400
     17 CAI        -1.2140   -0.8890   -3.3720 c3        1 SN8     -0.104900
     18 CAK        -2.4040   -0.9780   -4.3050 c3        1 SN8     -0.079400
     19 CBE        -1.9610   -0.8830   -5.7660 c3        1 SN8     -0.133700
     20 CAY        -3.1980   -0.8380   -6.6430 c         1 SN8      0.545100
     21 OAD        -4.1070   -0.0280   -6.5950 o         1 SN8     -0.385100
     22 NAV        -3.3130   -1.9300   -7.6990 n4        1 SN8     -0.684800
     23 CBA        -4.4170   -1.7210   -8.7090 c3        1 SN8      0.118500
     24 CAF        -4.1210   -2.4750  -10.0120 c3        1 SN8     -0.098900
     25 CAH        -5.2040   -2.1910  -11.0340 c3        1 SN8     -0.101400
     26 CAE        -5.7830   -2.1600   -8.1660 c3        1 SN8     -0.098900
     27 CAG        -6.8670   -1.8820   -9.1900 c3        1 SN8     -0.101400
     28 CBB        -6.5770   -2.6270  -10.5000 c3        1 SN8      0.115500
     29 NAW        -7.6540   -2.4090  -11.5240 n4        1 SN8     -0.771000
     30 CBD        -8.8630   -3.3150  -11.3480 c3        1 SN8      0.129500
     31 CAN       -10.0880   -2.6880  -12.0250 c3        1 SN8     -0.108400
     32 CAR       -11.2890   -3.6290  -11.8700 c3        1 SN8      0.174800
     33 NBI       -11.0130   -4.9520  -12.4000 n3        1 SN8     -0.742600
     34 CAB       -12.1760   -5.8100  -12.4560 c3        1 SN8      0.154100
     35 CAS        -9.8640   -5.5680  -11.7620 c3        1 SN8      0.174800
     36 CAO        -8.5990   -4.7120  -11.9140 c3        1 SN8     -0.108400
     37 HAU         0.6990   -1.7380   -1.4200 ha        1 SN8      0.096000
     38 HAA1        0.6790   -3.9630   -0.7280 hc        1 SN8      0.058367
     39 HAA2       -0.4160   -4.3990    0.6520 hc        1 SN8      0.058367
     40 HAA3        1.3220   -3.9990    0.9660 hc        1 SN8      0.058367
     41 HAM        -0.5960   -2.6300    2.5720 ha        1 SN8      0.168000
     42 HAQ        -1.1630   -0.2700    2.9710 ha        1 SN8      0.169000
     43 HAC1       -0.5920    2.0370    3.2420 h1        1 SN8      0.065367
     44 HAC2       -1.6960    3.2470    2.4330 h1        1 SN8      0.065367
     45 HAC3       -2.3010    1.5630    2.7770 h1        1 SN8      0.065367
     46 HAT        -1.1720    3.5800    0.2090 h1        1 SN8      0.083700
     47 HAT1        0.5000    3.2600    0.8700 h1        1 SN8      0.083700
     48 HAP         0.3000    3.1470   -1.7040 ha        1 SN8      0.158000
     49 HAX         1.2080   -0.2630   -2.5480 hn        1 SN8      0.460800
     50 HBC        -1.1770    1.2920   -3.4100 hx        1 SN8      0.119700
     51 HAJ         0.5620    1.4500   -5.2540 hc        1 SN8      0.091450
     52 HAJ1        0.7380   -0.3570   -5.2520 hc        1 SN8      0.091450
     53 HAL        -1.8270    1.2890   -5.8560 hc        1 SN8      0.085950
     54 HAL1       -0.7730    0.4220   -7.0530 hc        1 SN8      0.085950
     55 HAI        -1.5770   -0.9500   -2.3060 hc        1 SN8      0.091450
     56 HAI1       -0.5250   -1.7590   -3.5440 hc        1 SN8      0.091450
     57 HAK        -2.9280   -1.9540   -4.1250 hc        1 SN8      0.085950
     58 HAK1       -3.1310   -0.1510   -4.0790 hc        1 SN8      0.085950
     59 HBE        -1.3160   -1.7730   -6.0110 hc        1 SN8      0.091700
     60 HAV        -3.4640   -2.8240   -7.2170 hn        1 SN8      0.464800
     61 HBA        -4.4470   -0.6070   -8.9200 hx        1 SN8      0.126700
     62 HAF        -4.0640   -3.5800   -9.8190 hc        1 SN8      0.087950
     63 HAF1       -3.1370   -2.1480  -10.4470 hc        1 SN8      0.087950
     64 HAH        -5.2150   -1.0960  -11.2840 hc        1 SN8      0.092450
     65 HAH1       -4.9510   -2.7540  -11.9750 hc        1 SN8      0.092450
     66 HAE        -5.7710   -3.2540   -7.9150 hc        1 SN8      0.087950
     67 HAE1       -6.0280   -1.5860   -7.2300 hc        1 SN8      0.087950
     68 HAG        -7.8510   -2.2130   -8.7580 hc        1 SN8      0.092450
     69 HAG1       -6.9340   -0.7760   -9.3790 hc        1 SN8      0.092450
     70 HBB        -6.5520   -3.7420  -10.2940 hx        1 SN8      0.117700
     71 HAW        -7.9710   -1.4330  -11.4830 hn        1 SN8      0.455300
     72 HBD        -9.0500   -3.3860  -10.2360 hx        1 SN8      0.096700
     73 HAN        -9.8900   -2.5180  -13.1170 hc        1 SN8      0.072700
     74 HAN1      -10.3470   -1.7070  -11.5500 hc        1 SN8      0.072700
     75 HAR       -11.5850   -3.6550  -10.7800 h1        1 SN8      0.063700
     76 HAR1      -12.1500   -3.1910  -12.4530 h1        1 SN8      0.063700
     77 HAB1      -11.8950   -6.7630  -12.9770 h1        1 SN8      0.058367
     78 HAB2      -12.9730   -5.2950  -13.0570 h1        1 SN8      0.058367
     79 HAB3      -12.5880   -6.0570  -11.4400 h1        1 SN8      0.058367
     80 HAS       -10.0340   -5.7610  -10.6620 h1        1 SN8      0.063700
     81 HAS1       -9.6750   -6.5610  -12.2630 h1        1 SN8      0.063700
     82 HAO        -7.7660   -5.2170  -11.3620 hc        1 SN8      0.072700
     83 HAO1       -8.3250   -4.6530  -13.0010 hc        1 SN8      0.072700
     84 HAX2        1.3000    1.3410   -2.9930 hn        1 SN8      0.460800
     85 HAV2       -2.4170   -1.9860   -8.2010 hn        1 SN8      0.464800
     86 HAW2       -7.2630   -2.5790  -12.4600 hn        1 SN8      0.455300
@<TRIPOS>BOND
     1    1    2 ar  
     2    1    7 ar  
     3    1   12 1   
     4    2    3 ar  
     5    2   37 1   
     6    3    4 1   
     7    3    5 ar  
     8    4   38 1   
     9    4   39 1   
    10    4   40 1   
    11    5    6 ar  
    12    5   41 1   
    13    6    7 ar  
    14    6   42 1   
    15    7    8 1   
    16    8    9 1   
    17    8   10 1   
    18    9   43 1   
    19    9   44 1   
    20    9   45 1   
    21   10   11 1   
    22   10   46 1   
    23   10   47 1   
    24   11   12 2   
    25   11   48 1   
    26   12   13 1   
    27   13   14 1   
    28   13   49 1   
    29   13   84 1   
    30   14   15 1   
    31   14   17 1   
    32   14   50 1   
    33   15   16 1   
    34   15   51 1   
    35   15   52 1   
    36   16   19 1   
    37   16   53 1   
    38   16   54 1   
    39   17   18 1   
    40   17   55 1   
    41   17   56 1   
    42   18   19 1   
    43   18   57 1   
    44   18   58 1   
    45   19   20 1   
    46   19   59 1   
    47   20   21 2   
    48   20   22 1   
    49   22   23 1   
    50   22   60 1   
    51   22   85 1   
    52   23   24 1   
    53   23   26 1   
    54   23   61 1   
    55   24   25 1   
    56   24   62 1   
    57   24   63 1   
    58   25   28 1   
    59   25   64 1   
    60   25   65 1   
    61   26   27 1   
    62   26   66 1   
    63   26   67 1   
    64   27   28 1   
    65   27   68 1   
    66   27   69 1   
    67   28   29 1   
    68   28   70 1   
    69   29   30 1   
    70   29   71 1   
    71   29   86 1   
    72   30   31 1   
    73   30   36 1   
    74   30   72 1   
    75   31   32 1   
    76   31   73 1   
    77   31   74 1   
    78   32   33 1   
    79   32   75 1   
    80   32   76 1   
    81   33   34 1   
    82   33   35 1   
    83   34   77 1   
    84   34   78 1   
    85   34   79 1   
    86   35   36 1   
    87   35   80 1   
    88   35   81 1   
    89   36   82 1   
    90   36   83 1   
@<TRIPOS>SUBSTRUCTURE
     1 SN8         1 TEMP              0 ****  ****    0 ROOT
