@<TRIPOS>MOLECULE
SN8
   86    90     1     0     0
SMALL
bcc


@<TRIPOS>ATOM
      1 CBG        -0.0360    0.0180   -0.2920 ca        1 SN8     -0.184800
      2 CAU         0.2360   -1.3550   -0.4400 ca        1 SN8     -0.123000
      3 CAZ         0.0030   -2.2590    0.5840 ca        1 SN8     -0.088300
      4 CAA         0.3170   -3.6980    0.4350 c3        1 SN8     -0.062800
      5 CAM        -0.5210   -1.7830    1.8040 ca        1 SN8     -0.049000
      6 CAQ        -0.8000   -0.4450    1.9820 ca        1 SN8     -0.167000
      7 CBH        -0.5700    0.5000    0.9400 ca        1 SN8      0.225600
      8 NBJ        -0.9310    1.8370    1.0940 nh        1 SN8     -0.661000
      9 CAC        -1.3590    2.3150    2.3880 c3        1 SN8      0.177100
     10 CAT        -0.3050    2.8380    0.2540 c3        1 SN8      0.237000
     11 CAP         0.1500    2.3390   -1.0750 c2        1 SN8     -0.119200
     12 CBF         0.2530    1.0110   -1.3220 ce        1 SN8      0.017800
     13 NAX         0.7130    0.5590   -2.6470 ny        1 SN8     -0.635800
     14 CBC        -0.4240    0.3830   -3.6240 c3        1 SN8      0.123500
     15 CAJ         0.0800    0.3810   -5.0730 c3        1 SN8     -0.104900
     16 CAL        -1.0950    0.3010   -6.0290 c3        1 SN8     -0.079400
     17 CAI        -1.2140   -0.9050   -3.3660 c3        1 SN8     -0.104900
     18 CAK        -2.3980   -0.9840   -4.3080 c3        1 SN8     -0.079400
     19 CBE        -1.9390   -0.9460   -5.7670 c3        1 SN8     -0.133700
     20 CAY        -3.1670   -0.8880   -6.6560 c         1 SN8      0.545100
     21 OAD        -4.0470   -0.0460   -6.6450 o         1 SN8     -0.385100
     22 NAV        -3.3100   -2.0110   -7.6760 ny        1 SN8     -0.684800
     23 CBA        -4.3960   -1.7970   -8.7050 c3        1 SN8      0.118500
     24 CAF        -4.1150   -2.6070   -9.9780 c3        1 SN8     -0.098900
     25 CAH        -5.1760   -2.3200  -11.0220 c3        1 SN8     -0.101400
     26 CAE        -5.7830   -2.1660   -8.1640 c3        1 SN8     -0.098900
     27 CAG        -6.8450   -1.8850   -9.2090 c3        1 SN8     -0.101400
     28 CBB        -6.5700   -2.6860  -10.4880 c3        1 SN8      0.115500
     29 NAW        -7.6270   -2.4640  -11.5310 ny        1 SN8     -0.771000
     30 CBD        -8.8710   -3.3170  -11.3380 c3        1 SN8      0.129500
     31 CAN       -10.0640   -2.6700  -12.0510 c3        1 SN8     -0.108400
     32 CAR       -11.3020   -3.5590  -11.8770 c3        1 SN8      0.174800
     33 NBI       -11.0710   -4.9100  -12.3560 n3        1 SN8     -0.742600
     34 CAB       -12.2650   -5.7250  -12.3950 c3        1 SN8      0.154100
     35 CAS        -9.9530   -5.5450  -11.6840 c3        1 SN8      0.174800
     36 CAO        -8.6550   -4.7430  -11.8510 c3        1 SN8     -0.108400
     37 HAU         0.6580   -1.7560   -1.3750 ha        1 SN8      0.096000
     38 HAA1        0.5670   -3.9580   -0.6210 hc        1 SN8      0.058367
     39 HAA2        1.1940   -3.9650    1.0800 hc        1 SN8      0.058367
     40 HAA3       -0.5520   -4.3240    0.7600 hc        1 SN8      0.058367
     41 HAM        -0.6960   -2.4960    2.6280 ha        1 SN8      0.168000
     42 HAQ        -1.1960   -0.1100    2.9560 ha        1 SN8      0.169000
     43 HAC1       -0.5590    2.1860    3.1670 h1        1 SN8      0.065367
     44 HAC2       -1.6210    3.4040    2.3150 h1        1 SN8      0.065367
     45 HAC3       -2.2780    1.7490    2.7010 h1        1 SN8      0.065367
     46 HAT         0.5880    3.3090    0.7720 h1        1 SN8      0.083700
     47 HAT1       -1.0690    3.6590    0.0870 h1        1 SN8      0.083700
     48 HAP         0.4060    3.1300   -1.7990 ha        1 SN8      0.158000
     49 HAX         1.2210   -0.3290   -2.5390 hn        1 SN8      0.460800
     50 HBC        -1.1090    1.2730   -3.4670 hx        1 SN8      0.119700
     51 HAJ         0.7700   -0.4880   -5.2420 hc        1 SN8      0.091450
     52 HAJ1        0.6510    1.3220   -5.2980 hc        1 SN8      0.091450
     53 HAL        -1.7370    1.2170   -5.9180 hc        1 SN8      0.085950
     54 HAL1       -0.7000    0.2840   -7.0790 hc        1 SN8      0.085950
     55 HAI        -0.5510   -1.8000   -3.5070 hc        1 SN8      0.091450
     56 HAI1       -1.5880   -0.9230   -2.3030 hc        1 SN8      0.091450
     57 HAK        -2.9540   -1.9380   -4.1050 hc        1 SN8      0.085950
     58 HAK1       -3.1010   -0.1290   -4.1130 hc        1 SN8      0.085950
     59 HBE        -1.3200   -1.8620   -5.9800 hc        1 SN8      0.091700
     60 HAV        -3.5000   -2.8820   -7.1650 hn        1 SN8      0.464800
     61 HBA        -4.3820   -0.6910   -8.9550 hx        1 SN8      0.126700
     62 HAF        -4.1000   -3.7060   -9.7460 hc        1 SN8      0.087950
     63 HAF1       -3.1150   -2.3320  -10.4120 hc        1 SN8      0.087950
     64 HAH        -4.9340   -2.9240  -11.9400 hc        1 SN8      0.092450
     65 HAH1       -5.1440   -1.2340  -11.3090 hc        1 SN8      0.092450
     66 HAE        -5.8140   -3.2510   -7.8740 hc        1 SN8      0.087950
     67 HAE1       -6.0160   -1.5520   -7.2500 hc        1 SN8      0.087950
     68 HAG        -7.8450   -2.1650   -8.7770 hc        1 SN8      0.092450
     69 HAG1       -6.8690   -0.7850   -9.4370 hc        1 SN8      0.092450
     70 HBB        -6.5880   -3.7930  -10.2440 hx        1 SN8      0.117700
     71 HAW        -7.2340   -2.6810  -12.4560 hn        1 SN8      0.455300
     72 HBD        -9.0720   -3.3420  -10.2260 hx        1 SN8      0.096700
     73 HAN       -10.2920   -1.6630  -11.6130 hc        1 SN8      0.072700
     74 HAN1       -9.8500   -2.5470  -13.1460 hc        1 SN8      0.072700
     75 HAR       -12.1400   -3.1100  -12.4840 h1        1 SN8      0.063700
     76 HAR1      -11.6100   -3.5350  -10.7900 h1        1 SN8      0.063700
     77 HAB1      -12.6970   -5.9200  -11.3760 h1        1 SN8      0.058367
     78 HAB2      -13.0350   -5.2030  -13.0220 h1        1 SN8      0.058367
     79 HAB3      -12.0150   -6.7060  -12.8780 h1        1 SN8      0.058367
     80 HAS       -10.1410   -5.6920  -10.5790 h1        1 SN8      0.063700
     81 HAS1       -9.7960   -6.5610  -12.1470 h1        1 SN8      0.063700
     82 HAO        -8.3680   -4.7320  -12.9360 hc        1 SN8      0.072700
     83 HAO1       -7.8470   -5.2590  -11.2720 hc        1 SN8      0.072700
     84 HAX2        1.3640    1.2580   -3.0270 hn        1 SN8      0.460800
     85 HAV2       -2.4130   -2.1170   -8.1650 hn        1 SN8      0.464800
     86 HAW2       -7.9070   -1.4760  -11.5290 hn        1 SN8      0.455300
@<TRIPOS>BOND
     1    1    2 ar  
     2    1    7 ar  
     3    1   12 1   
     4    2    3 ar  
     5    2   37 1   
     6    3    4 1   
     7    3    5 ar  
     8    4   38 1   
     9    4   39 1   
    10    4   40 1   
    11    5    6 ar  
    12    5   41 1   
    13    6    7 ar  
    14    6   42 1   
    15    7    8 1   
    16    8    9 1   
    17    8   10 1   
    18    9   43 1   
    19    9   44 1   
    20    9   45 1   
    21   10   11 1   
    22   10   46 1   
    23   10   47 1   
    24   11   12 2   
    25   11   48 1   
    26   12   13 1   
    27   13   14 1   
    28   13   49 1   
    29   13   84 1   
    30   14   15 1   
    31   14   17 1   
    32   14   50 1   
    33   15   16 1   
    34   15   51 1   
    35   15   52 1   
    36   16   19 1   
    37   16   53 1   
    38   16   54 1   
    39   17   18 1   
    40   17   55 1   
    41   17   56 1   
    42   18   19 1   
    43   18   57 1   
    44   18   58 1   
    45   19   20 1   
    46   19   59 1   
    47   20   21 2   
    48   20   22 1   
    49   22   23 1   
    50   22   60 1   
    51   22   85 1   
    52   23   24 1   
    53   23   26 1   
    54   23   61 1   
    55   24   25 1   
    56   24   62 1   
    57   24   63 1   
    58   25   28 1   
    59   25   64 1   
    60   25   65 1   
    61   26   27 1   
    62   26   66 1   
    63   26   67 1   
    64   27   28 1   
    65   27   68 1   
    66   27   69 1   
    67   28   29 1   
    68   28   70 1   
    69   29   30 1   
    70   29   71 1   
    71   29   86 1   
    72   30   31 1   
    73   30   36 1   
    74   30   72 1   
    75   31   32 1   
    76   31   73 1   
    77   31   74 1   
    78   32   33 1   
    79   32   75 1   
    80   32   76 1   
    81   33   34 1   
    82   33   35 1   
    83   34   77 1   
    84   34   78 1   
    85   34   79 1   
    86   35   36 1   
    87   35   80 1   
    88   35   81 1   
    89   36   82 1   
    90   36   83 1   
@<TRIPOS>SUBSTRUCTURE
     1 SN8         1 TEMP              0 ****  ****    0 ROOT
