@<TRIPOS>MOLECULE
SN8
   83    87     1     0     0
SMALL
bcc


@<TRIPOS>ATOM
      1 CBG        -7.1160    0.3320   -0.0750 ca        1 SN8     -0.113800
      2 CAU        -7.7550   -0.6480   -0.8370 ca        1 SN8     -0.083000
      3 CAZ        -9.0000   -0.4230   -1.4290 ca        1 SN8     -0.127300
      4 CAA        -9.6390   -1.4790   -2.2480 c3        1 SN8     -0.044800
      5 CAM        -9.6240    0.8120   -1.2390 ca        1 SN8     -0.085000
      6 CAQ        -9.0300    1.7950   -0.4610 ca        1 SN8     -0.196000
      7 CBH        -7.7690    1.5830    0.1450 ca        1 SN8      0.184600
      8 NBJ        -7.1420    2.5950    0.8870 nh        1 SN8     -0.654000
      9 CAC        -7.9160    3.7490    1.2620 c3        1 SN8      0.188100
     10 CAT        -6.1450    2.1910    1.8630 c3        1 SN8      0.263000
     11 CAP        -5.3520    0.9970    1.4710 c2        1 SN8     -0.285200
     12 CBF        -5.7880    0.1090    0.5390 ce        1 SN8      0.174800
     13 NAX        -5.0820   -1.0530    0.1750 nh        1 SN8     -0.718000
     14 CBC        -3.6770   -1.1690    0.5240 c3        1 SN8      0.191500
     15 CAJ        -3.1610   -2.5910    0.2370 c3        1 SN8     -0.096900
     16 CAL        -1.7360   -2.7430    0.7210 c3        1 SN8     -0.069400
     17 CAI        -2.7530   -0.1630   -0.1850 c3        1 SN8     -0.096900
     18 CAK        -1.3260   -0.3130    0.2920 c3        1 SN8     -0.069400
     19 CBE        -0.8170   -1.7280    0.0560 c3        1 SN8     -0.133700
     20 CAY         0.5990   -1.8710    0.6110 c         1 SN8      0.662100
     21 OAD         0.8370   -2.5050    1.6570 o         1 SN8     -0.608100
     22 NAV         1.6090   -1.2660   -0.1090 n         1 SN8     -0.574900
     23 CBA         2.9960   -1.2950    0.2970 c3        1 SN8      0.098700
     24 CAF         3.8890   -2.0010   -0.7390 c3        1 SN8     -0.091900
     25 CAH         5.3170   -2.0770   -0.2450 c3        1 SN8     -0.078400
     26 CAE         3.5590    0.1150    0.5510 c3        1 SN8     -0.091900
     27 CAG         4.9870    0.0350    1.0440 c3        1 SN8     -0.078400
     28 CBB         5.8820   -0.6700    0.0110 c3        1 SN8      0.179500
     29 NAW         7.2730   -0.7070    0.4550 n3        1 SN8     -0.822200
     30 CBD         8.0640    0.4540    0.0760 c3        1 SN8      0.176500
     31 CAN         9.3590    0.5260    0.9020 c3        1 SN8     -0.093400
     32 CAR        10.1300    1.8000    0.5670 c3        1 SN8      0.171800
     33 NBI        10.4280    1.9410   -0.8520 n3        1 SN8     -0.733600
     34 CAB        11.1660    3.1500   -1.1410 c3        1 SN8      0.158100
     35 CAS         9.2480    1.7980   -1.6940 c3        1 SN8      0.171800
     36 CAO         8.4530    0.5280   -1.4100 c3        1 SN8     -0.093400
     37 HAU        -7.3000   -1.6420   -0.9760 ha        1 SN8      0.134000
     38 HAA1       -9.2010   -1.4850   -3.2780 hc        1 SN8      0.040367
     39 HAA2       -9.4760   -2.4870   -1.7940 hc        1 SN8      0.040367
     40 HAA3      -10.7400   -1.3070   -2.3370 hc        1 SN8      0.040367
     41 HAM       -10.6050    1.0060   -1.7000 ha        1 SN8      0.130000
     42 HAQ        -9.5650    2.7460   -0.3220 ha        1 SN8      0.134000
     43 HAC1       -7.2810    4.4360    1.8810 h1        1 SN8      0.038700
     44 HAC2       -8.2310    4.2970    0.3340 h1        1 SN8      0.038700
     45 HAC3       -8.8330    3.4790    1.8540 h1        1 SN8      0.038700
     46 HAT        -5.4430    3.0680    1.9920 h1        1 SN8      0.033200
     47 HAT1       -6.6280    1.9980    2.8700 h1        1 SN8      0.033200
     48 HAP        -4.3960    0.8960    2.0010 ha        1 SN8      0.137000
     49 HAX        -5.2510   -1.3180   -0.7760 hn        1 SN8      0.388800
     50 HBC        -3.5940   -0.9980    1.6400 h1        1 SN8      0.069700
     51 HAJ        -3.8080   -3.3430    0.7590 hc        1 SN8      0.049950
     52 HAJ1       -3.2140   -2.8010   -0.8630 hc        1 SN8      0.049950
     53 HAL        -1.6870   -2.6110    1.8340 hc        1 SN8      0.055950
     54 HAL1       -1.3680   -3.7770    0.4950 hc        1 SN8      0.055950
     55 HAI        -3.1060    0.8820    0.0210 hc        1 SN8      0.049950
     56 HAI1       -2.8000   -0.3250   -1.2940 hc        1 SN8      0.049950
     57 HAK        -0.6760    0.4220   -0.2500 hc        1 SN8      0.055950
     58 HAK1       -1.2660   -0.0750    1.3870 hc        1 SN8      0.055950
     59 HBE        -0.8030   -1.9310   -1.0520 hc        1 SN8      0.061700
     60 HAV         1.3850   -0.7470   -0.9220 hn        1 SN8      0.304500
     61 HBA         3.0550   -1.8780    1.2670 h1        1 SN8      0.094700
     62 HAF         3.5090   -3.0400   -0.9220 hc        1 SN8      0.043700
     63 HAF1        3.8530   -1.4480   -1.7140 hc        1 SN8      0.043700
     64 HAH         5.3590   -2.6780    0.7010 hc        1 SN8      0.051200
     65 HAH1        5.9400   -2.6060   -1.0130 hc        1 SN8      0.051200
     66 HAE         2.9350    0.6390    1.3200 hc        1 SN8      0.043700
     67 HAE1        3.5150    0.7190   -0.3930 hc        1 SN8      0.043700
     68 HAG         5.3690    1.0730    1.2330 hc        1 SN8      0.051200
     69 HAG1        5.0250   -0.5210    2.0170 hc        1 SN8      0.051200
     70 HBB         5.7880   -0.0910   -0.9620 h1        1 SN8      0.021700
     71 HAW         7.7200   -1.5490    0.1470 hn        1 SN8      0.362800
     72 HBD         7.4460    1.3710    0.3190 h1        1 SN8      0.054700
     73 HAN         9.1190    0.5360    1.9960 hc        1 SN8      0.051200
     74 HAN1        9.9950   -0.3720    0.6950 hc        1 SN8      0.051200
     75 HAR         9.5450    2.6860    0.9560 h1        1 SN8      0.029700
     76 HAR1       11.1140    1.7770    1.1150 h1        1 SN8      0.029700
     77 HAB1       12.1050    3.1550   -0.5280 h1        1 SN8      0.031367
     78 HAB2       11.4430    3.1530   -2.2270 h1        1 SN8      0.031367
     79 HAB3       10.5890    4.0900   -0.9170 h1        1 SN8      0.031367
     80 HAS         9.6010    1.7720   -2.7640 h1        1 SN8      0.029700
     81 HAS1        8.5550    2.6850   -1.5870 h1        1 SN8      0.029700
     82 HAO         7.5380    0.5390   -2.0560 hc        1 SN8      0.051200
     83 HAO1        9.0610   -0.3720   -1.6880 hc        1 SN8      0.051200
@<TRIPOS>BOND
     1    1    2 ar  
     2    1    7 ar  
     3    1   12 1   
     4    2    3 ar  
     5    2   37 1   
     6    3    4 1   
     7    3    5 ar  
     8    4   38 1   
     9    4   39 1   
    10    4   40 1   
    11    5    6 ar  
    12    5   41 1   
    13    6    7 ar  
    14    6   42 1   
    15    7    8 1   
    16    8    9 1   
    17    8   10 1   
    18    9   43 1   
    19    9   44 1   
    20    9   45 1   
    21   10   11 1   
    22   10   46 1   
    23   10   47 1   
    24   11   12 2   
    25   11   48 1   
    26   12   13 1   
    27   13   14 1   
    28   13   49 1   
    29   14   15 1   
    30   14   17 1   
    31   14   50 1   
    32   15   16 1   
    33   15   51 1   
    34   15   52 1   
    35   16   19 1   
    36   16   53 1   
    37   16   54 1   
    38   17   18 1   
    39   17   55 1   
    40   17   56 1   
    41   18   19 1   
    42   18   57 1   
    43   18   58 1   
    44   19   20 1   
    45   19   59 1   
    46   20   21 2   
    47   20   22 1   
    48   22   23 1   
    49   22   60 1   
    50   23   24 1   
    51   23   26 1   
    52   23   61 1   
    53   24   25 1   
    54   24   62 1   
    55   24   63 1   
    56   25   28 1   
    57   25   64 1   
    58   25   65 1   
    59   26   27 1   
    60   26   66 1   
    61   26   67 1   
    62   27   28 1   
    63   27   68 1   
    64   27   69 1   
    65   28   29 1   
    66   28   70 1   
    67   29   30 1   
    68   29   71 1   
    69   30   31 1   
    70   30   36 1   
    71   30   72 1   
    72   31   32 1   
    73   31   73 1   
    74   31   74 1   
    75   32   33 1   
    76   32   75 1   
    77   32   76 1   
    78   33   34 1   
    79   33   35 1   
    80   34   77 1   
    81   34   78 1   
    82   34   79 1   
    83   35   36 1   
    84   35   80 1   
    85   35   81 1   
    86   36   82 1   
    87   36   83 1   
@<TRIPOS>SUBSTRUCTURE
     1 SN8         1 TEMP              0 ****  ****    0 ROOT
