@<TRIPOS>MOLECULE
SN9
   87    91     1     0     0
SMALL
bcc


@<TRIPOS>ATOM
      1 CAA         1.5320   -0.9270   -1.0100 c3        1 SN9      0.105700
      2 OAY         2.2590   -0.0570   -0.1400 os        1 SN9     -0.327900
      3 CBG         2.7550   -0.6050    1.0220 ca        1 SN9      0.113100
      4 CAF         2.7110   -1.9700    1.2840 ca        1 SN9     -0.149000
      5 CAE         3.1970   -2.4750    2.4930 ca        1 SN9     -0.103000
      6 CAR         3.7220   -1.6170    3.4400 ca        1 SN9     -0.165000
      7 CBH         3.7930   -0.2320    3.2020 ca        1 SN9     -0.150800
      8 CBI         3.3270    0.3170    1.9700 ca        1 SN9      0.199600
      9 NBK         3.5150    1.6780    1.7120 nh        1 SN9     -0.656000
     10 CAC         3.1390    2.2660    0.4480 c3        1 SN9      0.188100
     11 CAU         3.4200    2.5830    2.8420 c3        1 SN9      0.228000
     12 CAQ         4.0640    2.0480    4.0790 c2        1 SN9     -0.104200
     13 CBF         4.2660    0.7160    4.2130 ce        1 SN9      0.004800
     14 NAX         4.9280    0.2030    5.4240 ny        1 SN9     -0.633800
     15 CBC         6.4240    0.0850    5.2560 c3        1 SN9      0.124500
     16 CAL         7.1370    0.0450    6.6150 c3        1 SN9     -0.104900
     17 CAN         8.6390    0.0240    6.4100 c3        1 SN9     -0.078900
     18 CAK         6.8190   -1.1550    4.4470 c3        1 SN9     -0.104900
     19 CAM         8.3170   -1.1760    4.2260 c3        1 SN9     -0.078900
     20 CBE         9.0650   -1.1730    5.5610 c3        1 SN9     -0.133700
     21 CAZ        10.5510   -1.0550    5.2790 c         1 SN9      0.546100
     22 OAD        11.1180   -0.1700    4.6650 o         1 SN9     -0.385100
     23 NAV        11.4290   -2.1720    5.8300 ny        1 SN9     -0.684800
     24 CBA        12.9140   -1.9050    5.7580 c3        1 SN9      0.118500
     25 CAH        13.6750   -2.7310    6.8040 c3        1 SN9     -0.098900
     26 CAJ        15.1510   -2.3900    6.7630 c3        1 SN9     -0.101400
     27 CAG        13.4850   -2.1990    4.3650 c3        1 SN9     -0.098900
     28 CAI        14.9640   -1.8650    4.3240 c3        1 SN9     -0.101400
     29 CBB        15.7320   -2.6820    5.3710 c3        1 SN9      0.115500
     30 NAW        17.2080   -2.4060    5.3290 ny        1 SN9     -0.771000
     31 CBD        17.9510   -3.1940    4.2610 c3        1 SN9      0.129500
     32 CAO        19.2650   -2.4860    3.9090 c3        1 SN9     -0.108400
     33 CAS        20.0190   -3.3090    2.8570 c3        1 SN9      0.174800
     34 NBJ        20.2560   -4.6710    3.3030 n3        1 SN9     -0.742600
     35 CAB        21.1310   -5.4230    2.4310 c3        1 SN9      0.154100
     36 CAT        19.0220   -5.3620    3.6270 c3        1 SN9      0.174800
     37 CAP        18.2250   -4.6290    4.7150 c3        1 SN9     -0.108400
     38 HAA1        2.2130   -1.7000   -1.4430 h1        1 SN9      0.064700
     39 HAA2        1.1670   -0.2300   -1.8090 h1        1 SN9      0.064700
     40 HAA3        0.6740   -1.3990   -0.4740 h1        1 SN9      0.064700
     41 HAF         2.2720   -2.6690    0.5520 ha        1 SN9      0.171000
     42 HAE         3.1380   -3.5570    2.6900 ha        1 SN9      0.157000
     43 HAR         4.0590   -2.0590    4.3880 ha        1 SN9      0.098000
     44 HAC1        3.6200    1.6830   -0.3830 h1        1 SN9      0.066367
     45 HAC2        3.5190    3.3220    0.4110 h1        1 SN9      0.066367
     46 HAC3        2.0250    2.2720    0.2990 h1        1 SN9      0.066367
     47 HAU         2.3440    2.8410    3.0900 h1        1 SN9      0.086200
     48 HAU1        3.9400    3.5450    2.5520 h1        1 SN9      0.086200
     49 HAQ         4.3300    2.8030    4.8360 ha        1 SN9      0.158000
     50 HAX         4.5320   -0.7150    5.6620 hn        1 SN9      0.459800
     51 HBC         6.7480    1.0130    4.6910 hx        1 SN9      0.120700
     52 HAL         6.8160   -0.8620    7.1940 hc        1 SN9      0.091450
     53 HAL1        6.8800    0.9520    7.2270 hc        1 SN9      0.091450
     54 HAN         9.1360   -0.0220    7.4160 hc        1 SN9      0.085700
     55 HAN1        8.9670    0.9750    5.9070 hc        1 SN9      0.085700
     56 HAK         6.4960   -2.0870    4.9840 hc        1 SN9      0.091450
     57 HAK1        6.3000   -1.1430    3.4460 hc        1 SN9      0.091450
     58 HAM         8.6270   -0.2820    3.6200 hc        1 SN9      0.085700
     59 HAM1        8.5800   -2.0960    3.6400 hc        1 SN9      0.085700
     60 HBE         8.8260   -2.1230    6.1160 hc        1 SN9      0.091700
     61 HAV        11.2170   -3.0310    5.3070 hn        1 SN9      0.464300
     62 HBA        13.0490   -0.8010    5.9840 hx        1 SN9      0.125700
     63 HAH        13.5340   -3.8280    6.6120 hc        1 SN9      0.087950
     64 HAH1       13.2940   -2.5100    7.8390 hc        1 SN9      0.087950
     65 HAJ        15.3000   -1.3080    7.0270 hc        1 SN9      0.092450
     66 HAJ1       15.6730   -3.0080    7.5450 hc        1 SN9      0.092450
     67 HAG        12.9610   -1.5720    3.5930 hc        1 SN9      0.087950
     68 HAG1       13.3330   -3.2800    4.1010 hc        1 SN9      0.087950
     69 HAI        15.3460   -2.0910    3.2900 hc        1 SN9      0.092450
     70 HAI1       15.1080   -0.7650    4.5060 hc        1 SN9      0.092450
     71 HBB        15.6060   -3.7850    5.1460 hx        1 SN9      0.117700
     72 HAW        17.3640   -1.4050    5.1620 hn        1 SN9      0.455300
     73 HBD        17.2820   -3.2060    3.3490 hx        1 SN9      0.096700
     74 HAO        19.9090   -2.3750    4.8220 hc        1 SN9      0.072700
     75 HAO1       19.0680   -1.4690    3.4830 hc        1 SN9      0.072700
     76 HAS        21.0200   -2.8180    2.6840 h1        1 SN9      0.063450
     77 HAS1       19.4400   -3.2680    1.8880 h1        1 SN9      0.063450
     78 HAB1       21.3450   -6.4160    2.9070 h1        1 SN9      0.058367
     79 HAB2       20.6940   -5.5940    1.4100 h1        1 SN9      0.058367
     80 HAB3       22.0980   -4.8620    2.3230 h1        1 SN9      0.058367
     81 HAT        19.2870   -6.3860    4.0200 h1        1 SN9      0.063450
     82 HAT1       18.3540   -5.4980    2.7260 h1        1 SN9      0.063450
     83 HAP        17.2680   -5.1860    4.8830 hc        1 SN9      0.072700
     84 HAP1       18.8160   -4.6350    5.6690 hc        1 SN9      0.072700
     85 HAX2        4.7380    0.8470    6.2030 hn        1 SN9      0.459800
     86 HAV2       11.1730   -2.3270    6.8130 hn        1 SN9      0.464300
     87 HAW2       17.6180   -2.6450    6.2420 hn        1 SN9      0.455300
@<TRIPOS>BOND
     1    1    2 1   
     2    1   38 1   
     3    1   39 1   
     4    1   40 1   
     5    2    3 1   
     6    3    4 ar  
     7    3    8 ar  
     8    4    5 ar  
     9    4   41 1   
    10    5    6 ar  
    11    5   42 1   
    12    6    7 ar  
    13    6   43 1   
    14    7    8 ar  
    15    7   13 1   
    16    8    9 1   
    17    9   10 1   
    18    9   11 1   
    19   10   44 1   
    20   10   45 1   
    21   10   46 1   
    22   11   12 1   
    23   11   47 1   
    24   11   48 1   
    25   12   13 2   
    26   12   49 1   
    27   13   14 1   
    28   14   15 1   
    29   14   50 1   
    30   14   85 1   
    31   15   16 1   
    32   15   18 1   
    33   15   51 1   
    34   16   17 1   
    35   16   52 1   
    36   16   53 1   
    37   17   20 1   
    38   17   54 1   
    39   17   55 1   
    40   18   19 1   
    41   18   56 1   
    42   18   57 1   
    43   19   20 1   
    44   19   58 1   
    45   19   59 1   
    46   20   21 1   
    47   20   60 1   
    48   21   22 2   
    49   21   23 1   
    50   23   24 1   
    51   23   61 1   
    52   23   86 1   
    53   24   25 1   
    54   24   27 1   
    55   24   62 1   
    56   25   26 1   
    57   25   63 1   
    58   25   64 1   
    59   26   29 1   
    60   26   65 1   
    61   26   66 1   
    62   27   28 1   
    63   27   67 1   
    64   27   68 1   
    65   28   29 1   
    66   28   69 1   
    67   28   70 1   
    68   29   30 1   
    69   29   71 1   
    70   30   31 1   
    71   30   72 1   
    72   30   87 1   
    73   31   32 1   
    74   31   37 1   
    75   31   73 1   
    76   32   33 1   
    77   32   74 1   
    78   32   75 1   
    79   33   34 1   
    80   33   76 1   
    81   33   77 1   
    82   34   35 1   
    83   34   36 1   
    84   35   78 1   
    85   35   79 1   
    86   35   80 1   
    87   36   37 1   
    88   36   81 1   
    89   36   82 1   
    90   37   83 1   
    91   37   84 1   
@<TRIPOS>SUBSTRUCTURE
     1 SN9         1 TEMP              0 ****  ****    0 ROOT
