@<TRIPOS>MOLECULE
SN9
   84    88     1     0     0
SMALL
bcc


@<TRIPOS>ATOM
      1 CAA        10.3400    2.6200    1.2140 c3        1 SN9      0.114700
      2 OAY         9.4290    2.2540    0.1820 os        1 SN9     -0.340900
      3 CBG         8.7370    1.0670    0.3910 ca        1 SN9      0.049100
      4 CAF         9.3330    0.0110    1.0820 ca        1 SN9     -0.147000
      5 CAE         8.6690   -1.2030    1.2120 ca        1 SN9     -0.155000
      6 CAR         7.4020   -1.3580    0.6640 ca        1 SN9     -0.106000
      7 CBH         6.7670   -0.3080   -0.0060 ca        1 SN9     -0.102800
      8 CBI         7.4340    0.9450   -0.1830 ca        1 SN9      0.183600
      9 NBK         6.7740    1.9880   -0.8450 nh        1 SN9     -0.653000
     10 CAC         7.4490    3.2310   -1.1110 c3        1 SN9      0.199100
     11 CAU         5.8060    1.6070   -1.8610 c3        1 SN9      0.259000
     12 CAQ         4.9750    0.4340   -1.4830 c2        1 SN9     -0.279200
     13 CBF         5.4080   -0.4750   -0.5710 ce        1 SN9      0.169800
     14 NAX         4.6720   -1.6120   -0.1860 nh        1 SN9     -0.718000
     15 CBC         3.2500   -1.6690   -0.4830 c3        1 SN9      0.191500
     16 CAL         2.6870   -3.0700   -0.1800 c3        1 SN9     -0.096900
     17 CAN         1.2400   -3.1600   -0.6110 c3        1 SN9     -0.069400
     18 CAK         2.3960   -0.6280    0.2620 c3        1 SN9     -0.096900
     19 CAM         0.9470   -0.7180   -0.1630 c3        1 SN9     -0.069400
     20 CBE         0.3900   -2.1110    0.0890 c3        1 SN9     -0.133700
     21 CAZ        -1.0510   -2.1940   -0.4110 c         1 SN9      0.662100
     22 OAD        -1.3550   -2.8200   -1.4460 o         1 SN9     -0.609100
     23 NAV        -2.0080   -1.5490    0.3450 n         1 SN9     -0.573900
     24 CBA        -3.4080   -1.5180   -0.0110 c3        1 SN9      0.097700
     25 CAH        -4.3060   -2.0270    1.1300 c3        1 SN9     -0.089900
     26 CAJ        -5.7540   -2.0570    0.6950 c3        1 SN9     -0.091400
     27 CAG        -3.8810   -0.1110   -0.4170 c3        1 SN9     -0.089900
     28 CAI        -5.3300   -0.1430   -0.8450 c3        1 SN9     -0.091400
     29 CBB        -6.2320   -0.6500    0.2940 c3        1 SN9      0.176500
     30 NAW        -7.6570   -0.6580   -0.0030 n3        1 SN9     -0.822200
     31 CBD        -8.2880    0.6590   -0.0050 c3        1 SN9      0.179500
     32 CAO        -9.4930    0.7280   -0.9550 c3        1 SN9     -0.079400
     33 CAS       -10.1070    2.1250   -0.9300 c3        1 SN9      0.170300
     34 NBJ       -10.4840    2.5680    0.4050 n3        1 SN9     -0.732600
     35 CAB       -11.0650    3.8910    0.4000 c3        1 SN9      0.159100
     36 CAT        -9.4020    2.4420    1.3710 c3        1 SN9      0.170300
     37 CAP        -8.7710    1.0530    1.4000 c3        1 SN9     -0.079400
     38 HAA1       10.5260    3.7080    1.0300 h1        1 SN9      0.041033
     39 HAA2        9.8990    2.4590    2.2270 h1        1 SN9      0.041033
     40 HAA3       11.2900    2.0420    1.1050 h1        1 SN9      0.041033
     41 HAF        10.3390    0.1320    1.5100 ha        1 SN9      0.137000
     42 HAE         9.1510   -2.0390    1.7380 ha        1 SN9      0.134000
     43 HAR         6.9210   -2.3440    0.7540 ha        1 SN9      0.137000
     44 HAC1        6.7500    3.9240   -1.6490 h1        1 SN9      0.042033
     45 HAC2        7.7410    3.7050   -0.1370 h1        1 SN9      0.042033
     46 HAC3        8.3720    3.0910   -1.7380 h1        1 SN9      0.042033
     47 HAU         5.1250    2.4950   -2.0190 h1        1 SN9      0.035700
     48 HAU1        6.3200    1.3990   -2.8490 h1        1 SN9      0.035700
     49 HAQ         4.0050    0.3720   -1.9910 ha        1 SN9      0.137000
     50 HAX         4.8640   -1.8870    0.7570 hn        1 SN9      0.388800
     51 HBC         3.1340   -1.4900   -1.5950 h1        1 SN9      0.069700
     52 HAL         2.7720   -3.2860    0.9170 hc        1 SN9      0.050200
     53 HAL1        3.2830   -3.8460   -0.7280 hc        1 SN9      0.050200
     54 HAN         0.8380   -4.1800   -0.3740 hc        1 SN9      0.055450
     55 HAN1        1.1550   -3.0230   -1.7220 hc        1 SN9      0.055450
     56 HAK         2.7840    0.4020    0.0450 hc        1 SN9      0.050200
     57 HAK1        2.4780   -0.7960    1.3680 hc        1 SN9      0.050200
     58 HAM         0.3490    0.0420    0.4050 hc        1 SN9      0.055450
     59 HAM1        0.8570   -0.4740   -1.2540 hc        1 SN9      0.055450
     60 HBE         0.4080   -2.3180    1.1960 hc        1 SN9      0.062700
     61 HAV        -1.7300   -1.0260    1.1390 hn        1 SN9      0.305500
     62 HBA        -3.5460   -2.2050   -0.9020 h1        1 SN9      0.091700
     63 HAH        -4.1940   -1.3650    2.0290 hc        1 SN9      0.044700
     64 HAH1       -3.9920   -3.0610    1.4280 hc        1 SN9      0.044700
     65 HAJ        -6.3850   -2.4440    1.5380 hc        1 SN9      0.048450
     66 HAJ1       -5.8760   -2.7600   -0.1700 hc        1 SN9      0.048450
     67 HAG        -3.2540    0.2700   -1.2650 hc        1 SN9      0.044700
     68 HAG1       -3.7560    0.5970    0.4430 hc        1 SN9      0.044700
     69 HAI        -5.6420    0.8900   -1.1510 hc        1 SN9      0.048450
     70 HAI1       -5.4440   -0.8090   -1.7400 hc        1 SN9      0.048450
     71 HBB        -6.0820    0.0320    1.1840 h1        1 SN9      0.055700
     72 HAW        -7.8310   -1.1340   -0.8680 hn        1 SN9      0.361800
     73 HBD        -7.5510    1.4550   -0.3400 h1        1 SN9      0.020700
     74 HAO       -10.2590   -0.0320   -0.6530 hc        1 SN9      0.053950
     75 HAO1       -9.1770    0.5040   -2.0060 hc        1 SN9      0.053950
     76 HAS       -11.0430    2.1160   -1.5580 h1        1 SN9      0.029200
     77 HAS1       -9.3800    2.8440   -1.4140 h1        1 SN9      0.029200
     78 HAB1      -11.9470    3.8960   -0.2930 h1        1 SN9      0.031033
     79 HAB2      -11.4180    4.1350    1.4360 h1        1 SN9      0.031033
     80 HAB3      -10.3490    4.6940    0.0700 h1        1 SN9      0.031033
     81 HAT        -9.8350    2.6600    2.3880 h1        1 SN9      0.029200
     82 HAT1       -8.5880    3.2030    1.1800 h1        1 SN9      0.029200
     83 HAP        -7.9110    1.0710    2.1170 hc        1 SN9      0.053950
     84 HAP1       -9.5130    0.3000    1.7710 hc        1 SN9      0.053950
@<TRIPOS>BOND
     1    1    2 1   
     2    1   38 1   
     3    1   39 1   
     4    1   40 1   
     5    2    3 1   
     6    3    4 ar  
     7    3    8 ar  
     8    4    5 ar  
     9    4   41 1   
    10    5    6 ar  
    11    5   42 1   
    12    6    7 ar  
    13    6   43 1   
    14    7    8 ar  
    15    7   13 1   
    16    8    9 1   
    17    9   10 1   
    18    9   11 1   
    19   10   44 1   
    20   10   45 1   
    21   10   46 1   
    22   11   12 1   
    23   11   47 1   
    24   11   48 1   
    25   12   13 2   
    26   12   49 1   
    27   13   14 1   
    28   14   15 1   
    29   14   50 1   
    30   15   16 1   
    31   15   18 1   
    32   15   51 1   
    33   16   17 1   
    34   16   52 1   
    35   16   53 1   
    36   17   20 1   
    37   17   54 1   
    38   17   55 1   
    39   18   19 1   
    40   18   56 1   
    41   18   57 1   
    42   19   20 1   
    43   19   58 1   
    44   19   59 1   
    45   20   21 1   
    46   20   60 1   
    47   21   22 2   
    48   21   23 1   
    49   23   24 1   
    50   23   61 1   
    51   24   25 1   
    52   24   27 1   
    53   24   62 1   
    54   25   26 1   
    55   25   63 1   
    56   25   64 1   
    57   26   29 1   
    58   26   65 1   
    59   26   66 1   
    60   27   28 1   
    61   27   67 1   
    62   27   68 1   
    63   28   29 1   
    64   28   69 1   
    65   28   70 1   
    66   29   30 1   
    67   29   71 1   
    68   30   31 1   
    69   30   72 1   
    70   31   32 1   
    71   31   37 1   
    72   31   73 1   
    73   32   33 1   
    74   32   74 1   
    75   32   75 1   
    76   33   34 1   
    77   33   76 1   
    78   33   77 1   
    79   34   35 1   
    80   34   36 1   
    81   35   78 1   
    82   35   79 1   
    83   35   80 1   
    84   36   37 1   
    85   36   81 1   
    86   36   82 1   
    87   37   83 1   
    88   37   84 1   
@<TRIPOS>SUBSTRUCTURE
     1 SN9         1 TEMP              0 ****  ****    0 ROOT
