@<TRIPOS>MOLECULE
SN9
   87    91     1     0     0
SMALL
bcc


@<TRIPOS>ATOM
      1 CAA         1.5480   -0.9400   -1.0270 c3        1 SN9      0.105700
      2 OAY         2.2740   -0.0690   -0.1560 os        1 SN9     -0.327900
      3 CBG         2.7660   -0.6140    1.0080 ca        1 SN9      0.113100
      4 CAF         2.7190   -1.9780    1.2740 ca        1 SN9     -0.149000
      5 CAE         3.2010   -2.4800    2.4870 ca        1 SN9     -0.103000
      6 CAR         3.7240   -1.6190    3.4320 ca        1 SN9     -0.165000
      7 CBH         3.7980   -0.2360    3.1900 ca        1 SN9     -0.150800
      8 CBI         3.3360    0.3100    1.9550 ca        1 SN9      0.199600
      9 NBK         3.5270    1.6700    1.6930 nh        1 SN9     -0.656000
     10 CAC         3.1560    2.2550    0.4260 c3        1 SN9      0.188100
     11 CAU         3.4300    2.5790    2.8210 c3        1 SN9      0.228000
     12 CAQ         4.0700    2.0470    4.0610 c2        1 SN9     -0.104200
     13 CBF         4.2690    0.7150    4.2000 ce        1 SN9      0.004800
     14 NAX         4.9280    0.2050    5.4140 n4        1 SN9     -0.633800
     15 CBC         6.4230    0.0850    5.2510 c3        1 SN9      0.124500
     16 CAL         7.1320    0.0450    6.6120 c3        1 SN9     -0.104900
     17 CAN         8.6350    0.0220    6.4120 c3        1 SN9     -0.078900
     18 CAK         6.8190   -1.1560    4.4440 c3        1 SN9     -0.104900
     19 CAM         8.3180   -1.1790    4.2280 c3        1 SN9     -0.078900
     20 CBE         9.0620   -1.1770    5.5640 c3        1 SN9     -0.133700
     21 CAZ        10.5500   -1.0600    5.2870 c         1 SN9      0.546100
     22 OAD        11.1200   -0.1710    4.6810 o         1 SN9     -0.385100
     23 NAV        11.4230   -2.1840    5.8310 n4        1 SN9     -0.684800
     24 CBA        12.9090   -1.9190    5.7660 c3        1 SN9      0.118500
     25 CAH        13.6640   -2.7570    6.8070 c3        1 SN9     -0.098900
     26 CAJ        15.1420   -2.4190    6.7730 c3        1 SN9     -0.101400
     27 CAG        13.4840   -2.2000    4.3720 c3        1 SN9     -0.098900
     28 CAI        14.9630   -1.8690    4.3390 c3        1 SN9     -0.101400
     29 CBB        15.7270   -2.6980    5.3800 c3        1 SN9      0.115500
     30 NAW        17.2030   -2.4260    5.3460 n4        1 SN9     -0.771000
     31 CBD        17.9470   -3.2020    4.2710 c3        1 SN9      0.129500
     32 CAO        19.2640   -2.4940    3.9320 c3        1 SN9     -0.108400
     33 CAS        20.0190   -3.3070    2.8730 c3        1 SN9      0.174800
     34 NBJ        20.2520   -4.6740    3.3040 n3        1 SN9     -0.742600
     35 CAB        21.1280   -5.4180    2.4260 c3        1 SN9      0.154100
     36 CAT        19.0150   -5.3660    3.6170 c3        1 SN9      0.174800
     37 CAP        18.2170   -4.6440    4.7100 c3        1 SN9     -0.108400
     38 HAA1        0.6880   -1.4090   -0.4910 h1        1 SN9      0.064700
     39 HAA2        2.2290   -1.7160   -1.4540 h1        1 SN9      0.064700
     40 HAA3        1.1870   -0.2450   -1.8280 h1        1 SN9      0.064700
     41 HAF         2.2810   -2.6780    0.5440 ha        1 SN9      0.171000
     42 HAE         3.1400   -3.5610    2.6870 ha        1 SN9      0.157000
     43 HAR         4.0580   -2.0590    4.3830 ha        1 SN9      0.098000
     44 HAC1        3.6390    1.6690   -0.4010 h1        1 SN9      0.066367
     45 HAC2        3.5380    3.3100    0.3870 h1        1 SN9      0.066367
     46 HAC3        2.0430    2.2620    0.2740 h1        1 SN9      0.066367
     47 HAU         3.9520    3.5400    2.5290 h1        1 SN9      0.086200
     48 HAU1        2.3530    2.8390    3.0640 h1        1 SN9      0.086200
     49 HAQ         4.3340    2.8040    4.8160 ha        1 SN9      0.159000
     50 HAX         4.5290   -0.7120    5.6530 hn        1 SN9      0.459800
     51 HBC         6.7510    1.0120    4.6860 hx        1 SN9      0.120700
     52 HAL         6.8750    0.9530    7.2220 hc        1 SN9      0.091450
     53 HAL1        6.8090   -0.8610    7.1910 hc        1 SN9      0.091450
     54 HAN         8.9660    0.9720    5.9090 hc        1 SN9      0.085700
     55 HAN1        9.1290   -0.0240    7.4190 hc        1 SN9      0.085700
     56 HAK         6.3030   -1.1450    3.4410 hc        1 SN9      0.091450
     57 HAK1        6.4940   -2.0870    4.9810 hc        1 SN9      0.091450
     58 HAM         8.6310   -0.2860    3.6220 hc        1 SN9      0.085700
     59 HAM1        8.5820   -2.1000    3.6430 hc        1 SN9      0.085700
     60 HBE         8.8210   -2.1260    6.1200 hc        1 SN9      0.091700
     61 HAV        11.2110   -3.0370    5.2990 hn        1 SN9      0.464300
     62 HBA        13.0450   -0.8180    6.0030 hx        1 SN9      0.125700
     63 HAH        13.2810   -2.5450    7.8430 hc        1 SN9      0.088200
     64 HAH1       13.5210   -3.8520    6.6030 hc        1 SN9      0.088200
     65 HAJ        15.6600   -3.0460    7.5510 hc        1 SN9      0.092450
     66 HAJ1       15.2920   -1.3410    7.0490 hc        1 SN9      0.092450
     67 HAG        12.9630   -1.5640    3.6050 hc        1 SN9      0.088200
     68 HAG1       13.3310   -3.2780    4.0970 hc        1 SN9      0.088200
     69 HAI        15.3480   -2.0850    3.3050 hc        1 SN9      0.092450
     70 HAI1       15.1090   -0.7710    4.5330 hc        1 SN9      0.092450
     71 HBB        15.5980   -3.7990    5.1440 hx        1 SN9      0.117700
     72 HAW        17.3620   -1.4230    5.1910 hn        1 SN9      0.455300
     73 HBD        17.2810   -3.2030    3.3580 hx        1 SN9      0.096700
     74 HAO        19.0710   -1.4710    3.5160 hc        1 SN9      0.072700
     75 HAO1       19.9060   -2.3950    4.8480 hc        1 SN9      0.072700
     76 HAS        19.4430   -3.2530    1.9030 h1        1 SN9      0.063450
     77 HAS1       21.0220   -2.8160    2.7080 h1        1 SN9      0.063450
     78 HAB1       22.0960   -4.8590    2.3280 h1        1 SN9      0.058367
     79 HAB2       20.6930   -5.5770    1.4020 h1        1 SN9      0.058367
     80 HAB3       21.3380   -6.4170    2.8920 h1        1 SN9      0.058367
     81 HAT        19.2770   -6.3950    3.9990 h1        1 SN9      0.063450
     82 HAT1       18.3500   -5.4910    2.7120 h1        1 SN9      0.063450
     83 HAP        17.2580   -5.2000    4.8700 hc        1 SN9      0.072700
     84 HAP1       18.8050   -4.6620    5.6660 hc        1 SN9      0.072700
     85 HAX2        4.7360    0.8510    6.1910 hn        1 SN9      0.459800
     86 HAV2       11.1630   -2.3470    6.8120 hn        1 SN9      0.464300
     87 HAW2       17.6100   -2.6760    6.2570 hn        1 SN9      0.455300
@<TRIPOS>BOND
     1    1    2 1   
     2    1   38 1   
     3    1   39 1   
     4    1   40 1   
     5    2    3 1   
     6    3    4 ar  
     7    3    8 ar  
     8    4    5 ar  
     9    4   41 1   
    10    5    6 ar  
    11    5   42 1   
    12    6    7 ar  
    13    6   43 1   
    14    7    8 ar  
    15    7   13 1   
    16    8    9 1   
    17    9   10 1   
    18    9   11 1   
    19   10   44 1   
    20   10   45 1   
    21   10   46 1   
    22   11   12 1   
    23   11   47 1   
    24   11   48 1   
    25   12   13 2   
    26   12   49 1   
    27   13   14 1   
    28   14   15 1   
    29   14   50 1   
    30   14   85 1   
    31   15   16 1   
    32   15   18 1   
    33   15   51 1   
    34   16   17 1   
    35   16   52 1   
    36   16   53 1   
    37   17   20 1   
    38   17   54 1   
    39   17   55 1   
    40   18   19 1   
    41   18   56 1   
    42   18   57 1   
    43   19   20 1   
    44   19   58 1   
    45   19   59 1   
    46   20   21 1   
    47   20   60 1   
    48   21   22 2   
    49   21   23 1   
    50   23   24 1   
    51   23   61 1   
    52   23   86 1   
    53   24   25 1   
    54   24   27 1   
    55   24   62 1   
    56   25   26 1   
    57   25   63 1   
    58   25   64 1   
    59   26   29 1   
    60   26   65 1   
    61   26   66 1   
    62   27   28 1   
    63   27   67 1   
    64   27   68 1   
    65   28   29 1   
    66   28   69 1   
    67   28   70 1   
    68   29   30 1   
    69   29   71 1   
    70   30   31 1   
    71   30   72 1   
    72   30   87 1   
    73   31   32 1   
    74   31   37 1   
    75   31   73 1   
    76   32   33 1   
    77   32   74 1   
    78   32   75 1   
    79   33   34 1   
    80   33   76 1   
    81   33   77 1   
    82   34   35 1   
    83   34   36 1   
    84   35   78 1   
    85   35   79 1   
    86   35   80 1   
    87   36   37 1   
    88   36   81 1   
    89   36   82 1   
    90   37   83 1   
    91   37   84 1   
@<TRIPOS>SUBSTRUCTURE
     1 SN9         1 TEMP              0 ****  ****    0 ROOT
