@<TRIPOS>MOLECULE
SN9
   87    91     1     0     0
SMALL
bcc


@<TRIPOS>ATOM
      1 CAA         1.5380   -0.9170   -1.0130 c3        1 SN9      0.105700
      2 OAY         2.2660   -0.0480   -0.1420 os        1 SN9     -0.327900
      3 CBG         2.7600   -0.5960    1.0200 ca        1 SN9      0.113100
      4 CAF         2.7140   -1.9600    1.2830 ca        1 SN9     -0.149000
      5 CAE         3.1990   -2.4650    2.4930 ca        1 SN9     -0.103000
      6 CAR         3.7240   -1.6070    3.4390 ca        1 SN9     -0.165000
      7 CBH         3.7970   -0.2230    3.2010 ca        1 SN9     -0.150800
      8 CBI         3.3330    0.3260    1.9680 ca        1 SN9      0.199600
      9 NBK         3.5220    1.6870    1.7090 nh        1 SN9     -0.656000
     10 CAC         3.1480    2.2750    0.4450 c3        1 SN9      0.188100
     11 CAU         3.4280    2.5920    2.8390 c3        1 SN9      0.228000
     12 CAQ         4.0710    2.0580    4.0760 c2        1 SN9     -0.104200
     13 CBF         4.2710    0.7260    4.2110 ce        1 SN9      0.004800
     14 NAX         4.9330    0.2130    5.4230 n4        1 SN9     -0.633800
     15 CBC         6.4280    0.0930    5.2550 c3        1 SN9      0.124500
     16 CAL         7.1410    0.0530    6.6130 c3        1 SN9     -0.104900
     17 CAN         8.6430    0.0300    6.4090 c3        1 SN9     -0.078900
     18 CAK         6.8210   -1.1490    4.4470 c3        1 SN9     -0.104900
     19 CAM         8.3190   -1.1720    4.2260 c3        1 SN9     -0.078900
     20 CBE         9.0680   -1.1690    5.5600 c3        1 SN9     -0.133700
     21 CAZ        10.5540   -1.0530    5.2790 c         1 SN9      0.546100
     22 OAD        11.1220   -0.1700    4.6620 o         1 SN9     -0.385100
     23 NAV        11.4310   -2.1700    5.8320 n4        1 SN9     -0.684800
     24 CBA        12.9160   -1.9040    5.7580 c3        1 SN9      0.118500
     25 CAH        13.6760   -2.7280    6.8060 c3        1 SN9     -0.098900
     26 CAJ        15.1530   -2.3900    6.7620 c3        1 SN9     -0.101400
     27 CAG        13.4860   -2.2040    4.3650 c3        1 SN9     -0.098900
     28 CAI        14.9640   -1.8710    4.3220 c3        1 SN9     -0.101400
     29 CBB        15.7330   -2.6860    5.3710 c3        1 SN9      0.115500
     30 NAW        17.2090   -2.4130    5.3270 n4        1 SN9     -0.771000
     31 CBD        17.9500   -3.2040    4.2600 c3        1 SN9      0.129500
     32 CAO        19.2650   -2.5000    3.9060 c3        1 SN9     -0.108400
     33 CAS        20.0160   -3.3270    2.8560 c3        1 SN9      0.174800
     34 NBJ        20.2510   -4.6880    3.3040 n3        1 SN9     -0.742600
     35 CAB        21.1250   -5.4440    2.4340 c3        1 SN9      0.154100
     36 CAT        19.0170   -5.3770    3.6320 c3        1 SN9      0.174800
     37 CAP        18.2220   -4.6390    4.7180 c3        1 SN9     -0.108400
     38 HAA1        1.1750   -0.2200   -1.8120 h1        1 SN9      0.064700
     39 HAA2        0.6790   -1.3870   -0.4770 h1        1 SN9      0.064700
     40 HAA3        2.2180   -1.6920   -1.4440 h1        1 SN9      0.064700
     41 HAF         2.2750   -2.6590    0.5510 ha        1 SN9      0.171000
     42 HAE         3.1380   -3.5470    2.6910 ha        1 SN9      0.157000
     43 HAR         4.0600   -2.0490    4.3880 ha        1 SN9      0.098000
     44 HAC1        3.6290    1.6910   -0.3860 h1        1 SN9      0.066367
     45 HAC2        3.5300    3.3300    0.4070 h1        1 SN9      0.066367
     46 HAC3        2.0350    2.2820    0.2950 h1        1 SN9      0.066367
     47 HAU         2.3520    2.8520    3.0860 h1        1 SN9      0.086200
     48 HAU1        3.9490    3.5550    2.5490 h1        1 SN9      0.086200
     49 HAQ         4.3380    2.8130    4.8330 ha        1 SN9      0.158000
     50 HAX         4.5350   -0.7050    5.6600 hn        1 SN9      0.459800
     51 HBC         6.7540    1.0190    4.6890 hx        1 SN9      0.120700
     52 HAL         6.8850    0.9610    7.2250 hc        1 SN9      0.091450
     53 HAL1        6.8200   -0.8530    7.1940 hc        1 SN9      0.091450
     54 HAN         8.9730    0.9790    5.9050 hc        1 SN9      0.085700
     55 HAN1        9.1400   -0.0160    7.4140 hc        1 SN9      0.085700
     56 HAK         6.3020   -1.1370    3.4450 hc        1 SN9      0.091450
     57 HAK1        6.4970   -2.0790    4.9840 hc        1 SN9      0.091450
     58 HAM         8.5810   -2.0930    3.6410 hc        1 SN9      0.085700
     59 HAM1        8.6310   -0.2790    3.6190 hc        1 SN9      0.085700
     60 HBE         8.8280   -2.1180    6.1160 hc        1 SN9      0.091700
     61 HAV        11.1750   -2.3210    6.8160 hn        1 SN9      0.464300
     62 HBA        13.0520   -0.8000    5.9800 hx        1 SN9      0.126700
     63 HAH        13.2970   -2.5030    7.8410 hc        1 SN9      0.087950
     64 HAH1       13.5340   -3.8260    6.6170 hc        1 SN9      0.087950
     65 HAJ        15.6750   -3.0060    7.5460 hc        1 SN9      0.092450
     66 HAJ1       15.3040   -1.3080    7.0230 hc        1 SN9      0.092450
     67 HAG        13.3320   -3.2850    4.1050 hc        1 SN9      0.087950
     68 HAG1       12.9610   -1.5780    3.5920 hc        1 SN9      0.087950
     69 HAI        15.1100   -0.7710    4.5010 hc        1 SN9      0.092450
     70 HAI1       15.3450   -2.1010    3.2890 hc        1 SN9      0.092450
     71 HBB        15.6050   -3.7910    5.1490 hx        1 SN9      0.117700
     72 HAW        17.6190   -2.6500    6.2400 hn        1 SN9      0.455300
     73 HBD        17.2800   -3.2190    3.3500 hx        1 SN9      0.096700
     74 HAO        19.0690   -1.4830    3.4770 hc        1 SN9      0.072700
     75 HAO1       19.9100   -2.3880    4.8180 hc        1 SN9      0.072700
     76 HAS        21.0180   -2.8380    2.6800 h1        1 SN9      0.063450
     77 HAS1       19.4370   -3.2880    1.8870 h1        1 SN9      0.063450
     78 HAB1       21.3380   -6.4360    2.9130 h1        1 SN9      0.058367
     79 HAB2       20.6860   -5.6170    1.4140 h1        1 SN9      0.058367
     80 HAB3       22.0920   -4.8850    2.3240 h1        1 SN9      0.058367
     81 HAT        18.3480   -5.5140    2.7320 h1        1 SN9      0.063450
     82 HAT1       19.2800   -6.3990    4.0270 h1        1 SN9      0.063450
     83 HAP        18.8140   -4.6440    5.6720 hc        1 SN9      0.072700
     84 HAP1       17.2640   -5.1940    4.8890 hc        1 SN9      0.072700
     85 HAX2        4.7430    0.8580    6.2010 hn        1 SN9      0.459800
     86 HAV2       11.2170   -3.0290    5.3110 hn        1 SN9      0.464300
     87 HAW2       17.3660   -1.4130    5.1570 hn        1 SN9      0.455300
@<TRIPOS>BOND
     1    1    2 1   
     2    1   38 1   
     3    1   39 1   
     4    1   40 1   
     5    2    3 1   
     6    3    4 ar  
     7    3    8 ar  
     8    4    5 ar  
     9    4   41 1   
    10    5    6 ar  
    11    5   42 1   
    12    6    7 ar  
    13    6   43 1   
    14    7    8 ar  
    15    7   13 1   
    16    8    9 1   
    17    9   10 1   
    18    9   11 1   
    19   10   44 1   
    20   10   45 1   
    21   10   46 1   
    22   11   12 1   
    23   11   47 1   
    24   11   48 1   
    25   12   13 2   
    26   12   49 1   
    27   13   14 1   
    28   14   15 1   
    29   14   50 1   
    30   14   85 1   
    31   15   16 1   
    32   15   18 1   
    33   15   51 1   
    34   16   17 1   
    35   16   52 1   
    36   16   53 1   
    37   17   20 1   
    38   17   54 1   
    39   17   55 1   
    40   18   19 1   
    41   18   56 1   
    42   18   57 1   
    43   19   20 1   
    44   19   58 1   
    45   19   59 1   
    46   20   21 1   
    47   20   60 1   
    48   21   22 2   
    49   21   23 1   
    50   23   24 1   
    51   23   61 1   
    52   23   86 1   
    53   24   25 1   
    54   24   27 1   
    55   24   62 1   
    56   25   26 1   
    57   25   63 1   
    58   25   64 1   
    59   26   29 1   
    60   26   65 1   
    61   26   66 1   
    62   27   28 1   
    63   27   67 1   
    64   27   68 1   
    65   28   29 1   
    66   28   69 1   
    67   28   70 1   
    68   29   30 1   
    69   29   71 1   
    70   30   31 1   
    71   30   72 1   
    72   30   87 1   
    73   31   32 1   
    74   31   37 1   
    75   31   73 1   
    76   32   33 1   
    77   32   74 1   
    78   32   75 1   
    79   33   34 1   
    80   33   76 1   
    81   33   77 1   
    82   34   35 1   
    83   34   36 1   
    84   35   78 1   
    85   35   79 1   
    86   35   80 1   
    87   36   37 1   
    88   36   81 1   
    89   36   82 1   
    90   37   83 1   
    91   37   84 1   
@<TRIPOS>SUBSTRUCTURE
     1 SN9         1 TEMP              0 ****  ****    0 ROOT
