@<TRIPOS>MOLECULE
SNB
   33    35     1     0     0
SMALL
bcc


@<TRIPOS>ATOM
      1 CL          0.0550   -0.0720   -0.1100 cl        1 SNB     -0.066400
      2 C16         1.7500   -0.0440   -0.0290 ca        1 SNB     -0.022600
      3 C2          2.4400   -0.0940    1.2030 ca        1 SNB      0.153100
      4 O           1.6650   -0.1640    2.3400 os        1 SNB     -0.309900
      5 C1          2.3590   -0.2100    3.5820 c3        1 SNB      0.111700
      6 C15         2.4760    0.0290   -1.2190 ca        1 SNB     -0.062000
      7 C14         3.8730    0.0560   -1.2030 ca        1 SNB     -0.208900
      8 C4          4.5560   -0.0040    0.0250 ca        1 SNB     -0.017300
      9 C3          3.8410   -0.0740    1.2200 ca        1 SNB     -0.207000
     10 C7          4.6770    0.1030   -2.4440 ce        1 SNB      0.517500
     11 N           5.9540   -0.1190   -2.4800 n2        1 SNB     -0.573900
     12 C6          6.6700   -0.4140   -1.2710 c3        1 SNB      0.101800
     13 C5          6.0430    0.0350    0.0500 c3        1 SNB     -0.069100
     14 C8          3.9600    0.4170   -3.7020 ca        1 SNB     -0.129900
     15 C13         3.2240    1.6030   -3.8050 ca        1 SNB     -0.088000
     16 C12         2.5610    1.9080   -4.9970 ca        1 SNB     -0.031900
     17 BR          1.5770    3.4960   -5.1360 br        1 SNB     -0.085100
     18 C11         2.6330    1.0320   -6.0840 ca        1 SNB     -0.096000
     19 C10         3.3720   -0.1450   -5.9780 ca        1 SNB     -0.136000
     20 C9          4.0410   -0.4540   -4.7940 ca        1 SNB     -0.083000
     21 H15         1.9390    0.0640   -2.1820 ha        1 SNB      0.161000
     22 H3          4.3890   -0.1170    2.1720 ha        1 SNB      0.144000
     23 H11C        3.0000   -1.1230    3.6430 h1        1 SNB      0.048700
     24 H12C        1.5300   -0.2580    4.3340 h1        1 SNB      0.048700
     25 H13C        2.9710    0.7130    3.7280 h1        1 SNB      0.048700
     26 H51C        6.4350   -0.6150    0.8770 hc        1 SNB      0.061700
     27 H52C        6.3620    1.0890    0.2770 hc        1 SNB      0.061700
     28 H61C        6.8360   -1.5310   -1.2430 h1        1 SNB      0.068200
     29 H62C        7.6810    0.0730   -1.3760 h1        1 SNB      0.068200
     30 H13         3.1750    2.2880   -2.9440 ha        1 SNB      0.155000
     31 H9          4.6360   -1.3770   -4.7190 ha        1 SNB      0.149000
     32 H11         2.1120    1.2670   -7.0260 ha        1 SNB      0.148000
     33 H10         3.4320   -0.8310   -6.8360 ha        1 SNB      0.141000
@<TRIPOS>BOND
     1    1    2 1   
     2    2    3 ar  
     3    2    6 ar  
     4    3    4 1   
     5    3    9 ar  
     6    4    5 1   
     7    5   23 1   
     8    5   24 1   
     9    5   25 1   
    10    6    7 ar  
    11    6   21 1   
    12    7    8 ar  
    13    7   10 1   
    14    8    9 ar  
    15    8   13 1   
    16    9   22 1   
    17   10   11 2   
    18   10   14 1   
    19   11   12 1   
    20   12   13 1   
    21   12   28 1   
    22   12   29 1   
    23   13   26 1   
    24   13   27 1   
    25   14   15 ar  
    26   14   20 ar  
    27   15   16 ar  
    28   15   30 1   
    29   16   17 1   
    30   16   18 ar  
    31   18   19 ar  
    32   18   32 1   
    33   19   20 ar  
    34   19   33 1   
    35   20   31 1   
@<TRIPOS>SUBSTRUCTURE
     1 SNB         1 TEMP              0 ****  ****    0 ROOT
