@<TRIPOS>MOLECULE
SNB
   33    35     1     0     0
SMALL
bcc


@<TRIPOS>ATOM
      1 CL          1.7420   -2.7300   -1.1870 cl        1 SNB     -0.066400
      2 C16         2.0930   -1.2020   -0.5370 ca        1 SNB     -0.022600
      3 C2          3.3670   -0.8880   -0.0130 ca        1 SNB      0.153100
      4 O           4.3130   -1.8900   -0.0540 os        1 SNB     -0.309900
      5 C1          5.5950   -1.5770    0.4800 c3        1 SNB      0.111700
      6 C15         1.0890   -0.2330   -0.5240 ca        1 SNB     -0.062000
      7 C14         1.3300    1.0390    0.0020 ca        1 SNB     -0.208900
      8 C4          2.6030    1.3510    0.5130 ca        1 SNB     -0.017300
      9 C3          3.6130    0.3890    0.5080 ca        1 SNB     -0.207000
     10 C7          0.3000    2.1010    0.0070 ce        1 SNB      0.517500
     11 N           0.5570    3.3480    0.2530 n2        1 SNB     -0.573900
     12 C6          1.8980    3.7620    0.5580 c3        1 SNB      0.101800
     13 C5          2.8640    2.6990    1.0840 c3        1 SNB     -0.069100
     14 C8         -1.0920    1.6930   -0.2950 ca        1 SNB     -0.129900
     15 C13        -1.7100    0.7050    0.4800 ca        1 SNB     -0.088000
     16 C12        -3.0290    0.3320    0.2080 ca        1 SNB     -0.031900
     17 BR         -3.8570   -0.9900    1.2440 br        1 SNB     -0.085100
     18 C11        -3.7300    0.9450   -0.8350 ca        1 SNB     -0.096000
     19 C10        -3.1120    1.9320   -1.6000 ca        1 SNB     -0.136000
     20 C9         -1.7980    2.3140   -1.3310 ca        1 SNB     -0.083000
     21 H15         0.0940   -0.4750   -0.9350 ha        1 SNB      0.161000
     22 H3          4.6010    0.6460    0.9150 ha        1 SNB      0.144000
     23 H11C        6.0690   -0.7440   -0.0940 h1        1 SNB      0.048700
     24 H12C        5.5190   -1.3180    1.5640 h1        1 SNB      0.048700
     25 H13C        6.1680   -2.5290    0.3400 h1        1 SNB      0.048700
     26 H51C        2.7720    2.6300    2.2030 hc        1 SNB      0.061700
     27 H52C        3.9150    3.0200    0.8570 hc        1 SNB      0.061700
     28 H61C        2.3280    4.2250   -0.3780 h1        1 SNB      0.068200
     29 H62C        1.8080    4.5810    1.3280 h1        1 SNB      0.068200
     30 H13        -1.1500    0.2290    1.3010 ha        1 SNB      0.155000
     31 H9         -1.3180    3.1050   -1.9270 ha        1 SNB      0.149000
     32 H11        -4.7690    0.6540   -1.0550 ha        1 SNB      0.148000
     33 H10        -3.6670    2.4170   -2.4170 ha        1 SNB      0.141000
@<TRIPOS>BOND
     1    1    2 1   
     2    2    3 ar  
     3    2    6 ar  
     4    3    4 1   
     5    3    9 ar  
     6    4    5 1   
     7    5   23 1   
     8    5   24 1   
     9    5   25 1   
    10    6    7 ar  
    11    6   21 1   
    12    7    8 ar  
    13    7   10 1   
    14    8    9 ar  
    15    8   13 1   
    16    9   22 1   
    17   10   11 2   
    18   10   14 1   
    19   11   12 1   
    20   12   13 1   
    21   12   28 1   
    22   12   29 1   
    23   13   26 1   
    24   13   27 1   
    25   14   15 ar  
    26   14   20 ar  
    27   15   16 ar  
    28   15   30 1   
    29   16   17 1   
    30   16   18 ar  
    31   18   19 ar  
    32   18   32 1   
    33   19   20 ar  
    34   19   33 1   
    35   20   31 1   
@<TRIPOS>SUBSTRUCTURE
     1 SNB         1 TEMP              0 ****  ****    0 ROOT
