@<TRIPOS>MOLECULE
SNB
   33    35     1     0     0
SMALL
bcc


@<TRIPOS>ATOM
      1 CL          0.0580   -0.0320   -0.1010 cl        1 SNB     -0.066400
      2 C16         1.7530   -0.0230   -0.0240 ca        1 SNB     -0.022600
      3 C2          2.4450   -0.0780    1.2070 ca        1 SNB      0.153100
      4 O           1.6710   -0.1360    2.3450 os        1 SNB     -0.309900
      5 C1          2.3680   -0.1840    3.5860 c3        1 SNB      0.111700
      6 C15         2.4780    0.0390   -1.2160 ca        1 SNB     -0.062000
      7 C14         3.8740    0.0500   -1.2030 ca        1 SNB     -0.208900
      8 C4          4.5600   -0.0150    0.0240 ca        1 SNB     -0.017300
      9 C3          3.8460   -0.0740    1.2210 ca        1 SNB     -0.207000
     10 C7          4.6760    0.0860   -2.4450 ce        1 SNB      0.517500
     11 N           5.9510   -0.1520   -2.4830 n2        1 SNB     -0.573900
     12 C6          6.6650   -0.4540   -1.2750 c3        1 SNB      0.101800
     13 C5          6.0470    0.0060    0.0460 c3        1 SNB     -0.069100
     14 C8          3.9600    0.4060   -3.7030 ca        1 SNB     -0.129900
     15 C13         3.2370    1.6010   -3.8050 ca        1 SNB     -0.088000
     16 C12         2.5760    1.9120   -4.9950 ca        1 SNB     -0.031900
     17 BR          1.6090    3.5100   -5.1340 br        1 SNB     -0.085100
     18 C11         2.6370    1.0350   -6.0830 ca        1 SNB     -0.096000
     19 C10         3.3630   -0.1500   -5.9770 ca        1 SNB     -0.136000
     20 C9          4.0300   -0.4660   -4.7940 ca        1 SNB     -0.083000
     21 H15         1.9380    0.0790   -2.1780 ha        1 SNB      0.161000
     22 H3          4.3960   -0.1200    2.1720 ha        1 SNB      0.144000
     23 H11C        2.9900    0.7330    3.7260 h1        1 SNB      0.048700
     24 H12C        2.9980   -1.1030    3.6500 h1        1 SNB      0.048700
     25 H13C        1.5400   -0.2190    4.3400 h1        1 SNB      0.048700
     26 H51C        6.4330   -0.6450    0.8730 hc        1 SNB      0.061700
     27 H52C        6.3790    1.0580    0.2690 hc        1 SNB      0.061700
     28 H61C        6.8170   -1.5720   -1.2450 h1        1 SNB      0.068200
     29 H62C        7.6830    0.0210   -1.3830 h1        1 SNB      0.068200
     30 H13         3.1970    2.2860   -2.9440 ha        1 SNB      0.155000
     31 H9          4.6150   -1.3950   -4.7190 ha        1 SNB      0.149000
     32 H11         2.1170    1.2750   -7.0230 ha        1 SNB      0.148000
     33 H10         3.4140   -0.8370   -6.8350 ha        1 SNB      0.141000
@<TRIPOS>BOND
     1    1    2 1   
     2    2    3 ar  
     3    2    6 ar  
     4    3    4 1   
     5    3    9 ar  
     6    4    5 1   
     7    5   23 1   
     8    5   24 1   
     9    5   25 1   
    10    6    7 ar  
    11    6   21 1   
    12    7    8 ar  
    13    7   10 1   
    14    8    9 ar  
    15    8   13 1   
    16    9   22 1   
    17   10   11 2   
    18   10   14 1   
    19   11   12 1   
    20   12   13 1   
    21   12   28 1   
    22   12   29 1   
    23   13   26 1   
    24   13   27 1   
    25   14   15 ar  
    26   14   20 ar  
    27   15   16 ar  
    28   15   30 1   
    29   16   17 1   
    30   16   18 ar  
    31   18   19 ar  
    32   18   32 1   
    33   19   20 ar  
    34   19   33 1   
    35   20   31 1   
@<TRIPOS>SUBSTRUCTURE
     1 SNB         1 TEMP              0 ****  ****    0 ROOT
