@<TRIPOS>MOLECULE
SNB
   33    35     1     0     0
SMALL
bcc


@<TRIPOS>ATOM
      1 Cl          0.0540   -0.0780   -0.1120 cl        1 SNB     -0.066400
      2 C16         1.7500   -0.0480   -0.0310 ca        1 SNB     -0.022600
      3 C2          2.4390   -0.0970    1.2020 ca        1 SNB      0.153100
      4 O           1.6620   -0.1670    2.3380 os        1 SNB     -0.309900
      5 C1          2.3560   -0.2090    3.5810 c3        1 SNB      0.111700
      6 C15         2.4760    0.0250   -1.2200 ca        1 SNB     -0.062000
      7 C14         3.8730    0.0540   -1.2030 ca        1 SNB     -0.208900
      8 C4          4.5560   -0.0050    0.0250 ca        1 SNB     -0.017300
      9 C3          3.8390   -0.0760    1.2200 ca        1 SNB     -0.207000
     10 C7          4.6770    0.1020   -2.4440 ce        1 SNB      0.517500
     11 N           5.9550   -0.1190   -2.4790 n2        1 SNB     -0.573900
     12 C6          6.6700   -0.4140   -1.2700 c3        1 SNB      0.101800
     13 C5          6.0420    0.0350    0.0510 c3        1 SNB     -0.069100
     14 C8          3.9610    0.4170   -3.7020 ca        1 SNB     -0.129900
     15 C13         3.2230    1.6020   -3.8040 ca        1 SNB     -0.088000
     16 C12         2.5610    1.9090   -4.9950 ca        1 SNB     -0.031900
     17 Br          1.5740    3.4940   -5.1330 br        1 SNB     -0.085100
     18 C11         2.6360    1.0350   -6.0840 ca        1 SNB     -0.096000
     19 C10         3.3770   -0.1410   -5.9800 ca        1 SNB     -0.136000
     20 C9          4.0450   -0.4510   -4.7960 ca        1 SNB     -0.083000
     21 H15         1.9390    0.0600   -2.1830 ha        1 SNB      0.161000
     22 H3          4.3880   -0.1170    2.1720 ha        1 SNB      0.144000
     23 H11C        1.5270   -0.2560    4.3330 h1        1 SNB      0.048700
     24 H12C        2.9660    0.7160    3.7250 h1        1 SNB      0.048700
     25 H13C        2.9980   -1.1200    3.6450 h1        1 SNB      0.048700
     26 H51C        6.3610    1.0890    0.2780 hc        1 SNB      0.061700
     27 H52C        6.4340   -0.6140    0.8780 hc        1 SNB      0.061700
     28 H61C        6.8360   -1.5310   -1.2410 h1        1 SNB      0.068200
     29 H62C        7.6810    0.0730   -1.3740 h1        1 SNB      0.068200
     30 H13         3.1710    2.2850   -2.9410 ha        1 SNB      0.155000
     31 H9          4.6420   -1.3730   -4.7220 ha        1 SNB      0.149000
     32 H11         2.1160    1.2710   -7.0260 ha        1 SNB      0.148000
     33 H10         3.4400   -0.8250   -6.8390 ha        1 SNB      0.141000
@<TRIPOS>BOND
     1    1    2 1   
     2    2    3 ar  
     3    2    6 ar  
     4    3    4 1   
     5    3    9 ar  
     6    4    5 1   
     7    5   23 1   
     8    5   24 1   
     9    5   25 1   
    10    6    7 ar  
    11    6   21 1   
    12    7    8 ar  
    13    7   10 1   
    14    8    9 ar  
    15    8   13 1   
    16    9   22 1   
    17   10   11 2   
    18   10   14 1   
    19   11   12 1   
    20   12   13 1   
    21   12   28 1   
    22   12   29 1   
    23   13   26 1   
    24   13   27 1   
    25   14   15 ar  
    26   14   20 ar  
    27   15   16 ar  
    28   15   30 1   
    29   16   17 1   
    30   16   18 ar  
    31   18   19 ar  
    32   18   32 1   
    33   19   20 ar  
    34   19   33 1   
    35   20   31 1   
@<TRIPOS>SUBSTRUCTURE
     1 SNB         1 TEMP              0 ****  ****    0 ROOT
