@<TRIPOS>MOLECULE
SNC
   14    13     1     0     0
SMALL
bcc


@<TRIPOS>ATOM
      1 N           1.5850   -0.0240    0.3560 n3        1 SNC     -0.887800
      2 CA          0.2690    0.3470    0.8550 c3        1 SNC      0.005500
      3 CB         -0.8620   -0.1290   -0.0350 c3        1 SNC      0.076700
      4 SG         -0.8680    0.6170   -1.6760 ss        1 SNC     -0.263600
      5 ND          0.3350   -0.2270   -2.4910 n2        1 SNC      0.120800
      6 OE          0.6300    0.0610   -3.5710 o         1 SNC     -0.185300
      7 C          -0.0460   -0.1490    2.3160 c         1 SNC      0.894600
      8 O           0.8960   -0.6790    2.9660 o         1 SNC     -0.831300
      9 OXT        -1.2170    0.0340    2.7440 o         1 SNC     -0.831300
     10 H           1.6180   -1.0230    0.2460 hn        1 SNC      0.336300
     11 H2          2.2490    0.2020    1.0780 hn        1 SNC      0.336300
     12 HA          0.2440    1.4750    0.8980 h1        1 SNC      0.057700
     13 HB2        -0.8630   -1.2380   -0.1340 h1        1 SNC      0.085200
     14 HB3        -1.8320    0.2040    0.4160 h1        1 SNC      0.085200
@<TRIPOS>BOND
     1    1    2 1   
     2    1   10 1   
     3    1   11 1   
     4    2    3 1   
     5    2    7 1   
     6    2   12 1   
     7    3    4 1   
     8    3   13 1   
     9    3   14 1   
    10    4    5 1   
    11    5    6 2   
    12    7    8 1   
    13    7    9 1   
@<TRIPOS>SUBSTRUCTURE
     1 SNC         1 TEMP              0 ****  ****    0 ROOT
