@<TRIPOS>MOLECULE
SNE
   26    27     1     0     0
SMALL
bcc


@<TRIPOS>ATOM
      1 C6          0.0580    0.5020    0.0970 c2        1 SNE     -0.225000
      2 C1          1.3140    0.0630    0.0560 c2        1 SNE     -0.086400
      3 C7          2.2280   -0.0370    1.2160 cx        1 SNE     -0.092500
      4 C9          3.4950    0.7770    1.1500 cx        1 SNE     -0.106400
      5 C4          2.0170   -0.4310   -1.1750 c3        1 SNE     -0.050200
      6 C3          3.4040   -0.9310   -0.7530 c3        1 SNE     -0.047400
      7 C8          3.5330   -0.6740    0.7330 cx        1 SNE     -0.109000
      8 C2          4.2960   -1.6610    1.5640 c3        1 SNE     -0.026700
      9 C           3.5890   -3.0000    1.6370 c3        1 SNE     -0.087600
     10 C5          5.7090   -1.8340    1.0410 c3        1 SNE     -0.087600
     11 H1         -0.4110    0.8530    1.0240 ha        1 SNE      0.114000
     12 H2         -0.5780    0.5380   -0.7970 ha        1 SNE      0.114000
     13 H4          1.7760   -0.2760    2.1910 hc        1 SNE      0.092700
     14 H5          3.9770    1.0650    2.1000 hc        1 SNE      0.071700
     15 H6          3.5950    1.5580    0.3760 hc        1 SNE      0.071700
     16 H7          2.1080    0.3970   -1.9230 hc        1 SNE      0.051200
     17 H8          4.2080   -0.3930   -1.3140 hc        1 SNE      0.048200
     18 H9          3.5070   -2.0240   -0.9690 hc        1 SNE      0.048200
     19 H10         4.3610   -1.2490    2.6140 hc        1 SNE      0.045700
     20 H11         2.5370   -2.8620    1.9860 hc        1 SNE      0.034700
     21 H12         3.5690   -3.4960    0.6380 hc        1 SNE      0.034700
     22 H13         4.1200   -3.6720    2.3530 hc        1 SNE      0.034700
     23 H14         6.2450   -0.8550    1.0400 hc        1 SNE      0.034700
     24 H15         6.2710   -2.5500    1.6870 hc        1 SNE      0.034700
     25 H16         5.6960   -2.2310   -0.0030 hc        1 SNE      0.034700
     26 H3          1.4300   -1.2560   -1.6520 hc        1 SNE      0.051200
@<TRIPOS>BOND
     1    1    2 2   
     2    1   11 1   
     3    1   12 1   
     4    2    3 1   
     5    2    5 1   
     6    3    4 1   
     7    3    7 1   
     8    3   13 1   
     9    4    7 1   
    10    4   14 1   
    11    4   15 1   
    12    5    6 1   
    13    5   16 1   
    14    5   26 1   
    15    6    7 1   
    16    6   17 1   
    17    6   18 1   
    18    7    8 1   
    19    8    9 1   
    20    8   10 1   
    21    8   19 1   
    22    9   20 1   
    23    9   21 1   
    24    9   22 1   
    25   10   23 1   
    26   10   24 1   
    27   10   25 1   
@<TRIPOS>SUBSTRUCTURE
     1 SNE         1 TEMP              0 ****  ****    0 ROOT
