@<TRIPOS>MOLECULE
SNG
   33    32     1     0     0
SMALL
bcc


@<TRIPOS>ATOM
      1 C1          0.5540   -0.7420    1.2060 cx        1 SNG     -0.069000
      2 C2          1.9780   -0.4090    0.7310 c3        1 SNG     -0.007000
      3 C3          2.7320    0.0020    2.0450 c3        1 SNG     -0.018000
      4 C4          1.6520    0.4040    3.0870 c3        1 SNG      0.030000
      5 C5          0.3660   -0.2500    2.6040 cx        1 SNG     -0.031000
      6 C6         -1.0800    3.2800    1.7210 c1        1 SNG     -0.020000
      7 C7          2.7680   -1.5300   -1.3550 c2        1 SNG      0.302000
      8 C8          2.5080   -0.3150   -2.2020 c3        1 SNG     -0.244000
      9 N2          2.6290   -1.4700    0.0260 n         1 SNG     -0.383000
     10 O3          3.5430    1.1360    1.8250 oh        1 SNG     -0.322000
     11 O4          1.9550   -0.1250    4.3620 oh        1 SNG     -0.313000
     12 O5         -0.2200    0.4410    1.4860 os        1 SNG     -0.282000
     13 O6         -1.3940    2.9280    0.5300 oh        1 SNG     -0.164000
     14 O7          3.1560   -2.6060   -1.8500 o         1 SNG     -0.358000
     15 SE         -0.5950    1.3370   -2.2740 sh        1 SNG     -0.054000
     16 H1         -1.8090    0.8190   -2.1820 hs        1 SNG      0.043000
     17 H2         -0.0010   -1.5670    0.7340 h1        1 SNG      0.158000
     18 H3          1.9230    0.5080    0.0710 h1        1 SNG      0.137000
     19 H4          3.3480   -0.8470    2.4500 h1        1 SNG      0.104000
     20 H5          1.5480    1.5230    3.1270 h1        1 SNG      0.123000
     21 H6C1       -0.3350   -0.6490    3.3530 h1        1 SNG      0.171000
     22 H6C2       -0.3120    2.6710    2.2600 ha        1 SNG     -0.002000
     23 H8C1        1.4330   -0.0040   -2.1360 hc        1 SNG      0.114667
     24 H8C2        3.1550    0.5370   -1.8800 hc        1 SNG      0.114667
     25 H8C3        2.7440   -0.5660   -3.2660 hc        1 SNG      0.114667
     26 HMC1       -1.5340    3.5060   -1.8560 h1        1 SNG      0.112667
     27 HMC2       -0.0370    3.5140   -2.8840 h1        1 SNG      0.112667
     28 HMC3       -1.6330    3.0500   -3.6100 h1        1 SNG      0.112667
     29 HA          2.7600   -2.3220    0.5260 hn        1 SNG      0.230000
     30 HB          4.2430    0.8680    1.2170 ho        1 SNG      0.214000
     31 HC          2.7070    0.3820    4.6940 ho        1 SNG      0.218000
     32 H6         -0.9400    2.1370    0.1450 ho        1 SNG      0.177000
     33 CM         -1.0060    2.9970   -2.6940 c3        1 SNG     -0.320000
@<TRIPOS>BOND
     1    1    2 1   
     2    1    5 1   
     3    1   12 1   
     4    1   17 1   
     5    2    3 1   
     6    2    9 1   
     7    2   18 1   
     8    3    4 1   
     9    3   10 1   
    10    3   19 1   
    11    4    5 1   
    12    4   11 1   
    13    4   20 1   
    14    5   12 1   
    15    5   21 1   
    16    6   13 1   
    17    6   22 1   
    18    7    8 1   
    19    7    9 1   
    20    7   14 1   
    21    8   23 1   
    22    8   24 1   
    23    8   25 1   
    24    9   29 1   
    25   10   30 1   
    26   11   31 1   
    27   13   32 1   
    28   15   16 1   
    29   15   33 1   
    30   26   33 1   
    31   27   33 1   
    32   28   33 1   
@<TRIPOS>SUBSTRUCTURE
     1 SNG         1 TEMP              0 ****  ****    0 ROOT
