@<TRIPOS>MOLECULE
SNG
   33    33     1     0     0
SMALL
bcc


@<TRIPOS>ATOM
      1 C1         37.6000   46.8220   13.8290 c3        1 SNG      0.188200
      2 C2         36.1840   46.4380   14.3270 c3        1 SNG      0.050700
      3 C3         36.0850   44.8880   14.2790 c3        1 SNG      0.093100
      4 C4         36.3850   44.3990   12.8510 c3        1 SNG      0.118100
      5 C5         37.7560   44.9170   12.3960 c3        1 SNG      0.098100
      6 C6         38.0590   44.6120   10.9200 c3        1 SNG      0.143400
      7 C7         34.7090   47.6140   15.9570 c         1 SNG      0.656100
      8 C8         33.5410   47.5740   15.0080 c3        1 SNG     -0.176100
      9 N2         35.8910   46.9620   15.6320 n         1 SNG     -0.572900
     10 O3         34.7670   44.4470   14.5570 oh        1 SNG     -0.606800
     11 O4         36.4440   42.9820   12.8240 oh        1 SNG     -0.607800
     12 O5         37.7880   46.3430   12.5070 os        1 SNG     -0.396600
     13 O6         36.9880   43.9920   10.2480 oh        1 SNG     -0.597800
     14 O7         34.6360   48.1800   17.0650 o         1 SNG     -0.595100
     15 SE         37.9330   48.5660   13.7930 ss        1 SNG     -0.239200
     16 H1         38.3830   46.3950   14.5150 h2        1 SNG      0.078700
     17 H2         35.4370   46.8390   13.5760 h1        1 SNG      0.081700
     18 H3         36.8090   44.4240   15.0040 h1        1 SNG      0.056700
     19 H4         35.5820   44.7600   12.1490 h1        1 SNG      0.078700
     20 H5         38.5570   44.4770   13.0530 h1        1 SNG      0.057700
     21 H6C1       38.2330   45.5720   10.3590 h1        1 SNG      0.062200
     22 H6C2       38.9780   43.9700   10.8680 h1        1 SNG      0.062200
     23 H8C1       33.3560   46.5350   14.6390 hc        1 SNG      0.071367
     24 H8C2       32.6320   47.9410   15.5450 hc        1 SNG      0.071367
     25 H8C3       33.7400   48.2450   14.1370 hc        1 SNG      0.071367
     26 HMC1       36.9170   48.6900   11.6230 h1        1 SNG      0.071033
     27 HMC2       35.7710   49.1730   12.9380 h1        1 SNG      0.071033
     28 HMC3       37.1260   50.2860   12.4670 h1        1 SNG      0.071033
     29 HA         36.6650   47.1020   16.2440 hn        1 SNG      0.320500
     30 HB         34.6020   44.6080   15.4950 ho        1 SNG      0.420000
     31 HC         35.5920   42.6680   13.1570 ho        1 SNG      0.428000
     32 H6         36.8350   43.1340   10.6690 ho        1 SNG      0.417000
     33 CM         36.8300   49.2180   12.5990 c3        1 SNG     -0.045000
@<TRIPOS>BOND
     1    1    2 1   
     2    1   12 1   
     3    1   15 1   
     4    1   16 1   
     5    2    3 1   
     6    2    9 1   
     7    2   17 1   
     8    3    4 1   
     9    3   10 1   
    10    3   18 1   
    11    4    5 1   
    12    4   11 1   
    13    4   19 1   
    14    5    6 1   
    15    5   12 1   
    16    5   20 1   
    17    6   13 1   
    18    6   21 1   
    19    6   22 1   
    20    7    8 1   
    21    7    9 1   
    22    7   14 2   
    23    8   23 1   
    24    8   24 1   
    25    8   25 1   
    26    9   29 1   
    27   10   30 1   
    28   11   31 1   
    29   13   32 1   
    30   15   33 1   
    31   26   33 1   
    32   27   33 1   
    33   28   33 1   
@<TRIPOS>SUBSTRUCTURE
     1 SNG         1 TEMP              0 ****  ****    0 ROOT
