@<TRIPOS>MOLECULE
SNG
   33    32     1     0     0
SMALL
bcc


@<TRIPOS>ATOM
      1 C1         -0.8360   -0.1440   -0.4240 c3        1 SNG     -0.092000
      2 C2          0.6650   -0.1420   -0.3860 c3        1 SNG     -0.014000
      3 C3          1.1920   -0.1180    0.9960 c3        1 SNG     -0.019000
      4 C4          0.5950    0.9800    1.8100 c3        1 SNG     -0.023000
      5 C5         -0.9180    0.9770    1.7600 c3        1 SNG      0.021000
      6 C6         -1.4350    2.2260    2.4580 c3        1 SNG     -0.015000
      7 C7          2.0140   -1.2230   -2.2250 c1        1 SNG      0.317000
      8 C8          2.5520   -2.4540   -2.9160 c2        1 SNG     -0.240000
      9 CM         -3.2400   -0.4680   -2.3460 c3        1 SNG     -0.342000
     10 N2          1.1660   -1.3550   -1.0690 n3        1 SNG     -0.378000
     11 O3          2.6490    0.0670    0.9460 oh        1 SNG     -0.330000
     12 O4          1.0120    0.8260    3.1690 oh        1 SNG     -0.324000
     13 O5         -1.4300    0.9520    0.4000 os        1 SNG     -0.253000
     14 O6         -2.8300    2.2260    2.4470 oh        1 SNG     -0.328000
     15 O7          2.3140   -0.1160   -2.6350 o         1 SNG     -0.385000
     16 SE         -1.3960    0.0630   -2.1930 ss        1 SNG      0.105000
     17 H1         -1.1650   -1.0150   -0.0850 h2        1 SNG      0.100000
     18 H2          1.0000    0.6700   -0.8760 h1        1 SNG      0.139000
     19 H3          0.9990   -0.9600    1.4190 h1        1 SNG      0.122000
     20 H4          0.9140    1.8170    1.4820 h1        1 SNG      0.092000
     21 H5         -1.2500    0.1840    2.2390 h1        1 SNG      0.115000
     22 H6C1       -1.1060    3.0180    1.9920 h1        1 SNG      0.088000
     23 H6C2       -1.1260    2.2360    3.3610 h1        1 SNG      0.088000
     24 H8C1        3.0640   -2.9890   -2.2800 ha        1 SNG      0.109000
     25 H8C2        3.1340   -2.1830   -3.6570 ha        1 SNG      0.109000
     26 H8C3        1.8070   -2.9840   -3.2630 ha        1 SNG      0.109000
     27 HMC1       -3.5050   -0.4660   -3.2890 h1        1 SNG      0.111333
     28 HMC2       -3.8130    0.1680   -1.8410 h1        1 SNG      0.111333
     29 HMC3       -3.3510   -1.3800   -1.9740 h1        1 SNG      0.111333
     30 HA          0.8440   -2.1810   -0.8290 hn        1 SNG      0.234000
     31 HB          3.0490   -0.5870    1.4090 ho        1 SNG      0.232000
     32 HC          1.5590    1.5000    3.3910 ho        1 SNG      0.225000
     33 H6         -3.1310    2.8540    3.0060 ho        1 SNG      0.202000
@<TRIPOS>BOND
     1    1    2 1   
     2    1   13 1   
     3    1   16 1   
     4    1   17 1   
     5    2    3 1   
     6    2   10 1   
     7    2   18 1   
     8    3    4 1   
     9    3   11 1   
    10    3   19 1   
    11    4    5 1   
    12    4   12 1   
    13    4   20 1   
    14    5    6 1   
    15    5   13 1   
    16    5   21 1   
    17    6   14 1   
    18    6   22 1   
    19    6   23 1   
    20    7   10 1   
    21    7   15 1   
    22    8   24 1   
    23    8   25 1   
    24    8   26 1   
    25    9   16 1   
    26    9   27 1   
    27    9   28 1   
    28    9   29 1   
    29   10   30 1   
    30   11   31 1   
    31   12   32 1   
    32   14   33 1   
@<TRIPOS>SUBSTRUCTURE
     1 SNG         1 TEMP              0 ****  ****    0 ROOT
