@<TRIPOS>MOLECULE
SNH
   45    47     1     0     0
SMALL
bcc


@<TRIPOS>ATOM
      1 C1         -0.5130   -0.0620   -0.5290 cc        1 SNH     -0.016100
      2 C2          0.7420    0.4430   -0.8480 cd        1 SNH     -0.206000
      3 C3          1.7100    0.1230    0.1640 cd        1 SNH      0.204600
      4 C4          1.1080   -0.6060    1.2090 cc        1 SNH     -0.322700
      5 S5         -0.5060   -0.8820    0.9230 ss        1 SNH      0.184200
      6 C6          1.8220   -1.0970    2.3780 c         1 SNH      0.677700
      7 O7          1.8540   -2.2420    2.8280 o         1 SNH     -0.477000
      8 O8          2.6000   -0.2140    3.0830 oh        1 SNH     -0.590100
      9 N9          3.0510    0.4690    0.1170 nh        1 SNH     -0.745500
     10 S11         3.9100    1.0800   -1.1520 sy        1 SNH      1.521200
     11 O12         4.9760    1.8140   -0.5970 o         1 SNH     -0.646300
     12 O13         3.0630    1.7840   -2.0310 o         1 SNH     -0.646300
     13 C14         4.4790   -0.3010   -1.9140 ca        1 SNH     -0.412500
     14 C15         4.0340   -0.5490   -3.2250 ca        1 SNH     -0.016000
     15 C16         4.4720   -1.6470   -3.9500 ca        1 SNH     -0.164000
     16 C17         5.3780   -2.5480   -3.3740 ca        1 SNH      0.005700
     17 C18         5.8290   -2.3170   -2.0730 ca        1 SNH     -0.165000
     18 C19         5.3870   -1.2090   -1.3410 ca        1 SNH      0.066700
     19 C20         5.8970   -1.0370    0.0430 c3        1 SNH     -0.107800
     20 C21         5.8390   -3.7330   -4.1340 c3        1 SNH     -0.070800
     21 C22        -1.6900    0.0940   -1.3190 cc        1 SNH     -0.050100
     22 C23        -2.8090   -0.7360   -1.2900 cd        1 SNH     -0.166000
     23 C24        -3.8090   -0.2980   -2.1960 cd        1 SNH     -0.082000
     24 C25        -3.4160    0.8460   -2.8830 cc        1 SNH     -0.231700
     25 S26        -1.8910    1.3420   -2.4180 ss        1 SNH      0.125200
     26 C27        -4.2410    1.5240   -3.8800 c         1 SNH      0.607700
     27 C28        -3.5980    2.6690   -4.6000 c3        1 SNH     -0.201100
     28 O29        -5.3990    1.1680   -4.1270 o         1 SNH     -0.526100
     29 H2          0.9730    1.0220   -1.7500 ha        1 SNH      0.197000
     30 HN9         3.5470    0.2350    0.9540 hn        1 SNH      0.456800
     31 H15         3.3210    0.1570   -3.6910 ha        1 SNH      0.160000
     32 H16         4.1100   -1.8120   -4.9760 ha        1 SNH      0.144000
     33 H18         6.5430   -3.0190   -1.6130 ha        1 SNH      0.144000
     34 H201        5.1600   -1.4560    0.7760 hc        1 SNH      0.069033
     35 H202        6.8610   -1.5880    0.1810 hc        1 SNH      0.069033
     36 H203        6.0850    0.0400    0.2860 hc        1 SNH      0.069033
     37 H211        5.9330   -3.4960   -5.2220 hc        1 SNH      0.055700
     38 H212        5.0970   -4.5640   -4.0190 hc        1 SNH      0.055700
     39 H213        6.8290   -4.0920   -3.7610 hc        1 SNH      0.055700
     40 H23        -2.9130   -1.6220   -0.6590 ha        1 SNH      0.161000
     41 H24        -4.7730   -0.7960   -2.3390 ha        1 SNH      0.176000
     42 H281       -4.3710    3.4210   -4.8940 hc        1 SNH      0.067367
     43 H282       -3.1080    2.2860   -5.5300 hc        1 SNH      0.067367
     44 H283       -2.8260    3.1690   -3.9650 hc        1 SNH      0.067367
     45 H92         2.3790    0.6950    2.8360 ho        1 SNH      0.434000
@<TRIPOS>BOND
     1    1    2 2   
     2    1    5 1   
     3    1   21 1   
     4    2    3 1   
     5    2   29 1   
     6    3    4 2   
     7    3    9 1   
     8    4    5 1   
     9    4    6 1   
    10    6    7 2   
    11    6    8 1   
    12    8   45 1   
    13    9   10 1   
    14    9   30 1   
    15   10   11 2   
    16   10   12 2   
    17   10   13 1   
    18   13   14 ar  
    19   13   18 ar  
    20   14   15 ar  
    21   14   31 1   
    22   15   16 ar  
    23   15   32 1   
    24   16   17 ar  
    25   16   20 1   
    26   17   18 ar  
    27   17   33 1   
    28   18   19 1   
    29   19   34 1   
    30   19   35 1   
    31   19   36 1   
    32   20   37 1   
    33   20   38 1   
    34   20   39 1   
    35   21   22 2   
    36   21   25 1   
    37   22   23 1   
    38   22   40 1   
    39   23   24 2   
    40   23   41 1   
    41   24   25 1   
    42   24   26 1   
    43   26   27 1   
    44   26   28 2   
    45   27   42 1   
    46   27   43 1   
    47   27   44 1   
@<TRIPOS>SUBSTRUCTURE
     1 SNH         1 TEMP              0 ****  ****    0 ROOT
