@<TRIPOS>MOLECULE
SNH
   44    46     1     0     0
SMALL
bcc


@<TRIPOS>ATOM
      1 C1          1.0870   -1.6660    0.0360 cc        1 SNH     -0.140100
      2 C2          0.4510   -0.6770   -0.7100 cd        1 SNH     -0.167000
      3 C3         -0.8980   -0.4740   -0.2680 cd        1 SNH      0.107600
      4 C4         -1.2170   -1.3330    0.7970 cc        1 SNH     -0.175700
      5 S5          0.0610   -2.3050    1.1980 ss        1 SNH      0.154200
      6 C6         -2.5490   -1.4000    1.5090 c         1 SNH      0.941200
      7 O7         -2.6360   -2.1430    2.5220 o         1 SNH     -0.817800
      8 O8         -3.5090   -0.7110    1.0520 o         1 SNH     -0.817800
      9 N9         -1.7880    0.4310   -0.8440 nh        1 SNH     -0.750500
     10 S11        -1.4370    1.8850   -1.4280 sy        1 SNH      1.496200
     11 O12        -2.5400    2.3670   -2.1810 o         1 SNH     -0.672300
     12 O13        -0.2080    1.8890   -2.1450 o         1 SNH     -0.672300
     13 C14        -1.2370    2.8680   -0.0560 ca        1 SNH     -0.377500
     14 C15         0.0120    3.4780    0.1370 ca        1 SNH     -0.021000
     15 C16         0.2610    4.3050    1.2220 ca        1 SNH     -0.178000
     16 C17        -0.7500    4.5410    2.1640 ca        1 SNH     -0.022300
     17 C18        -1.9960    3.9430    1.9860 ca        1 SNH     -0.170000
     18 C19        -2.2500    3.1080    0.8870 ca        1 SNH      0.080700
     19 C20        -3.5900    2.4860    0.7700 c3        1 SNH     -0.129800
     20 C21        -0.4870    5.3990    3.3420 c3        1 SNH     -0.058800
     21 C22         2.4290   -2.0950   -0.1510 cc        1 SNH      0.060900
     22 C23         3.0960   -3.0780    0.5790 cd        1 SNH     -0.220000
     23 C24         4.4280   -3.2570    0.1310 cd        1 SNH     -0.064000
     24 C25         4.7410   -2.4120   -0.9280 cc        1 SNH     -0.266700
     25 S26         3.4300   -1.4420   -1.3320 ss        1 SNH      0.058200
     26 C27         6.0290   -2.3680   -1.5940 c         1 SNH      0.616700
     27 C28         6.1300   -1.4470   -2.7740 c3        1 SNH     -0.202100
     28 O29         7.0000   -3.0510   -1.2330 o         1 SNH     -0.563100
     29 H2          0.9080   -0.1110   -1.5290 ha        1 SNH      0.171000
     30 HN9        -2.7440    0.1830   -0.6080 hn        1 SNH      0.508800
     31 H15         0.8160    3.2900   -0.5990 ha        1 SNH      0.155000
     32 H16         1.2490    4.7700    1.3490 ha        1 SNH      0.126000
     33 H18        -2.7960    4.1180    2.7220 ha        1 SNH      0.133000
     34 H201       -3.9330    2.4530   -0.2950 hc        1 SNH      0.083033
     35 H202       -3.5640    1.4310    1.1710 hc        1 SNH      0.083033
     36 H203       -4.3470    3.0570    1.3610 hc        1 SNH      0.083033
     37 H211        0.2500    6.2020    3.0960 hc        1 SNH      0.043033
     38 H212       -1.4280    5.8800    3.7080 hc        1 SNH      0.043033
     39 H213       -0.0650    4.7790    4.1730 hc        1 SNH      0.043033
     40 H23         2.6500   -3.6430    1.3990 ha        1 SNH      0.159000
     41 H24         5.1300   -3.9750    0.5630 ha        1 SNH      0.159000
     42 H281        5.7320   -1.9700   -3.6790 hc        1 SNH      0.061033
     43 H282        5.5340   -0.5170   -2.6060 hc        1 SNH      0.061033
     44 H283        7.1950   -1.1700   -2.9620 hc        1 SNH      0.061033
@<TRIPOS>BOND
     1    1    2 2   
     2    1    5 1   
     3    1   21 1   
     4    2    3 1   
     5    2   29 1   
     6    3    4 2   
     7    3    9 1   
     8    4    5 1   
     9    4    6 1   
    10    6    7 1   
    11    6    8 1   
    12    9   10 1   
    13    9   30 1   
    14   10   11 2   
    15   10   12 2   
    16   10   13 1   
    17   13   14 ar  
    18   13   18 ar  
    19   14   15 ar  
    20   14   31 1   
    21   15   16 ar  
    22   15   32 1   
    23   16   17 ar  
    24   16   20 1   
    25   17   18 ar  
    26   17   33 1   
    27   18   19 1   
    28   19   34 1   
    29   19   35 1   
    30   19   36 1   
    31   20   37 1   
    32   20   38 1   
    33   20   39 1   
    34   21   22 2   
    35   21   25 1   
    36   22   23 1   
    37   22   40 1   
    38   23   24 2   
    39   23   41 1   
    40   24   25 1   
    41   24   26 1   
    42   26   27 1   
    43   26   28 2   
    44   27   42 1   
    45   27   43 1   
    46   27   44 1   
@<TRIPOS>SUBSTRUCTURE
     1 SNH         1 TEMP              0 ****  ****    0 ROOT
