@<TRIPOS>MOLECULE
SNH
   44    46     1     0     0
SMALL
bcc


@<TRIPOS>ATOM
      1 C1         -0.5030   -0.0240   -0.6230 cc        1 SNH     -0.141100
      2 C2          0.7010    0.6490   -0.8130 cd        1 SNH     -0.167000
      3 C3          1.7040    0.1930    0.1050 cd        1 SNH      0.107600
      4 C4          1.2000   -0.8060    0.9530 cc        1 SNH     -0.175700
      5 S5         -0.3880   -1.1350    0.6270 ss        1 SNH      0.154200
      6 C6          1.9720   -1.5100    2.0450 c         1 SNH      0.941200
      7 O7          1.4100   -2.4690    2.6380 o         1 SNH     -0.817800
      8 O8          3.1430   -1.1030    2.3110 o         1 SNH     -0.817800
      9 N9          3.0010    0.7030    0.1710 nu        1 SNH     -0.750500
     10 S11         3.9100    1.1780   -1.0640 sy        1 SNH      1.496200
     11 O12         5.0320    1.8950   -0.5710 o         1 SNH     -0.672300
     12 O13         3.1580    1.8910   -2.0370 o         1 SNH     -0.672300
     13 C14         4.4520   -0.2620   -1.7840 ca        1 SNH     -0.377500
     14 C15         4.0960   -0.5010   -3.1210 ca        1 SNH     -0.021000
     15 C16         4.5040   -1.6440   -3.7920 ca        1 SNH     -0.178000
     16 C17         5.2870   -2.6000   -3.1290 ca        1 SNH     -0.022300
     17 C18         5.6490   -2.3770   -1.8020 ca        1 SNH     -0.170000
     18 C19         5.2390   -1.2190   -1.1220 ca        1 SNH      0.080700
     19 C20         5.6400   -1.0550    0.2950 c3        1 SNH     -0.129800
     20 C21         5.7040   -3.8380   -3.8260 c3        1 SNH     -0.058800
     21 C22        -1.6880    0.1930   -1.3770 cc        1 SNH      0.060900
     22 C23        -2.9030   -0.4730   -1.2250 cd        1 SNH     -0.220000
     23 C24        -3.8790   -0.0120   -2.1420 cd        1 SNH     -0.064000
     24 C25        -3.3840    0.9900   -2.9710 cc        1 SNH     -0.266700
     25 S26        -1.7800    1.3320   -2.6080 ss        1 SNH      0.058200
     26 C27        -4.1510    1.6550   -4.0080 c         1 SNH      0.616700
     27 C28        -3.4010    2.6480   -4.8460 c3        1 SNH     -0.202100
     28 O29        -5.3520    1.4220   -4.2140 o         1 SNH     -0.563100
     29 H2          0.8800    1.4230   -1.5660 ha        1 SNH      0.171000
     30 HN9         3.4180    0.4870    1.0710 hn        1 SNH      0.508800
     31 H15         3.4740    0.2460   -3.6480 ha        1 SNH      0.155000
     32 H16         4.2110   -1.8060   -4.8390 ha        1 SNH      0.126000
     33 H18         6.2590   -3.1230   -1.2700 ha        1 SNH      0.133000
     34 H201        6.5320   -1.6850    0.5320 hc        1 SNH      0.083033
     35 H202        5.8960    0.0100    0.5270 hc        1 SNH      0.083033
     36 H203        4.8000   -1.3780    0.9760 hc        1 SNH      0.083033
     37 H211        6.6590   -4.2360   -3.4030 hc        1 SNH      0.042700
     38 H212        4.9140   -4.6220   -3.7060 hc        1 SNH      0.042700
     39 H213        5.8500   -3.6520   -4.9190 hc        1 SNH      0.042700
     40 H23        -3.0870   -1.2580   -0.4870 ha        1 SNH      0.159000
     41 H24        -4.9020   -0.3950   -2.1960 ha        1 SNH      0.159000
     42 H281       -4.1090    3.3740   -5.3140 hc        1 SNH      0.061367
     43 H282       -2.6560    3.2080   -4.2300 hc        1 SNH      0.061367
     44 H283       -2.8600    2.1040   -5.6590 hc        1 SNH      0.061367
@<TRIPOS>BOND
     1    1    2 2   
     2    1    5 1   
     3    1   21 1   
     4    2    3 1   
     5    2   29 1   
     6    3    4 2   
     7    3    9 1   
     8    4    5 1   
     9    4    6 1   
    10    6    7 1   
    11    6    8 1   
    12    9   10 1   
    13    9   30 1   
    14   10   11 2   
    15   10   12 2   
    16   10   13 1   
    17   13   14 ar  
    18   13   18 ar  
    19   14   15 ar  
    20   14   31 1   
    21   15   16 ar  
    22   15   32 1   
    23   16   17 ar  
    24   16   20 1   
    25   17   18 ar  
    26   17   33 1   
    27   18   19 1   
    28   19   34 1   
    29   19   35 1   
    30   19   36 1   
    31   20   37 1   
    32   20   38 1   
    33   20   39 1   
    34   21   22 2   
    35   21   25 1   
    36   22   23 1   
    37   22   40 1   
    38   23   24 2   
    39   23   41 1   
    40   24   25 1   
    41   24   26 1   
    42   26   27 1   
    43   26   28 2   
    44   27   42 1   
    45   27   43 1   
    46   27   44 1   
@<TRIPOS>SUBSTRUCTURE
     1 SNH         1 TEMP              0 ****  ****    0 ROOT
