@<TRIPOS>MOLECULE
SNH
   44    46     1     0     0
SMALL
bcc


@<TRIPOS>ATOM
      1 C1         -0.4920   -0.0100   -0.6040 cc        1 SNH     -0.140100
      2 C2          0.7060    0.6650   -0.8240 cd        1 SNH     -0.167000
      3 C3          1.7230    0.2360    0.0910 cd        1 SNH      0.107600
      4 C4          1.2350   -0.7460    0.9680 cc        1 SNH     -0.175700
      5 S5         -0.3550   -1.0910    0.6690 ss        1 SNH      0.154200
      6 C6          2.0250   -1.4210    2.0660 c         1 SNH      0.941200
      7 O7          1.4750   -2.3680    2.6880 o         1 SNH     -0.817800
      8 O8          3.1960   -1.0010    2.3080 o         1 SNH     -0.817800
      9 N9          3.0180    0.7540    0.1300 nh        1 SNH     -0.750500
     10 S11         3.9090    1.2070   -1.1270 sy        1 SNH      1.496200
     11 O12         5.0330    1.9410   -0.6650 o         1 SNH     -0.672300
     12 O13         3.1400    1.8930   -2.1070 o         1 SNH     -0.672300
     13 C14         4.4500   -0.2470   -1.8210 ca        1 SNH     -0.377500
     14 C15         4.0800   -0.5180   -3.1470 ca        1 SNH     -0.021000
     15 C16         4.4860   -1.6740   -3.7980 ca        1 SNH     -0.178000
     16 C17         5.2820   -2.6100   -3.1220 ca        1 SNH     -0.022300
     17 C18         5.6590   -2.3540   -1.8050 ca        1 SNH     -0.170000
     18 C19         5.2500   -1.1840   -1.1470 ca        1 SNH      0.080700
     19 C20         5.6690   -0.9860    0.2600 c3        1 SNH     -0.129800
     20 C21         5.6970   -3.8610   -3.7970 c3        1 SNH     -0.058800
     21 C22        -1.6870    0.1820   -1.3490 cc        1 SNH      0.060900
     22 C23        -2.8970   -0.4850   -1.1640 cd        1 SNH     -0.220000
     23 C24        -3.8860   -0.0510   -2.0800 cd        1 SNH     -0.064000
     24 C25        -3.4070    0.9320   -2.9400 cc        1 SNH     -0.266700
     25 S26        -1.8000    1.2900   -2.6070 ss        1 SNH      0.058200
     26 C27        -4.1900    1.5660   -3.9840 c         1 SNH      0.616700
     27 C28        -3.4560    2.5410   -4.8560 c3        1 SNH     -0.202100
     28 O29        -5.3920    1.3230   -4.1680 o         1 SNH     -0.563100
     29 H2          0.8710    1.4230   -1.5970 ha        1 SNH      0.171000
     30 HN9         3.4470    0.5610    1.0290 hn        1 SNH      0.508800
     31 H15         3.4460    0.2130   -3.6830 ha        1 SNH      0.155000
     32 H16         4.1810   -1.8610   -4.8370 ha        1 SNH      0.126000
     33 H18         6.2800   -3.0850   -1.2640 ha        1 SNH      0.133000
     34 H201        6.5670   -1.6050    0.5010 hc        1 SNH      0.083033
     35 H202        4.8380   -1.2970    0.9590 hc        1 SNH      0.083033
     36 H203        5.9210    0.0860    0.4650 hc        1 SNH      0.083033
     37 H211        5.8290   -3.6990   -4.8950 hc        1 SNH      0.042700
     38 H212        4.9130   -4.6470   -3.6490 hc        1 SNH      0.042700
     39 H213        6.6590   -4.2440   -3.3760 hc        1 SNH      0.042700
     40 H23        -3.0670   -1.2510   -0.4040 ha        1 SNH      0.159000
     41 H24        -4.9080   -0.4400   -2.1110 ha        1 SNH      0.159000
     42 H281       -4.1730    3.2530   -5.3330 hc        1 SNH      0.061367
     43 H282       -2.7050    3.1190   -4.2650 hc        1 SNH      0.061367
     44 H283       -2.9230    1.9790   -5.6620 hc        1 SNH      0.061367
@<TRIPOS>BOND
     1    1    2 2   
     2    1    5 1   
     3    1   21 1   
     4    2    3 1   
     5    2   29 1   
     6    3    4 2   
     7    3    9 1   
     8    4    5 1   
     9    4    6 1   
    10    6    7 1   
    11    6    8 1   
    12    9   10 1   
    13    9   30 1   
    14   10   11 2   
    15   10   12 2   
    16   10   13 1   
    17   13   14 ar  
    18   13   18 ar  
    19   14   15 ar  
    20   14   31 1   
    21   15   16 ar  
    22   15   32 1   
    23   16   17 ar  
    24   16   20 1   
    25   17   18 ar  
    26   17   33 1   
    27   18   19 1   
    28   19   34 1   
    29   19   35 1   
    30   19   36 1   
    31   20   37 1   
    32   20   38 1   
    33   20   39 1   
    34   21   22 2   
    35   21   25 1   
    36   22   23 1   
    37   22   40 1   
    38   23   24 2   
    39   23   41 1   
    40   24   25 1   
    41   24   26 1   
    42   26   27 1   
    43   26   28 2   
    44   27   42 1   
    45   27   43 1   
    46   27   44 1   
@<TRIPOS>SUBSTRUCTURE
     1 SNH         1 TEMP              0 ****  ****    0 ROOT
