@<TRIPOS>MOLECULE
SNI
   31    33     1     0     0
SMALL
bcc


@<TRIPOS>ATOM
      1 O5'         0.4240   -0.7420   -0.2620 oh        1 SNI     -0.589800
      2 C5'         1.7300   -1.0750    0.1730 c3        1 SNI      0.109400
      3 C4'         2.1100   -0.0540    1.2460 c3        1 SNI      0.126100
      4 O4'         1.4940   -0.3960    2.4980 os        1 SNI     -0.388600
      5 C1'         2.4330   -1.0050    3.3840 c3        1 SNI      0.218800
      6 N9          2.0890   -2.3980    3.5840 na        1 SNI     -0.218900
      7 C4          2.8180   -3.3200    4.3380 cc        1 SNI      0.048800
      8 N3          4.0210   -3.1630    5.0190 nc        1 SNI     -0.617100
      9 C2          4.4170   -4.2610    5.6450 cd        1 SNI      0.482800
     10 N1          3.7690   -5.4840    5.6660 n         1 SNI     -0.433400
     11 C6          2.5510   -5.7240    4.9930 c         1 SNI      0.320900
     12 SE          1.8750   -7.1430    5.0510 s         1 SNI     -0.392400
     13 C5          2.0630   -4.5550    4.2960 cd        1 SNI      0.249800
     14 N7          0.9050   -4.3740    3.5360 nd        1 SNI     -0.595000
     15 C8          0.9430   -3.0910    3.1300 cc        1 SNI      0.432400
     16 C2'         3.8630   -0.7940    2.7860 c3        1 SNI      0.081100
     17 O2'         4.6450   -0.0090    3.6560 oh        1 SNI     -0.593800
     18 C3'         3.6340   -0.0080    1.4750 c3        1 SNI      0.131100
     19 O3'         4.0020    1.3530    1.5410 oh        1 SNI     -0.583800
     20 H5'         0.1720   -1.4080   -0.9130 ho        1 SNI      0.407000
     21 H5'1        1.7460   -2.1140    0.5980 h1        1 SNI      0.034700
     22 H5'2        2.4470   -1.0080   -0.6890 h1        1 SNI      0.034700
     23 H4'         1.6940    0.9620    0.9920 h1        1 SNI      0.127700
     24 H1'         2.3250   -0.4630    4.3730 h2        1 SNI      0.109700
     25 H2          5.3710   -4.1990    6.2150 h5        1 SNI      0.059800
     26 HN1         4.1610   -6.2490    6.1790 hn        1 SNI      0.350500
     27 H8          0.1850   -2.5810    2.5190 h5        1 SNI      0.090100
     28 H2'         4.3770   -1.7690    2.5700 h1        1 SNI      0.072700
     29 H1          4.8910   -0.5740    4.4020 ho        1 SNI      0.435000
     30 H3'         4.2000   -0.4940    0.6350 h1        1 SNI      0.059700
     31 H3          4.8070    1.4230    2.0720 ho        1 SNI      0.431000
@<TRIPOS>BOND
     1    1    2 1   
     2    1   20 1   
     3    2    3 1   
     4    2   21 1   
     5    2   22 1   
     6    3    4 1   
     7    3   18 1   
     8    3   23 1   
     9    4    5 1   
    10    5    6 1   
    11    5   16 1   
    12    5   24 1   
    13    6    7 1   
    14    6   15 1   
    15    7    8 1   
    16    7   13 2   
    17    8    9 2   
    18    9   10 1   
    19    9   25 1   
    20   10   11 1   
    21   10   26 1   
    22   11   12 2   
    23   11   13 1   
    24   13   14 1   
    25   14   15 2   
    26   15   27 1   
    27   16   17 1   
    28   16   18 1   
    29   16   28 1   
    30   17   29 1   
    31   18   19 1   
    32   18   30 1   
    33   19   31 1   
@<TRIPOS>SUBSTRUCTURE
     1 SNI         1 TEMP              0 ****  ****    0 ROOT
