@<TRIPOS>MOLECULE
SNI
   31    33     1     0     0
SMALL
bcc


@<TRIPOS>ATOM
      1 O5'         0.4240   -1.1780    0.1800 oh        1 SNI     -0.589800
      2 C5'         1.8370   -1.1000    0.2310 c3        1 SNI      0.107400
      3 C4'         2.2000   -0.0520    1.2830 c3        1 SNI      0.090100
      4 O4'         1.5560   -0.3360    2.5320 os        1 SNI     -0.380600
      5 C1'         2.4550   -0.9950    3.4230 c3        1 SNI      0.213800
      6 N9          2.1530   -2.4100    3.4820 na        1 SNI     -0.220900
      7 C4          2.8020   -3.3510    4.2820 cc        1 SNI      0.048800
      8 N3          3.8840   -3.1970    5.1430 nc        1 SNI     -0.611100
      9 C2          4.2320   -4.3210    5.7540 cd        1 SNI      0.480800
     10 N1          3.6420   -5.5650    5.6050 ns        1 SNI     -0.433400
     11 C6          2.5480   -5.8010    4.7460 c         1 SNI      0.321900
     12 SE          1.9330   -7.2440    4.6180 s         1 SNI     -0.398400
     13 C5          2.1160   -4.6070    4.0550 cd        1 SNI      0.249800
     14 N7          1.0760   -4.4170    3.1410 nd        1 SNI     -0.598000
     15 C8          1.1170   -3.1100    2.8210 cc        1 SNI      0.431400
     16 C2'         3.9070   -0.6770    2.9300 c3        1 SNI      0.080100
     17 O2'         4.4810    0.2840    3.7870 oh        1 SNI     -0.588800
     18 C3'         3.7250   -0.0340    1.5340 c3        1 SNI      0.129100
     19 O3'         4.2540    1.2620    1.4330 oh        1 SNI     -0.571800
     20 H5'         0.2060   -1.7390   -0.5750 ho        1 SNI      0.408000
     21 H5'1        2.2580   -2.1040    0.5110 h1        1 SNI      0.036200
     22 H5'2        2.2540   -0.7830   -0.7620 h1        1 SNI      0.036200
     23 H4'         1.8060    0.9570    0.9840 h1        1 SNI      0.108700
     24 H1'         2.2630   -0.5410    4.4420 h2        1 SNI      0.110700
     25 H2          5.0890   -4.2630    6.4610 h5        1 SNI      0.059800
     26 HN1         3.9890   -6.3470    6.1230 hn        1 SNI      0.350500
     27 H8          0.4400   -2.5820    2.1280 h5        1 SNI      0.100100
     28 H2'         4.5500   -1.5930    2.8680 h1        1 SNI      0.080700
     29 H1          4.7990   -0.1890    4.5670 ho        1 SNI      0.429000
     30 H3'         4.2750   -0.6250    0.7510 h1        1 SNI      0.093700
     31 H3          3.9880    1.7600    2.2190 ho        1 SNI      0.426000
@<TRIPOS>BOND
     1    1    2 1   
     2    1   20 1   
     3    2    3 1   
     4    2   21 1   
     5    2   22 1   
     6    3    4 1   
     7    3   18 1   
     8    3   23 1   
     9    4    5 1   
    10    5    6 1   
    11    5   16 1   
    12    5   24 1   
    13    6    7 1   
    14    6   15 1   
    15    7    8 1   
    16    7   13 2   
    17    8    9 2   
    18    9   10 1   
    19    9   25 1   
    20   10   11 1   
    21   10   26 1   
    22   11   12 2   
    23   11   13 1   
    24   13   14 1   
    25   14   15 2   
    26   15   27 1   
    27   16   17 1   
    28   16   18 1   
    29   16   28 1   
    30   17   29 1   
    31   18   19 1   
    32   18   30 1   
    33   19   31 1   
@<TRIPOS>SUBSTRUCTURE
     1 SNI         1 TEMP              0 ****  ****    0 ROOT
