@<TRIPOS>MOLECULE
SNI
   31    33     1     0     0
SMALL
bcc


@<TRIPOS>ATOM
      1 O5'         2.3900    0.0290    4.9330 oh        1 SNI     -0.598800
      2 C5'         1.7950    0.4630    3.7260 c3        1 SNI      0.108400
      3 C4'         0.2760    0.5310    3.8900 c3        1 SNI      0.063100
      4 O4'        -0.2970    1.1340    2.7260 os        1 SNI     -0.397600
      5 C1'        -1.1350    0.2090    2.0170 c3        1 SNI      0.239800
      6 N9         -0.4970   -0.2340    0.7990 na        1 SNI     -0.213900
      7 C4         -0.6900    0.3040   -0.4770 cc        1 SNI      0.086800
      8 N3         -1.5850    1.2740   -0.9110 nc        1 SNI     -0.588100
      9 C2         -1.5030    1.5250   -2.2090 cd        1 SNI      0.481800
     10 N1         -0.6440    0.9300   -3.1190 n         1 SNI     -0.433400
     11 C6          0.2890   -0.0640   -2.7580 c         1 SNI      0.324900
     12 SE          1.2360   -0.7030   -3.8410 s         1 SNI     -0.405400
     13 C5          0.2450   -0.3790   -1.3480 cd        1 SNI      0.236800
     14 N7          0.9990   -1.2950   -0.6070 nd        1 SNI     -0.581000
     15 C8          0.5500   -1.1810    0.6550 cc        1 SNI      0.403400
     16 C2'        -1.4580   -0.9640    3.0020 c3        1 SNI      0.125100
     17 O2'        -2.7680   -0.7180    3.4630 oh        1 SNI     -0.583800
     18 C3'        -0.3620   -0.8590    4.0830 c3        1 SNI      0.084100
     19 O3'        -0.9720   -0.9890    5.3500 oh        1 SNI     -0.597800
     20 H5'         2.3990    0.7820    5.5360 ho        1 SNI      0.404000
     21 H5'1        2.0840   -0.3080    2.9610 h1        1 SNI      0.065200
     22 H5'2        2.1870    1.4630    3.4070 h1        1 SNI      0.065200
     23 H4'         0.0070    1.2090    4.7480 h1        1 SNI      0.081700
     24 H1'        -2.0680    0.7930    1.7510 h2        1 SNI      0.144700
     25 H2         -2.1950    2.2960   -2.6150 h5        1 SNI      0.062800
     26 HN1        -0.6680    1.2020   -4.0820 hn        1 SNI      0.350500
     27 H8          0.9180   -1.7560    1.5120 h5        1 SNI      0.064100
     28 H2'        -1.4320   -1.9710    2.5060 h1        1 SNI      0.072700
     29 H1         -2.8510   -1.0940    4.3500 ho        1 SNI      0.438000
     30 H3'         0.4070   -1.6670    3.9430 h1        1 SNI      0.065700
     31 H3         -0.2590   -1.0010    6.0020 ho        1 SNI      0.428000
@<TRIPOS>BOND
     1    1    2 1   
     2    1   20 1   
     3    2    3 1   
     4    2   21 1   
     5    2   22 1   
     6    3    4 1   
     7    3   18 1   
     8    3   23 1   
     9    4    5 1   
    10    5    6 1   
    11    5   16 1   
    12    5   24 1   
    13    6    7 1   
    14    6   15 1   
    15    7    8 1   
    16    7   13 2   
    17    8    9 2   
    18    9   10 1   
    19    9   25 1   
    20   10   11 1   
    21   10   26 1   
    22   11   12 2   
    23   11   13 1   
    24   13   14 1   
    25   14   15 2   
    26   15   27 1   
    27   16   17 1   
    28   16   18 1   
    29   16   28 1   
    30   17   29 1   
    31   18   19 1   
    32   18   30 1   
    33   19   31 1   
@<TRIPOS>SUBSTRUCTURE
     1 SNI         1 TEMP              0 ****  ****    0 ROOT
