@<TRIPOS>MOLECULE
SNL
   61    65     1     0     0
SMALL
bcc


@<TRIPOS>ATOM
      1 C8          0.1690    0.0430   -0.2100 c3        1 SNL     -0.085400
      2 C4          0.8890    0.9980    3.4370 c3        1 SNL     -0.065400
      3 C5          0.8550    1.0260    1.9180 c3        1 SNL     -0.048000
      4 C2          4.7760    1.1990    3.8520 c3        1 SNL     -0.013800
      5 C6          1.9750    0.0930    1.4070 c3        1 SNL     -0.070700
      6 C1          4.8270    1.0240    5.3770 c3        1 SNL     -0.069400
      7 C3          2.2490    1.4440    3.9480 c3        1 SNL     -0.074400
      8 C7          1.6900   -0.0520   -0.0840 c3        1 SNL     -0.074400
      9 C9         -0.3820    0.4240    1.1850 c3        1 SNL      0.152800
     10 C10         1.0110    2.4640    1.4350 c3        1 SNL     -0.083100
     11 C11         4.9590    2.6760    3.5130 c3        1 SNL     -0.087100
     12 C12         6.2140    1.1860    5.9550 c3        1 SNL     -0.182400
     13 C13        -1.0800   -0.7580    1.8870 c3        1 SNL     -0.103400
     14 C14        -2.4860   -0.2790    2.2230 c3        1 SNL     -0.172400
     15 C15        -2.5760    1.0840    1.5970 c         1 SNL      0.713600
     16 C16         5.1890   -2.9710    0.8320 c         1 SNL      0.580700
     17 C17         5.0630   -4.4100    1.2040 c3        1 SNL     -0.193100
     18 C18         7.1940    0.2500    5.3070 c         1 SNL      0.569300
     19 C19         6.9820    0.0020    3.8750 ce        1 SNL     -0.253200
     20 C20         5.8990    0.4270    3.2010 c2        1 SNL     -0.031400
     21 C21         5.8040    0.2040    1.7300 c3        1 SNL     -0.053200
     22 C22         4.4530   -0.3210    1.2970 c3        1 SNL      0.024400
     23 C23         3.3480    0.5800    1.8270 c3        1 SNL     -0.035700
     24 C24         3.4140    0.6560    3.3590 c3        1 SNL     -0.051700
     25 O57        -3.4900    1.8960    1.5200 o         1 SNL     -0.569500
     26 O58        -1.3860    1.4540    1.0040 os        1 SNL     -0.405900
     27 O59         5.9130   -2.5650   -0.0820 o         1 SNL     -0.533100
     28 O60         8.1330   -0.2560    5.9330 o         1 SNL     -0.532100
     29 S61         4.1890   -2.0100    1.8550 ss        1 SNL     -0.276700
     30 H81        -0.2640   -0.9250   -0.5610 hc        1 SNL      0.060700
     31 H82        -0.1210    0.8330   -0.9480 hc        1 SNL      0.060700
     32 H41         0.6890   -0.0350    3.8220 hc        1 SNL      0.045700
     33 H42         0.0970    1.6760    3.8480 hc        1 SNL      0.045700
     34 H6          1.8180   -0.9210    1.8820 hc        1 SNL      0.062700
     35 H11         4.4380    0.0050    5.6420 hc        1 SNL      0.051700
     36 H12         4.1500    1.7800    5.8560 hc        1 SNL      0.051700
     37 H31         2.2570    1.3190    5.0640 hc        1 SNL      0.047700
     38 H32         2.3820    2.5380    3.7360 hc        1 SNL      0.047700
     39 H71         2.1870    0.7650   -0.6650 hc        1 SNL      0.050200
     40 H72         2.0690   -1.0280   -0.4740 hc        1 SNL      0.050200
     41 H101        0.1780    3.0870    1.8450 hc        1 SNL      0.044700
     42 H102        1.9800    2.9060    1.7650 hc        1 SNL      0.044700
     43 H103        0.9630    2.5080    0.3210 hc        1 SNL      0.044700
     44 H111        4.7530    2.8670    2.4330 hc        1 SNL      0.041700
     45 H112        6.0090    2.9900    3.7320 hc        1 SNL      0.041700
     46 H113        4.2720    3.3080    4.1260 hc        1 SNL      0.041700
     47 H121        6.5840    2.2350    5.7950 hc        1 SNL      0.073200
     48 H122        6.1890    1.0030    7.0610 hc        1 SNL      0.073200
     49 H131       -0.5300   -1.0780    2.8020 hc        1 SNL      0.066200
     50 H132       -1.1240   -1.6450    1.2050 hc        1 SNL      0.066200
     51 H141       -2.6510   -0.2000    3.3260 hc        1 SNL      0.087700
     52 H142       -3.2740   -0.9490    1.7990 hc        1 SNL      0.087700
     53 H171        4.3310   -4.5550    2.0360 hc        1 SNL      0.075033
     54 H172        6.0610   -4.7990    1.5260 hc        1 SNL      0.075033
     55 H173        4.7260   -4.9980    0.3140 hc        1 SNL      0.075033
     56 H19         7.7840   -0.5640    3.3730 ha        1 SNL      0.150000
     57 H211        5.9880    1.1910    1.2180 hc        1 SNL      0.071200
     58 H212        6.6040   -0.5050    1.3800 hc        1 SNL      0.071200
     59 H22         4.4140   -0.3410    0.1750 h1        1 SNL      0.089700
     60 H23         3.5220    1.6040    1.3900 hc        1 SNL      0.068700
     61 H24         3.3290   -0.4070    3.7380 hc        1 SNL      0.062700
@<TRIPOS>BOND
     1    1    8 1   
     2    1    9 1   
     3    1   30 1   
     4    1   31 1   
     5    2    3 1   
     6    2    7 1   
     7    2   32 1   
     8    2   33 1   
     9    3    5 1   
    10    3    9 1   
    11    3   10 1   
    12    4    6 1   
    13    4   11 1   
    14    4   20 1   
    15    4   24 1   
    16    5    8 1   
    17    5   23 1   
    18    5   34 1   
    19    6   12 1   
    20    6   35 1   
    21    6   36 1   
    22    7   24 1   
    23    7   37 1   
    24    7   38 1   
    25    8   39 1   
    26    8   40 1   
    27    9   13 1   
    28    9   26 1   
    29   10   41 1   
    30   10   42 1   
    31   10   43 1   
    32   11   44 1   
    33   11   45 1   
    34   11   46 1   
    35   12   18 1   
    36   12   47 1   
    37   12   48 1   
    38   13   14 1   
    39   13   49 1   
    40   13   50 1   
    41   14   15 1   
    42   14   51 1   
    43   14   52 1   
    44   15   25 2   
    45   15   26 1   
    46   16   17 1   
    47   16   27 2   
    48   16   29 1   
    49   17   53 1   
    50   17   54 1   
    51   17   55 1   
    52   18   19 1   
    53   18   28 2   
    54   19   20 2   
    55   19   56 1   
    56   20   21 1   
    57   21   22 1   
    58   21   57 1   
    59   21   58 1   
    60   22   23 1   
    61   22   29 1   
    62   22   59 1   
    63   23   24 1   
    64   23   60 1   
    65   24   61 1   
@<TRIPOS>SUBSTRUCTURE
     1 SNL         1 TEMP              0 ****  ****    0 ROOT
