@<TRIPOS>MOLECULE
SNL
   61    65     1     0     0
SMALL
bcc


@<TRIPOS>ATOM
      1 C8          0.1650    0.0620   -0.2080 c3        1 SNL     -0.085400
      2 C4          0.8890    0.9890    3.4450 c3        1 SNL     -0.065400
      3 C5          0.8530    1.0290    1.9270 c3        1 SNL     -0.048000
      4 C2          4.7760    1.1890    3.8560 c3        1 SNL     -0.013800
      5 C6          1.9730    0.1010    1.4060 c3        1 SNL     -0.070700
      6 C1          4.8300    1.0020    5.3800 c3        1 SNL     -0.069400
      7 C3          2.2500    1.4320    3.9580 c3        1 SNL     -0.074400
      8 C7          1.6870   -0.0320   -0.0860 c3        1 SNL     -0.074400
      9 C9         -0.3850    0.4320    1.1910 c3        1 SNL      0.152800
     10 C10         1.0070    2.4710    1.4550 c3        1 SNL     -0.083100
     11 C11         4.9580    2.6700    3.5300 c3        1 SNL     -0.087100
     12 C12         6.2180    1.1610    5.9570 c3        1 SNL     -0.182400
     13 C13        -1.0810   -0.7570    1.8830 c3        1 SNL     -0.103400
     14 C14        -2.4870   -0.2810    2.2250 c3        1 SNL     -0.172400
     15 C15        -2.5790    1.0870    1.6100 c         1 SNL      0.713600
     16 C16         5.1880   -2.9550    0.8020 c         1 SNL      0.580700
     17 C17         5.0640   -4.3980    1.1620 c3        1 SNL     -0.193100
     18 C18         7.1970    0.2310    5.3010 c         1 SNL      0.569300
     19 C19         6.9830   -0.0050    3.8670 ce        1 SNL     -0.253200
     20 C20         5.8990    0.4240    3.1980 c2        1 SNL     -0.031400
     21 C21         5.8020    0.2130    1.7250 c3        1 SNL     -0.053200
     22 C22         4.4510   -0.3100    1.2900 c3        1 SNL      0.024400
     23 C23         3.3460    0.5850    1.8280 c3        1 SNL     -0.035700
     24 C24         3.4140    0.6490    3.3610 c3        1 SNL     -0.051700
     25 O57        -3.4940    1.8980    1.5410 o         1 SNL     -0.569500
     26 O58        -1.3900    1.4620    1.0200 os        1 SNL     -0.405900
     27 O59         5.9100   -2.5420   -0.1110 o         1 SNL     -0.533100
     28 O60         8.1380   -0.2790    5.9210 o         1 SNL     -0.532100
     29 S61         4.1890   -2.0040    1.8350 ss        1 SNL     -0.276700
     30 H81        -0.2680   -0.9030   -0.5660 hc        1 SNL      0.060700
     31 H82        -0.1260    0.8590   -0.9390 hc        1 SNL      0.060700
     32 H41         0.6900   -0.0480    3.8220 hc        1 SNL      0.045700
     33 H42         0.0970    1.6630    3.8630 hc        1 SNL      0.045700
     34 H6          1.8170   -0.9170    1.8740 hc        1 SNL      0.062700
     35 H11         4.1530    1.7540    5.8660 hc        1 SNL      0.051700
     36 H12         4.4420   -0.0190    5.6380 hc        1 SNL      0.051700
     37 H31         2.3820    2.5270    3.7550 hc        1 SNL      0.047700
     38 H32         2.2590    1.2980    5.0720 hc        1 SNL      0.047700
     39 H71         2.0650   -1.0050   -0.4830 hc        1 SNL      0.050200
     40 H72         2.1820    0.7890   -0.6600 hc        1 SNL      0.050200
     41 H101        0.1740    3.0900    1.8710 hc        1 SNL      0.044700
     42 H102        0.9570    2.5240    0.3410 hc        1 SNL      0.044700
     43 H103        1.9760    2.9110    1.7870 hc        1 SNL      0.044700
     44 H111        6.0080    2.9830    3.7500 hc        1 SNL      0.041700
     45 H112        4.7500    2.8690    2.4520 hc        1 SNL      0.041700
     46 H113        4.2710    3.2960    4.1480 hc        1 SNL      0.041700
     47 H121        6.5860    2.2110    5.8050 hc        1 SNL      0.073200
     48 H122        6.1940    0.9690    7.0620 hc        1 SNL      0.073200
     49 H131       -1.1250   -1.6370    1.1940 hc        1 SNL      0.066200
     50 H132       -0.5290   -1.0830    2.7960 hc        1 SNL      0.066200
     51 H141       -2.6510   -0.2110    3.3290 hc        1 SNL      0.087700
     52 H142       -3.2750   -0.9490    1.7960 hc        1 SNL      0.087700
     53 H171        6.0630   -4.7880    1.4790 hc        1 SNL      0.075033
     54 H172        4.3340   -4.5500    1.9950 hc        1 SNL      0.075033
     55 H173        4.7250   -4.9790    0.2680 hc        1 SNL      0.075033
     56 H19         7.7850   -0.5670    3.3590 ha        1 SNL      0.150000
     57 H211        5.9850    1.2040    1.2210 hc        1 SNL      0.071200
     58 H212        6.6020   -0.4930    1.3680 hc        1 SNL      0.071200
     59 H22         4.4110   -0.3210    0.1680 h1        1 SNL      0.089700
     60 H23         3.5190    1.6140    1.4000 hc        1 SNL      0.068700
     61 H24         3.3310   -0.4170    3.7320 hc        1 SNL      0.062700
@<TRIPOS>BOND
     1    1    8 1   
     2    1    9 1   
     3    1   30 1   
     4    1   31 1   
     5    2    3 1   
     6    2    7 1   
     7    2   32 1   
     8    2   33 1   
     9    3    5 1   
    10    3    9 1   
    11    3   10 1   
    12    4    6 1   
    13    4   11 1   
    14    4   20 1   
    15    4   24 1   
    16    5    8 1   
    17    5   23 1   
    18    5   34 1   
    19    6   12 1   
    20    6   35 1   
    21    6   36 1   
    22    7   24 1   
    23    7   37 1   
    24    7   38 1   
    25    8   39 1   
    26    8   40 1   
    27    9   13 1   
    28    9   26 1   
    29   10   41 1   
    30   10   42 1   
    31   10   43 1   
    32   11   44 1   
    33   11   45 1   
    34   11   46 1   
    35   12   18 1   
    36   12   47 1   
    37   12   48 1   
    38   13   14 1   
    39   13   49 1   
    40   13   50 1   
    41   14   15 1   
    42   14   51 1   
    43   14   52 1   
    44   15   25 2   
    45   15   26 1   
    46   16   17 1   
    47   16   27 2   
    48   16   29 1   
    49   17   53 1   
    50   17   54 1   
    51   17   55 1   
    52   18   19 1   
    53   18   28 2   
    54   19   20 2   
    55   19   56 1   
    56   20   21 1   
    57   21   22 1   
    58   21   57 1   
    59   21   58 1   
    60   22   23 1   
    61   22   29 1   
    62   22   59 1   
    63   23   24 1   
    64   23   60 1   
    65   24   61 1   
@<TRIPOS>SUBSTRUCTURE
     1 SNL         1 TEMP              0 ****  ****    0 ROOT
