@<TRIPOS>MOLECULE
SNL
   61    65     1     0     0
SMALL
bcc


@<TRIPOS>ATOM
      1 C8         -3.2840    1.6570    0.8160 c3        1 SNL     -0.085400
      2 C4         -1.7860   -1.4850   -0.8000 c3        1 SNL     -0.065400
      3 C5         -2.2410   -0.4750    0.2390 c3        1 SNL     -0.048000
      4 C2          1.9510   -1.7230    0.3400 c3        1 SNL     -0.013800
      5 C6         -1.1480    0.6100    0.3490 c3        1 SNL     -0.070700
      6 C1          2.4530   -2.6290   -0.7950 c3        1 SNL     -0.069400
      7 C3         -0.4500   -2.0920   -0.4040 c3        1 SNL     -0.074400
      8 C7         -1.7990    1.7150    1.1740 c3        1 SNL     -0.074400
      9 C9         -3.4930    0.4020   -0.0670 c3        1 SNL      0.152800
     10 C10        -2.5040   -1.1930    1.5600 c3        1 SNL     -0.083100
     11 C11         1.7470   -2.5650    1.5960 c3        1 SNL     -0.087100
     12 C12         3.8880   -3.0710   -0.6210 c3        1 SNL     -0.182400
     13 C13        -3.7300    0.7560   -1.5480 c3        1 SNL     -0.103400
     14 C14        -5.0540    0.1070   -1.9300 c3        1 SNL     -0.172400
     15 C15        -5.5730   -0.4690   -0.6440 c         1 SNL      0.713600
     16 C16         2.3110    3.4020   -0.1950 c         1 SNL      0.580700
     17 C17         2.5700    4.1960   -1.4310 c3        1 SNL     -0.193100
     18 C18         4.8120   -1.8980   -0.4670 c         1 SNL      0.569300
     19 C19         4.2650   -0.7540    0.2740 ce        1 SNL     -0.253200
     20 C20         2.9780   -0.6610    0.6500 c2        1 SNL     -0.031400
     21 C21         2.5270    0.4980    1.4740 c3        1 SNL     -0.053200
     22 C22         1.2350    1.1100    0.9760 c3        1 SNL      0.024400
     23 C23         0.1670    0.0360    0.8380 c3        1 SNL     -0.035700
     24 C24         0.6370   -1.0580   -0.1330 c3        1 SNL     -0.051700
     25 O57        -6.6110   -1.0560   -0.3640 o         1 SNL     -0.569500
     26 O58        -4.6860   -0.2790    0.3960 os        1 SNL     -0.405900
     27 O59         2.6630    3.7610    0.9320 o         1 SNL     -0.533100
     28 O60         5.9660   -1.9070   -0.9110 o         1 SNL     -0.532100
     29 S61         1.4650    1.9540   -0.5950 ss        1 SNL     -0.276700
     30 H81        -3.9120    1.5650    1.7380 hc        1 SNL      0.060700
     31 H82        -3.6030    2.5820    0.2780 hc        1 SNL      0.060700
     32 H41        -1.6700   -1.0000   -1.8040 hc        1 SNL      0.045700
     33 H42        -2.5490   -2.3010   -0.9000 hc        1 SNL      0.045700
     34 H6         -0.9700    1.0220   -0.6890 hc        1 SNL      0.062700
     35 H11         2.3560   -2.0820   -1.7700 hc        1 SNL      0.051700
     36 H12         1.8020   -3.5410   -0.8510 hc        1 SNL      0.051700
     37 H31        -0.1110   -2.7590   -1.2420 hc        1 SNL      0.047700
     38 H32        -0.5930   -2.7420    0.4980 hc        1 SNL      0.047700
     39 H71        -1.6470    1.5370    2.2680 hc        1 SNL      0.050200
     40 H72        -1.3620    2.7130    0.9260 hc        1 SNL      0.050200
     41 H101       -1.5850   -1.6920    1.9460 hc        1 SNL      0.044700
     42 H102       -2.8650   -0.4690    2.3300 hc        1 SNL      0.044700
     43 H103       -3.2960   -1.9680    1.4110 hc        1 SNL      0.044700
     44 H111        2.7350   -2.8920    2.0010 hc        1 SNL      0.041700
     45 H112        1.2190   -1.9810    2.3870 hc        1 SNL      0.041700
     46 H113        1.1460   -3.4780    1.3640 hc        1 SNL      0.041700
     47 H121        4.2030   -3.6910   -1.5020 hc        1 SNL      0.073200
     48 H122        3.9900   -3.7130    0.2960 hc        1 SNL      0.073200
     49 H131       -3.7890    1.8660   -1.6790 hc        1 SNL      0.066200
     50 H132       -2.8980    0.3950   -2.1970 hc        1 SNL      0.066200
     51 H141       -5.7840    0.8470   -2.3420 hc        1 SNL      0.087700
     52 H142       -4.9210   -0.7090   -2.6840 hc        1 SNL      0.087700
     53 H171        3.6740    4.3110   -1.5720 hc        1 SNL      0.075033
     54 H172        2.1380    3.7000   -2.3350 hc        1 SNL      0.075033
     55 H173        2.1210    5.2150   -1.3220 hc        1 SNL      0.075033
     56 H19         4.9920    0.0410    0.5120 ha        1 SNL      0.150000
     57 H211        3.3200    1.2940    1.5140 hc        1 SNL      0.071200
     58 H212        2.3690    0.1320    2.5280 hc        1 SNL      0.071200
     59 H22         0.8940    1.8850    1.7140 h1        1 SNL      0.089700
     60 H23         0.0150   -0.4090    1.8620 hc        1 SNL      0.068700
     61 H24         0.8660   -0.5420   -1.1130 hc        1 SNL      0.062700
@<TRIPOS>BOND
     1    1    8 1   
     2    1    9 1   
     3    1   30 1   
     4    1   31 1   
     5    2    3 1   
     6    2    7 1   
     7    2   32 1   
     8    2   33 1   
     9    3    5 1   
    10    3    9 1   
    11    3   10 1   
    12    4    6 1   
    13    4   11 1   
    14    4   20 1   
    15    4   24 1   
    16    5    8 1   
    17    5   23 1   
    18    5   34 1   
    19    6   12 1   
    20    6   35 1   
    21    6   36 1   
    22    7   24 1   
    23    7   37 1   
    24    7   38 1   
    25    8   39 1   
    26    8   40 1   
    27    9   13 1   
    28    9   26 1   
    29   10   41 1   
    30   10   42 1   
    31   10   43 1   
    32   11   44 1   
    33   11   45 1   
    34   11   46 1   
    35   12   18 1   
    36   12   47 1   
    37   12   48 1   
    38   13   14 1   
    39   13   49 1   
    40   13   50 1   
    41   14   15 1   
    42   14   51 1   
    43   14   52 1   
    44   15   25 2   
    45   15   26 1   
    46   16   17 1   
    47   16   27 2   
    48   16   29 1   
    49   17   53 1   
    50   17   54 1   
    51   17   55 1   
    52   18   19 1   
    53   18   28 2   
    54   19   20 2   
    55   19   56 1   
    56   20   21 1   
    57   21   22 1   
    58   21   57 1   
    59   21   58 1   
    60   22   23 1   
    61   22   29 1   
    62   22   59 1   
    63   23   24 1   
    64   23   60 1   
    65   24   61 1   
@<TRIPOS>SUBSTRUCTURE
     1 SNL         1 TEMP              0 ****  ****    0 ROOT
