@<TRIPOS>MOLECULE
SNN
   14    14     1     0     0
SMALL
bcc


@<TRIPOS>ATOM
      1 N1          0.5910   -1.1220    0.1110 n         1 SNN     -0.607500
      2 C2         -0.7560   -0.7680   -0.0320 c         1 SNN      0.645500
      3 C3         -0.8610    0.7470   -0.3790 c3        1 SNN      0.110500
      4 N3         -1.7810    1.4920    0.4300 n3        1 SNN     -0.895800
      5 C4          0.6080    1.2360   -0.3070 c3        1 SNN     -0.161400
      6 C5          1.4400   -0.0120   -0.0440 c         1 SNN      0.697500
      7 O2         -1.7050   -1.5460    0.1050 o         1 SNN     -0.589500
      8 O5          2.6710   -0.0770    0.0320 o         1 SNN     -0.581500
      9 HN          0.9100   -2.0390    0.3040 hn        1 SNN      0.346500
     10 H3         -1.2230    0.8040   -1.4480 h1        1 SNN      0.097700
     11 HN31       -2.7040    1.1110    0.3560 hn        1 SNN      0.370800
     12 HN32       -1.4990    1.5180    1.3890 hn        1 SNN      0.370800
     13 H41         0.9200    1.7020   -1.2740 hc        1 SNN      0.098200
     14 H42         0.7830    1.9780    0.5110 hc        1 SNN      0.098200
@<TRIPOS>BOND
     1    1    2 1   
     2    1    6 1   
     3    1    9 1   
     4    2    3 1   
     5    2    7 2   
     6    3    4 1   
     7    3    5 1   
     8    3   10 1   
     9    4   11 1   
    10    4   12 1   
    11    5    6 1   
    12    5   13 1   
    13    5   14 1   
    14    6    8 2   
@<TRIPOS>SUBSTRUCTURE
     1 SNN         1 TEMP              0 ****  ****    0 ROOT
