@<TRIPOS>MOLECULE
SNO
   19    20     1     0     0
SMALL
bcc


@<TRIPOS>ATOM
      1 C1         -0.0050   -0.0090   -0.0160 ca        1 SNO     -0.173200
      2 C2          1.3990   -0.0310   -0.0400 ca        1 SNO     -0.068000
      3 C3          2.0980   -0.0040    1.1630 ca        1 SNO     -0.125000
      4 C4          1.4110    0.0500    2.3830 ca        1 SNO     -0.042300
      5 C5          0.0110    0.0680    2.3930 ca        1 SNO     -0.125000
      6 C6         -0.7050    0.0380    1.2000 ca        1 SNO     -0.068000
      7 C7          2.1830    0.0720    3.6380 cx        1 SNO      0.092400
      8 C8          2.2460    1.2910    4.4950 cx        1 SNO      0.067400
      9 N1         -0.7590   -0.0380   -1.2970 no        1 SNO      0.312200
     10 O1         -0.1480   -0.0810   -2.3310 o         1 SNO     -0.207000
     11 O2         -1.9610   -0.0160   -1.2660 o         1 SNO     -0.207000
     12 O3          1.4370    0.1670    4.8650 os        1 SNO     -0.395600
     13 H22         1.9400   -0.0710   -1.0010 ha        1 SNO      0.173000
     14 H33         3.1990   -0.0260    1.1520 ha        1 SNO      0.158000
     15 H55        -0.5220    0.1010    3.3580 ha        1 SNO      0.158000
     16 H66        -1.8080    0.0510    1.2090 ha        1 SNO      0.173000
     17 H77         3.0080   -0.6710    3.6760 h1        1 SNO      0.105700
     18 H81         3.1190    1.4680    5.1500 h1        1 SNO      0.086200
     19 H82         1.6760    2.1990    4.2250 h1        1 SNO      0.086200
@<TRIPOS>BOND
     1    1    2 ar  
     2    1    6 ar  
     3    1    9 1   
     4    2    3 ar  
     5    2   13 1   
     6    3    4 ar  
     7    3   14 1   
     8    4    5 ar  
     9    4    7 1   
    10    5    6 ar  
    11    5   15 1   
    12    6   16 1   
    13    7    8 1   
    14    7   12 1   
    15    7   17 1   
    16    8   12 1   
    17    8   18 1   
    18    8   19 1   
    19    9   10 1   
    20    9   11 1   
@<TRIPOS>SUBSTRUCTURE
     1 SNO         1 TEMP              0 ****  ****    0 ROOT
