@<TRIPOS>MOLECULE
SNO
   19    20     1     0     0
SMALL
bcc


@<TRIPOS>ATOM
      1 C1          1.3830   -0.0220   -0.0390 ca        1 SNO     -0.173200
      2 C2          0.8130   -1.3050   -0.1080 ca        1 SNO     -0.068000
      3 C3         -0.5700   -1.4280   -0.1900 ca        1 SNO     -0.125000
      4 C4         -1.3860   -0.2890   -0.1990 ca        1 SNO     -0.042300
      5 C5         -0.8060    0.9830   -0.1330 ca        1 SNO     -0.125000
      6 C6          0.5760    1.1270   -0.0540 ca        1 SNO     -0.068000
      7 C7         -2.8470   -0.4580   -0.2920 cx        1 SNO      0.092400
      8 C8         -3.7430   -0.1510    0.8610 cx        1 SNO      0.067400
      9 N1          2.8600    0.1190    0.0490 no        1 SNO      0.312200
     10 O1          3.5400   -0.8730    0.0570 o         1 SNO     -0.207000
     11 O2          3.3370    1.2200    0.1100 o         1 SNO     -0.207000
     12 O3         -3.6480    0.7380   -0.2600 os        1 SNO     -0.395600
     13 H22         1.4560   -2.2010   -0.0980 ha        1 SNO      0.173000
     14 H33        -1.0230   -2.4300   -0.2490 ha        1 SNO      0.158000
     15 H55        -1.4550    1.8750   -0.1500 ha        1 SNO      0.158000
     16 H66         1.0330    2.1300   -0.0040 ha        1 SNO      0.173000
     17 H77        -3.1710   -1.1890   -1.0620 h1        1 SNO      0.105700
     18 H81        -4.7170   -0.6640    0.9620 h1        1 SNO      0.085700
     19 H82        -3.3300    0.2520    1.8040 h1        1 SNO      0.085700
@<TRIPOS>BOND
     1    1    2 ar  
     2    1    6 ar  
     3    1    9 1   
     4    2    3 ar  
     5    2   13 1   
     6    3    4 ar  
     7    3   14 1   
     8    4    5 ar  
     9    4    7 1   
    10    5    6 ar  
    11    5   15 1   
    12    6   16 1   
    13    7    8 1   
    14    7   12 1   
    15    7   17 1   
    16    8   12 1   
    17    8   18 1   
    18    8   19 1   
    19    9   10 1   
    20    9   11 1   
@<TRIPOS>SUBSTRUCTURE
     1 SNO         1 TEMP              0 ****  ****    0 ROOT
