@<TRIPOS>MOLECULE
SNO
   19    17     1     0     0
SMALL
bcc


@<TRIPOS>ATOM
      1 C1         -0.9730    0.2680   -1.7230 c1        1 SNO     -0.182300
      2 C2          0.4140    0.1700   -1.6520 c1        1 SNO     -0.036000
      3 C3          1.0450    0.1100   -0.4140 c1        1 SNO     -0.036000
      4 C4          0.2900    0.1480    0.7540 c1        1 SNO     -0.008100
      5 C5         -1.0960    0.2470    0.6830 c1        1 SNO     -0.072500
      6 C6         -1.7270    0.3060   -0.5560 c1        1 SNO     -0.011500
      7 C7          0.9950    0.1660    2.1270 cx        1 SNO      0.058200
      8 C8          1.6510   -1.0610    2.5100 cx        1 SNO      0.067400
      9 N1         -1.6190    0.3420   -2.9930 no        1 SNO      0.321300
     10 O1         -2.9810    0.4380   -3.0630 o         1 SNO     -0.207000
     11 O2         -0.9540    0.3030   -4.0220 o         1 SNO     -0.207000
     12 O3          2.4590    0.0890    2.0910 os        1 SNO     -0.395600
     13 H22         0.9460    0.1430   -2.4760 ha        1 SNO      0.113000
     14 H33         2.0220    0.0410   -0.3650 ha        1 SNO      0.113000
     15 H55        -1.6290    0.2740    1.5060 ha        1 SNO      0.091500
     16 H66        -2.7050    0.3760   -0.6060 ha        1 SNO      0.114500
     17 H77         0.6150    0.6930    2.8640 h1        1 SNO      0.105700
     18 H81         1.5900   -1.7950    1.8630 h1        1 SNO      0.085700
     19 H82         1.6580   -1.2580    3.4730 h1        1 SNO      0.085700
@<TRIPOS>BOND
     1    1    6 3   
     2    1    9 1   
     3    2    3 3   
     4    2   13 1   
     5    3   14 1   
     6    4    5 3   
     7    4    7 1   
     8    5   15 1   
     9    6   16 1   
    10    7    8 1   
    11    7   12 1   
    12    7   17 1   
    13    8   12 1   
    14    8   18 1   
    15    8   19 1   
    16    9   10 1   
    17    9   11 1   
@<TRIPOS>SUBSTRUCTURE
     1 SNO         1 TEMP              0 ****  ****    0 ROOT
