@<TRIPOS>MOLECULE
SNO
   19    20     1     0     0
SMALL
bcc


@<TRIPOS>ATOM
      1 C1         -0.0050   -0.0100   -0.0170 ca        1 SNO     -0.173200
      2 C2          1.4000   -0.0360   -0.0390 ca        1 SNO     -0.068000
      3 C3          2.0980   -0.0090    1.1640 ca        1 SNO     -0.125000
      4 C4          1.4100    0.0500    2.3830 ca        1 SNO     -0.042300
      5 C5          0.0110    0.0730    2.3930 ca        1 SNO     -0.125000
      6 C6         -0.7050    0.0420    1.1990 ca        1 SNO     -0.068000
      7 C7          2.1830    0.0730    3.6380 cx        1 SNO      0.092400
      8 C8          2.2460    1.2940    4.4940 cx        1 SNO      0.067400
      9 N1         -0.7590   -0.0390   -1.2980 no        1 SNO      0.312200
     10 O1         -0.1470   -0.0870   -2.3320 o         1 SNO     -0.207000
     11 O2         -1.9600   -0.0140   -1.2670 o         1 SNO     -0.207000
     12 O3          1.4360    0.1710    4.8650 os        1 SNO     -0.395600
     13 H22         1.9410   -0.0800   -1.0000 ha        1 SNO      0.173000
     14 H33         3.1990   -0.0340    1.1530 ha        1 SNO      0.158000
     15 H55        -0.5230    0.1100    3.3570 ha        1 SNO      0.158000
     16 H66        -1.8080    0.0580    1.2080 ha        1 SNO      0.173000
     17 H77         3.0060   -0.6710    3.6780 h1        1 SNO      0.105700
     18 H81         3.1190    1.4710    5.1490 h1        1 SNO      0.085700
     19 H82         1.6770    2.2020    4.2220 h1        1 SNO      0.085700
@<TRIPOS>BOND
     1    1    2 ar  
     2    1    6 ar  
     3    1    9 1   
     4    2    3 ar  
     5    2   13 1   
     6    3    4 ar  
     7    3   14 1   
     8    4    5 ar  
     9    4    7 1   
    10    5    6 ar  
    11    5   15 1   
    12    6   16 1   
    13    7    8 1   
    14    7   12 1   
    15    7   17 1   
    16    8   12 1   
    17    8   18 1   
    18    8   19 1   
    19    9   10 1   
    20    9   11 1   
@<TRIPOS>SUBSTRUCTURE
     1 SNO         1 TEMP              0 ****  ****    0 ROOT
