@<TRIPOS>MOLECULE
SNP
   40    41     1     0     0
SMALL
bcc


@<TRIPOS>ATOM
      1 C1          0.6990   -0.0040   -1.6190 ca        1 SNP      0.143100
      2 C2          2.0750   -0.1070   -1.6650 ca        1 SNP     -0.223000
      3 C3          2.7290   -0.1480   -2.9190 ca        1 SNP     -0.093000
      4 C4          2.0160   -0.0860   -4.0880 ca        1 SNP     -0.151000
      5 C5         -0.1630    0.0850   -5.2630 ca        1 SNP     -0.131000
      6 C6         -1.5330    0.1840   -5.2180 ca        1 SNP     -0.115000
      7 C7         -2.2080    0.2220   -3.9760 ca        1 SNP     -0.142000
      8 C8         -1.4980    0.1620   -2.8000 ca        1 SNP     -0.091000
      9 C9         -0.0830    0.0600   -2.8210 ca        1 SNP     -0.053000
     10 C10         0.5970    0.0200   -4.0640 ca        1 SNP     -0.011000
     11 O1         -0.0460    0.0540   -0.4560 os        1 SNP     -0.318900
     12 C11         0.6910   -0.0660    0.7630 c3        1 SNP      0.095400
     13 C12        -0.3470   -0.0020    1.8870 c3        1 SNP      0.127100
     14 O2         -1.1150   -1.1870    1.9700 oh        1 SNP     -0.583800
     15 C13         0.3890    0.2700    3.2140 c3        1 SNP      0.137800
     16 N1         -0.5230    0.4590    4.3200 n3        1 SNP     -0.819200
     17 C14         0.0990    0.3600    5.6350 c3        1 SNP      0.173500
     18 C15        -0.8270    0.9220    6.7160 c3        1 SNP     -0.109600
     19 C16         0.5260   -1.0490    6.0540 c3        1 SNP     -0.109600
     20 H2          2.6830   -0.1580   -0.7530 ha        1 SNP      0.134000
     21 H3          3.8260   -0.2300   -2.9350 ha        1 SNP      0.131000
     22 H4          2.5240   -0.1160   -5.0630 ha        1 SNP      0.134000
     23 H5          0.3690    0.0540   -6.2250 ha        1 SNP      0.133000
     24 H6         -2.1200    0.2340   -6.1470 ha        1 SNP      0.131000
     25 H7         -3.3050    0.2990   -3.9630 ha        1 SNP      0.134000
     26 H8         -2.0090    0.1880   -1.8230 ha        1 SNP      0.152000
     27 H112        1.4170    0.7840    0.8490 h1        1 SNP      0.046700
     28 H111        1.2420   -1.0430    0.7790 h1        1 SNP      0.046700
     29 H12        -1.1080    0.8010    1.6680 h1        1 SNP      0.111700
     30 H2O1       -0.5020   -1.9290    2.0490 ho        1 SNP      0.396000
     31 H132        0.9900    1.2160    3.1070 h1        1 SNP      0.032200
     32 H131        1.1170   -0.5780    3.3850 h1        1 SNP      0.032200
     33 H1         -1.3030   -0.1680    4.2480 hn        1 SNP      0.372800
     34 H14         1.0270    1.0070    5.6050 h1        1 SNP      0.052700
     35 H153       -0.2860    0.9220    7.6920 hc        1 SNP      0.038533
     36 H152       -1.1310    1.9680    6.4740 hc        1 SNP      0.038533
     37 H151       -1.7460    0.2970    6.8170 hc        1 SNP      0.038533
     38 H163       -0.3550   -1.7320    6.1030 hc        1 SNP      0.038533
     39 H162        1.2680   -1.4760    5.3370 hc        1 SNP      0.038533
     40 H161        0.9990   -1.0090    7.0640 hc        1 SNP      0.038533
@<TRIPOS>BOND
     1    1    2 ar  
     2    1    9 ar  
     3    1   11 1   
     4    2    3 ar  
     5    2   20 1   
     6    3    4 ar  
     7    3   21 1   
     8    4   10 ar  
     9    4   22 1   
    10    5    6 ar  
    11    5   10 ar  
    12    5   23 1   
    13    6    7 ar  
    14    6   24 1   
    15    7    8 ar  
    16    7   25 1   
    17    8    9 ar  
    18    8   26 1   
    19    9   10 ar  
    20   11   12 1   
    21   12   13 1   
    22   12   27 1   
    23   12   28 1   
    24   13   14 1   
    25   13   15 1   
    26   13   29 1   
    27   14   30 1   
    28   15   16 1   
    29   15   31 1   
    30   15   32 1   
    31   16   17 1   
    32   16   33 1   
    33   17   18 1   
    34   17   19 1   
    35   17   34 1   
    36   18   35 1   
    37   18   36 1   
    38   18   37 1   
    39   19   38 1   
    40   19   39 1   
    41   19   40 1   
@<TRIPOS>SUBSTRUCTURE
     1 SNP         1 TEMP              0 ****  ****    0 ROOT
