@<TRIPOS>MOLECULE
SNP
   41    42     1     0     0
SMALL
bcc


@<TRIPOS>ATOM
      1 C1          0.4880   -0.3810    0.1140 ca        1 SNP      0.104100
      2 C2          1.8330   -0.3320    0.4060 ca        1 SNP     -0.183000
      3 C3          2.2450    0.0340    1.7100 ca        1 SNP     -0.107000
      4 C4          1.3200    0.3320    2.6780 ca        1 SNP     -0.116000
      5 C5         -1.0450    0.5810    3.3860 ca        1 SNP     -0.114000
      6 C6         -2.3860    0.5220    3.0920 ca        1 SNP     -0.112000
      7 C7         -2.8200    0.1610    1.7940 ca        1 SNP     -0.116000
      8 C8         -1.9030   -0.1350    0.8140 ca        1 SNP     -0.117000
      9 C9         -0.5110   -0.0800    1.0920 ca        1 SNP     -0.042000
     10 C10        -0.0730    0.2800    2.3930 ca        1 SNP     -0.018000
     11 O1         -0.0150   -0.7760   -1.1250 os        1 SNP     -0.346900
     12 C11         0.8700   -0.5820   -2.2280 c3        1 SNP      0.099400
     13 C12        -0.0460   -0.6470   -3.4560 c3        1 SNP      0.121100
     14 O2         -1.0870    0.3130   -3.3970 oh        1 SNP     -0.636800
     15 C13         0.7800   -0.3250   -4.7160 c3        1 SNP      0.098800
     16 N1         -0.0860   -0.1730   -5.9180 n4        1 SNP     -0.762000
     17 C14         0.6850    0.2400   -7.1520 c3        1 SNP      0.133500
     18 C15        -0.0700   -0.1630   -8.4120 c3        1 SNP     -0.134100
     19 C16         0.9590    1.7380   -7.1610 c3        1 SNP     -0.134100
     20 H2          2.5970   -0.5760   -0.3440 ha        1 SNP      0.132000
     21 H3          3.3230    0.0690    1.9320 ha        1 SNP      0.145000
     22 H4          1.6380    0.6150    3.6940 ha        1 SNP      0.148000
     23 H5         -0.7000    0.8580    4.3940 ha        1 SNP      0.146000
     24 H6         -3.1390    0.7530    3.8620 ha        1 SNP      0.146000
     25 H7         -3.8990    0.1160    1.5840 ha        1 SNP      0.141000
     26 H8         -2.2270   -0.4270   -0.1960 ha        1 SNP      0.128000
     27 H112        1.6240   -1.4100   -2.2540 h1        1 SNP      0.064700
     28 H111        1.3820    0.4130   -2.1550 h1        1 SNP      0.064700
     29 H12        -0.5040   -1.6750   -3.5320 h1        1 SNP      0.077700
     30 H2O1       -1.4120    0.3430   -2.4820 ho        1 SNP      0.470000
     31 H132        1.5200   -1.1540   -4.8980 hx        1 SNP      0.110200
     32 H131        1.3350    0.6460   -4.5670 hx        1 SNP      0.110200
     33 H1         -0.5660   -1.0610   -6.1020 hn        1 SNP      0.459800
     34 H14         1.6670   -0.3210   -7.1140 hx        1 SNP      0.103700
     35 H153       -1.0450    0.3760   -8.4960 hc        1 SNP      0.079367
     36 H152        0.5570    0.1120   -9.2980 hc        1 SNP      0.079367
     37 H151       -0.2540   -1.2650   -8.4500 hc        1 SNP      0.079367
     38 H163        1.5370    2.0580   -6.2600 hc        1 SNP      0.079367
     39 H162        1.5690    1.9760   -8.0690 hc        1 SNP      0.079367
     40 H161        0.0110    2.3270   -7.2150 hc        1 SNP      0.079367
     41 H121       -0.8050    0.5350   -5.7080 hn        1 SNP      0.459800
@<TRIPOS>BOND
     1    1    2 ar  
     2    1    9 ar  
     3    1   11 1   
     4    2    3 ar  
     5    2   20 1   
     6    3    4 ar  
     7    3   21 1   
     8    4   10 ar  
     9    4   22 1   
    10    5    6 ar  
    11    5   10 ar  
    12    5   23 1   
    13    6    7 ar  
    14    6   24 1   
    15    7    8 ar  
    16    7   25 1   
    17    8    9 ar  
    18    8   26 1   
    19    9   10 ar  
    20   11   12 1   
    21   12   13 1   
    22   12   27 1   
    23   12   28 1   
    24   13   14 1   
    25   13   15 1   
    26   13   29 1   
    27   14   30 1   
    28   15   16 1   
    29   15   31 1   
    30   15   32 1   
    31   16   17 1   
    32   16   33 1   
    33   16   41 1   
    34   17   18 1   
    35   17   19 1   
    36   17   34 1   
    37   18   35 1   
    38   18   36 1   
    39   18   37 1   
    40   19   38 1   
    41   19   39 1   
    42   19   40 1   
@<TRIPOS>SUBSTRUCTURE
     1 SNP         1 TEMP              0 ****  ****    0 ROOT
