@<TRIPOS>MOLECULE
SNP
   40    36     1     0     0
SMALL
bcc


@<TRIPOS>ATOM
      1 C1          0.0600    0.6700    2.4120 c1        1 SNP      0.128600
      2 C2          0.9930    1.6740    2.6310 c1        1 SNP     -0.073667
      3 C3          1.5900    1.8080    3.8790 c1        1 SNP     -0.073667
      4 C4          1.2520    0.9330    4.9110 c1        1 SNP     -0.092500
      5 C5         -0.0800   -0.9220    5.7480 c1        1 SNP     -0.073667
      6 C6         -1.0650   -1.8880    5.5460 c1        1 SNP     -0.073667
      7 C7         -1.6640   -2.0220    4.2940 c1        1 SNP     -0.073667
      8 C8         -1.2830   -1.1990    3.2520 c1        1 SNP     -0.073667
      9 C9         -0.2820   -0.2160    3.4560 cg        1 SNP     -0.053000
     10 C10         0.3100   -0.0830    4.6900 cg        1 SNP     -0.011000
     11 O1         -0.6020    0.8560    1.1710 os        1 SNP     -0.326400
     12 C11         0.2560    0.7540    0.0440 c3        1 SNP      0.089400
     13 C12        -0.5710    0.6690   -1.2230 c3        1 SNP      0.135100
     14 O2         -1.3350    1.8240   -1.3590 oh        1 SNP     -0.603800
     15 C13         0.3630    0.5310   -2.4290 c3        1 SNP      0.171800
     16 N1         -0.4190    0.1740   -3.6180 n3        1 SNP     -0.818200
     17 C14         0.4690   -0.4120   -4.6410 c3        1 SNP      0.172500
     18 C15         0.0370   -1.8890   -4.9270 c3        1 SNP     -0.109100
     19 C16         0.3680    0.4030   -5.9190 c3        1 SNP     -0.109100
     20 H2          1.2380    2.3100    1.8810 ha        1 SNP      0.078500
     21 H3          2.2260    2.4920    4.0290 ha        1 SNP      0.078500
     22 H4          1.6550    1.0230    5.7530 ha        1 SNP      0.077500
     23 H5          0.3490   -0.8260    6.6440 ha        1 SNP      0.078500
     24 H6         -1.3390   -2.4780    6.2900 ha        1 SNP      0.078500
     25 H7         -2.3590   -2.7050    4.1510 ha        1 SNP      0.078500
     26 H8         -1.7030   -1.2940    2.3760 ha        1 SNP      0.078500
     27 H112        0.8290   -0.0760    0.1310 h1        1 SNP      0.054200
     28 H111        0.8180    1.5230    0.0030 h1        1 SNP      0.054200
     29 H12        -1.1840   -0.1380   -1.1750 h1        1 SNP      0.065700
     30 H2O1       -2.1660    1.6230   -1.3200 ho        1 SNP      0.418000
     31 H132        0.8100    1.3620   -2.5800 h1        1 SNP      0.037700
     32 H131        1.0030   -0.1460   -2.2570 h1        1 SNP      0.037700
     33 H1         -0.8090    0.9150   -3.9520 hn        1 SNP      0.372800
     34 H14         1.3570   -0.4000   -4.3300 h1        1 SNP      0.050700
     35 H153        0.6280   -2.2770   -5.6150 hc        1 SNP      0.038533
     36 H152        0.1060   -2.4140   -4.1040 hc        1 SNP      0.038533
     37 H151       -0.9020   -1.9030   -5.2530 hc        1 SNP      0.038533
     38 H163       -0.5660    0.3970   -6.2400 hc        1 SNP      0.038533
     39 H162        0.9620    0.0070   -6.6170 hc        1 SNP      0.038533
     40 H161        0.6490    1.3390   -5.7350 hc        1 SNP      0.038533
@<TRIPOS>BOND
     1    1    9 3   
     2    1   11 1   
     3    2    3 3   
     4    2   20 1   
     5    3   21 1   
     6    4   10 3   
     7    4   22 1   
     8    5    6 3   
     9    5   23 1   
    10    6   24 1   
    11    7    8 3   
    12    7   25 1   
    13    8   26 1   
    14    9   10 1   
    15   11   12 1   
    16   12   13 1   
    17   12   27 1   
    18   12   28 1   
    19   13   14 1   
    20   13   15 1   
    21   13   29 1   
    22   14   30 1   
    23   15   16 1   
    24   15   31 1   
    25   15   32 1   
    26   16   17 1   
    27   16   33 1   
    28   17   18 1   
    29   17   19 1   
    30   17   34 1   
    31   18   35 1   
    32   18   36 1   
    33   18   37 1   
    34   19   38 1   
    35   19   39 1   
    36   19   40 1   
@<TRIPOS>SUBSTRUCTURE
     1 SNP         1 TEMP              0 ****  ****    0 ROOT
