@<TRIPOS>MOLECULE
SNP
   41    42     1     0     0
SMALL
bcc


@<TRIPOS>ATOM
      1 C1          0.4930   -0.3780    0.1160 ca        1 SNP      0.104100
      2 C2          1.8370   -0.3200    0.4150 ca        1 SNP     -0.183000
      3 C3          2.2410    0.0640    1.7160 ca        1 SNP     -0.107000
      4 C4          1.3100    0.3720    2.6750 ca        1 SNP     -0.116000
      5 C5         -1.0600    0.6210    3.3670 ca        1 SNP     -0.114000
      6 C6         -2.3990    0.5530    3.0670 ca        1 SNP     -0.112000
      7 C7         -2.8240    0.1730    1.7720 ca        1 SNP     -0.116000
      8 C8         -1.9010   -0.1320    0.8010 ca        1 SNP     -0.117000
      9 C9         -0.5120   -0.0680    1.0860 ca        1 SNP     -0.042000
     10 C10        -0.0810    0.3110    2.3830 ca        1 SNP     -0.018000
     11 O1         -0.0010   -0.7930   -1.1200 os        1 SNP     -0.346900
     12 C11         0.8820   -0.5900   -2.2230 c3        1 SNP      0.099400
     13 C12        -0.0320   -0.6650   -3.4510 c3        1 SNP      0.121100
     14 O2         -1.0860    0.2810   -3.3900 oh        1 SNP     -0.636800
     15 C13         0.7890   -0.3290   -4.7100 c3        1 SNP      0.098800
     16 N1         -0.0790   -0.1870   -5.9130 n4        1 SNP     -0.762000
     17 C14         0.6860    0.2410   -7.1450 c3        1 SNP      0.133500
     18 C15        -0.0620   -0.1700   -8.4070 c3        1 SNP     -0.134100
     19 C16         0.9380    1.7430   -7.1500 c3        1 SNP     -0.134100
     20 H2          2.6050   -0.5720   -0.3290 ha        1 SNP      0.132000
     21 H3          3.3170    0.1060    1.9420 ha        1 SNP      0.145000
     22 H4          1.6220    0.6690    3.6880 ha        1 SNP      0.148000
     23 H5         -0.7210    0.9130    4.3730 ha        1 SNP      0.146000
     24 H6         -3.1570    0.7920    3.8300 ha        1 SNP      0.146000
     25 H7         -3.9030    0.1210    1.5570 ha        1 SNP      0.141000
     26 H8         -2.2190   -0.4390   -0.2060 ha        1 SNP      0.128000
     27 H112        1.6450   -1.4110   -2.2480 h1        1 SNP      0.064700
     28 H111        1.3850    0.4090   -2.1500 h1        1 SNP      0.064700
     29 H12        -0.4770   -1.6980   -3.5290 h1        1 SNP      0.077700
     30 H2O1       -1.4100    0.3070   -2.4750 ho        1 SNP      0.470000
     31 H132        1.5400   -1.1470   -4.8940 hx        1 SNP      0.110200
     32 H131        1.3310    0.6490   -4.5590 hx        1 SNP      0.110200
     33 H1         -0.5460   -1.0810   -6.0990 hn        1 SNP      0.459800
     34 H14         1.6770   -0.3050   -7.1080 hx        1 SNP      0.103700
     35 H153        0.5610    0.1170   -9.2910 hc        1 SNP      0.079367
     36 H152       -0.2300   -1.2740   -8.4470 hc        1 SNP      0.079367
     37 H151       -1.0450    0.3540   -8.4900 hc        1 SNP      0.079367
     38 H163       -0.0190    2.3180   -7.2030 hc        1 SNP      0.079367
     39 H162        1.5100    2.0700   -6.2480 hc        1 SNP      0.079367
     40 H161        1.5450    1.9920   -8.0570 hc        1 SNP      0.079367
     41 H121       -0.8080    0.5100   -5.7010 hn        1 SNP      0.459800
@<TRIPOS>BOND
     1    1    2 ar  
     2    1    9 ar  
     3    1   11 1   
     4    2    3 ar  
     5    2   20 1   
     6    3    4 ar  
     7    3   21 1   
     8    4   10 ar  
     9    4   22 1   
    10    5    6 ar  
    11    5   10 ar  
    12    5   23 1   
    13    6    7 ar  
    14    6   24 1   
    15    7    8 ar  
    16    7   25 1   
    17    8    9 ar  
    18    8   26 1   
    19    9   10 ar  
    20   11   12 1   
    21   12   13 1   
    22   12   27 1   
    23   12   28 1   
    24   13   14 1   
    25   13   15 1   
    26   13   29 1   
    27   14   30 1   
    28   15   16 1   
    29   15   31 1   
    30   15   32 1   
    31   16   17 1   
    32   16   33 1   
    33   16   41 1   
    34   17   18 1   
    35   17   19 1   
    36   17   34 1   
    37   18   35 1   
    38   18   36 1   
    39   18   37 1   
    40   19   38 1   
    41   19   39 1   
    42   19   40 1   
@<TRIPOS>SUBSTRUCTURE
     1 SNP         1 TEMP              0 ****  ****    0 ROOT
