@<TRIPOS>MOLECULE
SNP
   41    42     1     0     0
SMALL
bcc


@<TRIPOS>ATOM
      1 C1          0.4910   -0.4000    0.1120 ca        1 SNP      0.104100
      2 C2          1.8370   -0.3570    0.4070 ca        1 SNP     -0.183000
      3 C3          2.2480    0.0120    1.7100 ca        1 SNP     -0.107000
      4 C4          1.3220    0.3200    2.6750 ca        1 SNP     -0.116000
      5 C5         -1.0430    0.5850    3.3760 ca        1 SNP     -0.114000
      6 C6         -2.3840    0.5330    3.0800 ca        1 SNP     -0.112000
      7 C7         -2.8160    0.1680    1.7830 ca        1 SNP     -0.116000
      8 C8         -1.8990   -0.1370    0.8060 ca        1 SNP     -0.117000
      9 C9         -0.5080   -0.0880    1.0870 ca        1 SNP     -0.042000
     10 C10        -0.0700    0.2740    2.3870 ca        1 SNP     -0.018000
     11 O1         -0.0100   -0.7980   -1.1260 os        1 SNP     -0.346900
     12 C11         0.8730   -0.6000   -2.2290 c3        1 SNP      0.099400
     13 C12        -0.0440   -0.6570   -3.4570 c3        1 SNP      0.121100
     14 O2         -1.0860    0.3010   -3.3890 oh        1 SNP     -0.636800
     15 C13         0.7800   -0.3250   -4.7150 c3        1 SNP      0.098800
     16 N1         -0.0890   -0.1670   -5.9160 ny        1 SNP     -0.762000
     17 C14         0.6800    0.2580   -7.1470 c3        1 SNP      0.133500
     18 C15        -0.0760   -0.1380   -8.4090 c3        1 SNP     -0.134100
     19 C16         0.9500    1.7560   -7.1450 c3        1 SNP     -0.134100
     20 H2          2.6010   -0.6090   -0.3410 ha        1 SNP      0.132000
     21 H3          3.3250    0.0420    1.9340 ha        1 SNP      0.145000
     22 H4          1.6400    0.6050    3.6900 ha        1 SNP      0.148000
     23 H5         -0.6980    0.8650    4.3840 ha        1 SNP      0.146000
     24 H6         -3.1360    0.7710    3.8470 ha        1 SNP      0.146000
     25 H7         -3.8950    0.1290    1.5700 ha        1 SNP      0.141000
     26 H8         -2.2220   -0.4320   -0.2030 ha        1 SNP      0.128000
     27 H112        1.3880    0.3940   -2.1520 h1        1 SNP      0.064700
     28 H111        1.6270   -1.4290   -2.2610 h1        1 SNP      0.064700
     29 H12        -0.5010   -1.6850   -3.5390 h1        1 SNP      0.077700
     30 H2O1       -1.4090    0.3260   -2.4730 ho        1 SNP      0.470000
     31 H132        1.5200   -1.1520   -4.9040 hx        1 SNP      0.110200
     32 H131        1.3330    0.6450   -4.5600 hx        1 SNP      0.110200
     33 H1         -0.8090    0.5390   -5.6990 hn        1 SNP      0.459800
     34 H14         1.6640   -0.3010   -7.1140 hx        1 SNP      0.103700
     35 H153       -1.0520    0.3990   -8.4880 hc        1 SNP      0.079367
     36 H152       -0.2570   -1.2400   -8.4550 hc        1 SNP      0.079367
     37 H151        0.5500    0.1450   -9.2940 hc        1 SNP      0.079367
     38 H163        1.5590    2.0020   -8.0520 hc        1 SNP      0.079367
     39 H162        1.5280    2.0720   -6.2430 hc        1 SNP      0.079367
     40 H161        0.0000    2.3430   -7.1940 hc        1 SNP      0.079367
     41 H121       -0.5670   -1.0540   -6.1050 hn        1 SNP      0.459800
@<TRIPOS>BOND
     1    1    2 ar  
     2    1    9 ar  
     3    1   11 1   
     4    2    3 ar  
     5    2   20 1   
     6    3    4 ar  
     7    3   21 1   
     8    4   10 ar  
     9    4   22 1   
    10    5    6 ar  
    11    5   10 ar  
    12    5   23 1   
    13    6    7 ar  
    14    6   24 1   
    15    7    8 ar  
    16    7   25 1   
    17    8    9 ar  
    18    8   26 1   
    19    9   10 ar  
    20   11   12 1   
    21   12   13 1   
    22   12   27 1   
    23   12   28 1   
    24   13   14 1   
    25   13   15 1   
    26   13   29 1   
    27   14   30 1   
    28   15   16 1   
    29   15   31 1   
    30   15   32 1   
    31   16   17 1   
    32   16   33 1   
    33   16   41 1   
    34   17   18 1   
    35   17   19 1   
    36   17   34 1   
    37   18   35 1   
    38   18   36 1   
    39   18   37 1   
    40   19   38 1   
    41   19   39 1   
    42   19   40 1   
@<TRIPOS>SUBSTRUCTURE
     1 SNP         1 TEMP              0 ****  ****    0 ROOT
