@<TRIPOS>MOLECULE
SNR
   28    29     1     0     0
SMALL
bcc


@<TRIPOS>ATOM
      1 C1          0.0650   -0.5300   -0.0250 c         1 SNR      0.745500
      2 N2          1.4930   -0.5310    0.0990 n         1 SNR     -0.510900
      3 C3          1.8410   -0.0320    1.4290 c3        1 SNR      0.046700
      4 C4          0.4590    0.0590    2.2150 c3        1 SNR      0.057700
      5 N5         -0.5540   -0.3420    1.2420 n         1 SNR     -0.509900
      6 C6          0.3260    1.4400    2.8570 c3        1 SNR     -0.003600
      7 S7          1.3790    2.5570    1.9390 ss        1 SNR     -0.278200
      8 C8          2.5460    1.3190    1.4740 c3        1 SNR     -0.052300
      9 O11        -0.5400   -0.7750   -1.0850 o         1 SNR     -0.632500
     10 C12        -1.0780    1.9900    2.9420 c3        1 SNR     -0.075400
     11 C13        -1.1720    3.1260    3.9440 c3        1 SNR     -0.070400
     12 C14        -2.5780    3.6640    4.0440 c3        1 SNR     -0.198400
     13 C15        -2.7620    4.5130    5.3180 c         1 SNR      0.910600
     14 O16        -3.4610    5.5610    5.2260 o         1 SNR     -0.848300
     15 O17        -2.2270    4.1090    6.3910 o         1 SNR     -0.848300
     16 HN2         1.9800   -0.1280   -0.6700 hn        1 SNR      0.299500
     17 H3          2.4890   -0.8130    1.9150 h1        1 SNR      0.079700
     18 H4          0.4490   -0.7210    3.0290 h1        1 SNR      0.084700
     19 HN5        -1.4170    0.1550    1.2430 hn        1 SNR      0.323500
     20 H6          0.7400    1.3670    3.9000 h1        1 SNR      0.089700
     21 H81         2.9930    1.6100    0.4930 h1        1 SNR      0.072700
     22 H82         3.3780    1.2750    2.2190 h1        1 SNR      0.072700
     23 H11        -1.4180    2.3520    1.9360 hc        1 SNR      0.045200
     24 H21        -1.7750    1.1690    3.2650 hc        1 SNR      0.045200
     25 H12        -0.4700    3.9480    3.6440 hc        1 SNR      0.055200
     26 H22        -0.8550    2.7700    4.9630 hc        1 SNR      0.055200
     27 H13        -2.8270    4.2830    3.1470 hc        1 SNR      0.022200
     28 H23        -3.3120    2.8210    4.0960 hc        1 SNR      0.022200
@<TRIPOS>BOND
     1    1    2 1   
     2    1    5 1   
     3    1    9 2   
     4    2    3 1   
     5    2   16 1   
     6    3    4 1   
     7    3    8 1   
     8    3   17 1   
     9    4    5 1   
    10    4    6 1   
    11    4   18 1   
    12    5   19 1   
    13    6    7 1   
    14    6   10 1   
    15    6   20 1   
    16    7    8 1   
    17    8   21 1   
    18    8   22 1   
    19   10   11 1   
    20   10   23 1   
    21   10   24 1   
    22   11   12 1   
    23   11   25 1   
    24   11   26 1   
    25   12   13 1   
    26   12   27 1   
    27   12   28 1   
    28   13   14 1   
    29   13   15 1   
@<TRIPOS>SUBSTRUCTURE
     1 SNR         1 TEMP              0 ****  ****    0 ROOT
