@<TRIPOS>MOLECULE
SNR
   28    29     1     0     0
SMALL
bcc


@<TRIPOS>ATOM
      1 C1          0.0600   -0.5600    0.0000 c         1 SNR      0.745500
      2 N2          1.4910   -0.5140    0.0830 n         1 SNR     -0.509900
      3 C3          1.8610    0.0170    1.3940 c3        1 SNR      0.046700
      4 C4          0.4990    0.0760    2.2190 c3        1 SNR      0.057700
      5 N5         -0.5270   -0.3720    1.2830 n         1 SNR     -0.509900
      6 C6          0.3420    1.4630    2.8440 c3        1 SNR     -0.003600
      7 S7          1.3310    2.5970    1.8790 ss        1 SNR     -0.278200
      8 C8          2.5230    1.3890    1.3990 c3        1 SNR     -0.052300
      9 O11        -0.5670   -0.8410   -1.0380 o         1 SNR     -0.632500
     10 C12        -1.0770    1.9690    2.9620 c3        1 SNR     -0.075400
     11 C13        -1.1780    3.1180    3.9490 c3        1 SNR     -0.070400
     12 C14        -2.5970    3.6130    4.0810 c3        1 SNR     -0.198400
     13 C15        -2.7720    4.4750    5.3470 c         1 SNR      0.910600
     14 O16        -3.5070    5.4990    5.2600 o         1 SNR     -0.848300
     15 O17        -2.1940    4.1050    6.4100 o         1 SNR     -0.848300
     16 HN2         1.9420   -0.1080   -0.7060 hn        1 SNR      0.299500
     17 H3          2.5470   -0.7360    1.8730 h1        1 SNR      0.079700
     18 H4          0.5380   -0.6910    3.0440 h1        1 SNR      0.084700
     19 HN5        -1.4060    0.0980    1.3010 hn        1 SNR      0.323500
     20 H6          0.7870    1.4190    3.8750 h1        1 SNR      0.089700
     21 H81         3.3770    1.3840    2.1190 h1        1 SNR      0.072700
     22 H82         2.9320    1.6790    0.4010 h1        1 SNR      0.072700
     23 H11        -1.7370    1.1320    3.3170 hc        1 SNR      0.045200
     24 H21        -1.4560    2.3040    1.9610 hc        1 SNR      0.045200
     25 H12        -0.5110    3.9560    3.6170 hc        1 SNR      0.055200
     26 H22        -0.8210    2.7880    4.9630 hc        1 SNR      0.055200
     27 H13        -3.3020    2.7480    4.1660 hc        1 SNR      0.022200
     28 H23        -2.8910    4.2100    3.1820 hc        1 SNR      0.022200
@<TRIPOS>BOND
     1    1    2 1   
     2    1    5 1   
     3    1    9 2   
     4    2    3 1   
     5    2   16 1   
     6    3    4 1   
     7    3    8 1   
     8    3   17 1   
     9    4    5 1   
    10    4    6 1   
    11    4   18 1   
    12    5   19 1   
    13    6    7 1   
    14    6   10 1   
    15    6   20 1   
    16    7    8 1   
    17    8   21 1   
    18    8   22 1   
    19   10   11 1   
    20   10   23 1   
    21   10   24 1   
    22   11   12 1   
    23   11   25 1   
    24   11   26 1   
    25   12   13 1   
    26   12   27 1   
    27   12   28 1   
    28   13   14 1   
    29   13   15 1   
@<TRIPOS>SUBSTRUCTURE
     1 SNR         1 TEMP              0 ****  ****    0 ROOT
