@<TRIPOS>MOLECULE
SNR
   28    28     1     0     0
SMALL
bcc


@<TRIPOS>ATOM
      1 C1         -0.1440   -1.7080   -2.6490 c1        1 SNR      0.336000
      2 N2          1.3570   -1.7390   -2.6820 n2        1 SNR     -0.320000
      3 C3          1.7950   -1.7300   -1.3990 c3        1 SNR     -0.030000
      4 C4          0.5080   -1.9140   -0.4340 c3        1 SNR     -0.019000
      5 N5         -0.5850   -1.7850   -1.1760 n3        1 SNR     -0.319000
      6 C6          0.5940   -0.7420    0.6840 c3        1 SNR     -0.225000
      7 S7          1.9150   -0.1860    0.5440 ss        1 SNR      0.086000
      8 C8          2.3560   -0.4620   -1.0710 c3        1 SNR     -0.313000
      9 O11        -0.8890   -1.6560   -3.6250 o         1 SNR     -0.357000
     10 C12        -0.5260    0.3930    0.3910 c3        1 SNR     -0.154000
     11 C13        -0.7220    1.2660    1.6660 c3        1 SNR     -0.149000
     12 C14        -1.8470    2.2870    1.4280 c3        1 SNR     -0.227000
     13 C15        -1.9980    3.1610    2.6480 c2        1 SNR      0.330000
     14 O16        -1.3680    4.2380    2.7260 o         1 SNR     -0.583000
     15 O17        -2.7870    2.8170    3.5830 o         1 SNR     -0.583000
     16 HN2         1.8840   -1.7060   -3.4360 hn        1 SNR      0.213000
     17 H3          2.4500   -2.4520   -1.2480 h1        1 SNR      0.119000
     18 H4          0.5270   -2.8010   -0.0030 h1        1 SNR      0.124000
     19 HN5        -1.4480   -1.7850   -0.8700 hn        1 SNR      0.237000
     20 H6          0.4740   -1.1230    1.5960 h1        1 SNR      0.129000
     21 H81         3.3490   -0.5730   -1.0860 h1        1 SNR      0.112000
     22 H82         1.8830    0.2080   -1.6150 h1        1 SNR      0.112000
     23 H11        -1.3710   -0.0370    0.1570 hc        1 SNR      0.084500
     24 H21        -0.2350    0.9510   -0.3410 hc        1 SNR      0.084500
     25 H12        -0.9640    0.6800    2.4360 hc        1 SNR      0.094500
     26 H22         0.1120    1.7420    1.8670 hc        1 SNR      0.094500
     27 H13        -1.6230    2.8460    0.6500 hc        1 SNR      0.061500
     28 H23        -2.6960    1.8090    1.2580 hc        1 SNR      0.061500
@<TRIPOS>BOND
     1    1    5 1   
     2    1    9 1   
     3    2    3 1   
     4    2   16 1   
     5    3    4 1   
     6    3    8 1   
     7    3   17 1   
     8    4    5 1   
     9    4    6 1   
    10    4   18 1   
    11    5   19 1   
    12    6    7 1   
    13    6   10 1   
    14    6   20 1   
    15    7    8 1   
    16    8   21 1   
    17    8   22 1   
    18   10   11 1   
    19   10   23 1   
    20   10   24 1   
    21   11   12 1   
    22   11   25 1   
    23   11   26 1   
    24   12   13 1   
    25   12   27 1   
    26   12   28 1   
    27   13   14 1   
    28   13   15 1   
@<TRIPOS>SUBSTRUCTURE
     1 SNR         1 TEMP              0 ****  ****    0 ROOT
