@<TRIPOS>MOLECULE
SNR
   28    29     1     0     0
SMALL
bcc


@<TRIPOS>ATOM
      1 C1          0.0530   -0.5720    0.0090 c         1 SNR      0.745500
      2 N2          1.4840   -0.5390    0.1000 ns        1 SNR     -0.509900
      3 C3          1.8520   -0.0070    1.4110 c3        1 SNR      0.046700
      4 C4          0.4860    0.0690    2.2280 c3        1 SNR      0.057700
      5 N5         -0.5400   -0.3730    1.2870 ns        1 SNR     -0.509900
      6 C6          0.3380    1.4580    2.8470 c3        1 SNR     -0.003600
      7 S7          1.3430    2.5800    1.8830 ss        1 SNR     -0.278200
      8 C8          2.5270    1.3590    1.4140 c3        1 SNR     -0.052300
      9 O11        -0.5710   -0.8500   -1.0310 o         1 SNR     -0.632500
     10 C12        -1.0760    1.9790    2.9560 c3        1 SNR     -0.075400
     11 C13        -1.1720    3.1310    3.9390 c3        1 SNR     -0.070400
     12 C14        -2.5870    3.6400    4.0620 c3        1 SNR     -0.198400
     13 C15        -2.7600    4.5080    5.3250 c         1 SNR      0.910600
     14 O16        -3.4850    5.5380    5.2300 o         1 SNR     -0.848300
     15 O17        -2.1890    4.1380    6.3910 o         1 SNR     -0.848300
     16 HN2         1.9430   -0.1400   -0.6890 hn        1 SNR      0.299500
     17 H3          2.5280   -0.7650    1.8960 h1        1 SNR      0.079700
     18 H4          0.5130   -0.6960    3.0560 h1        1 SNR      0.084700
     19 HN5        -1.4140    0.1050    1.2990 hn        1 SNR      0.323500
     20 H6          0.7770    1.4140    3.8810 h1        1 SNR      0.089700
     21 H81         2.9440    1.6410    0.4180 h1        1 SNR      0.072700
     22 H82         3.3770    1.3480    2.1390 h1        1 SNR      0.072700
     23 H11        -1.7460    1.1490    3.3110 hc        1 SNR      0.045200
     24 H21        -1.4470    2.3140    1.9520 hc        1 SNR      0.045200
     25 H12        -0.8230    2.8020    4.9560 hc        1 SNR      0.055200
     26 H22        -0.4960    3.9630    3.6070 hc        1 SNR      0.055200
     27 H13        -3.3000    2.7810    4.1480 hc        1 SNR      0.022200
     28 H23        -2.8710    4.2360    3.1600 hc        1 SNR      0.022200
@<TRIPOS>BOND
     1    1    2 1   
     2    1    5 1   
     3    1    9 2   
     4    2    3 1   
     5    2   16 1   
     6    3    4 1   
     7    3    8 1   
     8    3   17 1   
     9    4    5 1   
    10    4    6 1   
    11    4   18 1   
    12    5   19 1   
    13    6    7 1   
    14    6   10 1   
    15    6   20 1   
    16    7    8 1   
    17    8   21 1   
    18    8   22 1   
    19   10   11 1   
    20   10   23 1   
    21   10   24 1   
    22   11   12 1   
    23   11   25 1   
    24   11   26 1   
    25   12   13 1   
    26   12   27 1   
    27   12   28 1   
    28   13   14 1   
    29   13   15 1   
@<TRIPOS>SUBSTRUCTURE
     1 SNR         1 TEMP              0 ****  ****    0 ROOT
