@<TRIPOS>MOLECULE
SNR
   28    29     1     0     0
SMALL
bcc


@<TRIPOS>ATOM
      1 C1         -1.4810   -0.0600   -3.2520 c         1 SNR      0.745500
      2 N2         -0.2050   -0.0180   -3.9060 n         1 SNR     -0.510900
      3 C3          0.8030   -0.5380   -2.9840 c3        1 SNR      0.046700
      4 C4         -0.0210   -1.1370   -1.7590 c3        1 SNR      0.057700
      5 N5         -1.4190   -0.8500   -2.0700 n         1 SNR     -0.509900
      6 C6          0.5460   -0.5930   -0.4480 c3        1 SNR     -0.003600
      7 S7          1.3890    0.9380   -0.8280 ss        1 SNR     -0.278200
      8 C8          1.8250    0.4680   -2.4700 c3        1 SNR     -0.052300
      9 O11        -2.5200    0.4370   -3.7250 o         1 SNR     -0.632500
     10 C12        -0.4580   -0.3810    0.6610 c3        1 SNR     -0.075400
     11 C13         0.2220   -0.2570    2.0120 c3        1 SNR     -0.070400
     12 C14        -0.7810   -0.0630    3.1230 c3        1 SNR     -0.198400
     13 C15        -0.1480   -0.3420    4.5010 c         1 SNR      0.910600
     14 O16        -0.4750    0.4150    5.4580 o         1 SNR     -0.848300
     15 O17         0.6450   -1.3220    4.6110 o         1 SNR     -0.848300
     16 HN2         0.0050    0.8450   -4.3560 hn        1 SNR      0.299500
     17 H3          1.3320   -1.3790   -3.5150 h1        1 SNR      0.079700
     18 H4          0.0840   -2.2590   -1.7610 h1        1 SNR      0.084700
     19 HN5        -2.0100   -0.5690   -1.3200 hn        1 SNR      0.323500
     20 H6          1.3200   -1.3240   -0.0870 h1        1 SNR      0.089700
     21 H81         1.8790    1.3920   -3.0960 h1        1 SNR      0.072700
     22 H82         2.8400    0.0010   -2.4810 h1        1 SNR      0.072700
     23 H11        -1.1610   -1.2570    0.6930 hc        1 SNR      0.045200
     24 H21        -1.0680    0.5410    0.4650 hc        1 SNR      0.045200
     25 H12         0.9390    0.6050    1.9920 hc        1 SNR      0.055200
     26 H22         0.8190   -1.1840    2.2310 hc        1 SNR      0.055200
     27 H13        -1.6370   -0.7730    2.9990 hc        1 SNR      0.022200
     28 H23        -1.1910    0.9770    3.1060 hc        1 SNR      0.022200
@<TRIPOS>BOND
     1    1    2 1   
     2    1    5 1   
     3    1    9 2   
     4    2    3 1   
     5    2   16 1   
     6    3    4 1   
     7    3    8 1   
     8    3   17 1   
     9    4    5 1   
    10    4    6 1   
    11    4   18 1   
    12    5   19 1   
    13    6    7 1   
    14    6   10 1   
    15    6   20 1   
    16    7    8 1   
    17    8   21 1   
    18    8   22 1   
    19   10   11 1   
    20   10   23 1   
    21   10   24 1   
    22   11   12 1   
    23   11   25 1   
    24   11   26 1   
    25   12   13 1   
    26   12   27 1   
    27   12   28 1   
    28   13   14 1   
    29   13   15 1   
@<TRIPOS>SUBSTRUCTURE
     1 SNR         1 TEMP              0 ****  ****    0 ROOT
