@<TRIPOS>MOLECULE
SNS
   67    71     1     0     0
SMALL
bcc


@<TRIPOS>ATOM
      1 N1          0.1690   -0.7840   -0.4220 nb        1 SNS     -0.681000
      2 C2          1.5250   -0.7620   -0.4240 ca        1 SNS      0.456600
      3 C3          2.2320   -0.7940    0.8290 ca        1 SNS     -0.261300
      4 C4          3.6170   -0.7730    0.8760 ca        1 SNS      0.096100
      5 C5          4.3670   -0.7190   -0.3550 ca        1 SNS     -0.145500
      6 C6          3.7210   -0.6880   -1.5520 ca        1 SNS     -0.089000
      7 C7          2.2970   -0.7090   -1.6390 ca        1 SNS     -0.180300
      8 C8          1.6150   -0.6780   -2.8590 ca        1 SNS     -0.044000
      9 C9          0.2170   -0.7010   -2.8730 ca        1 SNS     -0.180300
     10 C10        -0.5400   -0.6720   -4.0820 ca        1 SNS     -0.089000
     11 C11        -1.9010   -0.6940   -4.0750 ca        1 SNS     -0.145500
     12 C12        -2.6220   -0.7500   -2.8270 ca        1 SNS      0.096100
     13 C13        -1.9180   -0.7800   -1.6340 ca        1 SNS     -0.261300
     14 C14        -0.4790   -0.7550   -1.6140 ca        1 SNS      0.456600
     15 N15        -4.0250   -0.7630   -2.7800 n         1 SNS     -0.475100
     16 C16        -4.9240   -0.8550   -3.8370 c         1 SNS      0.669100
     17 O17        -4.5710   -0.9160   -5.0270 o         1 SNS     -0.590100
     18 C18        -6.3910   -0.8640   -3.4360 c3        1 SNS     -0.157400
     19 C19        -7.2630   -1.0360   -4.6810 c3        1 SNS      0.172800
     20 N20        -8.6810   -1.0750   -4.3570 n3        1 SNS     -0.725600
     21 C21        -9.5080   -1.6360   -5.4210 c3        1 SNS      0.132800
     22 C22       -10.6140   -0.6120   -5.8180 c3        1 SNS      0.154100
     23 F23       -11.8740   -1.1760   -5.7330 f         1 SNS     -0.235300
     24 C24       -10.4380    0.5710   -4.8480 c3        1 SNS     -0.128400
     25 C25        -9.2410    0.2170   -3.9560 c3        1 SNS      0.156800
     26 N26         4.2460   -0.8070    2.1310 n         1 SNS     -0.475100
     27 C27         5.6060   -0.8050    2.4170 c         1 SNS      0.669100
     28 O28         6.4870   -0.7690    1.5400 o         1 SNS     -0.590100
     29 C29         5.9530   -0.8540    3.8970 c3        1 SNS     -0.157400
     30 C30         7.4720   -0.7840    4.0720 c3        1 SNS      0.172800
     31 N31         7.8640   -0.8050    5.4720 n3        1 SNS     -0.725600
     32 C32         9.2280   -0.3380    5.7040 c3        1 SNS      0.132800
     33 C33        10.0340   -1.4340    6.4630 c3        1 SNS      0.154100
     34 F34        10.5940   -0.9320    7.6240 f         1 SNS     -0.235300
     35 C35         9.0210   -2.5600    6.7450 c3        1 SNS     -0.128400
     36 C36         7.6940   -2.1050    6.1250 c3        1 SNS      0.156800
     37 H3          1.6270   -0.8340    1.7500 ha        1 SNS      0.148000
     38 H5          5.4700   -0.7020   -0.3220 ha        1 SNS      0.177500
     39 H6          4.2950   -0.6460   -2.4920 ha        1 SNS      0.138000
     40 H8          2.1770   -0.6370   -3.8050 ha        1 SNS      0.139000
     41 H10         0.0100   -0.6300   -5.0360 ha        1 SNS      0.138000
     42 H11        -2.4580   -0.6710   -5.0270 ha        1 SNS      0.177500
     43 H13        -2.4370   -0.8230   -0.6620 ha        1 SNS      0.148000
     44 HN15       -4.4170   -0.7530   -1.8620 hn        1 SNS      0.318500
     45 H18        -6.5820   -1.7040   -2.7160 hc        1 SNS      0.074700
     46 H18A       -6.6370    0.1000   -2.9170 hc        1 SNS      0.074700
     47 H19        -7.0050   -0.2140   -5.4110 h1        1 SNS      0.053200
     48 H19A       -6.9830   -2.0140   -5.1680 h1        1 SNS      0.053200
     49 H21        -9.9890   -2.5680   -5.0160 h1        1 SNS      0.062700
     50 H21A       -8.9140   -1.9130   -6.3330 h1        1 SNS      0.062700
     51 H22       -10.4600   -0.2750   -6.8810 h1        1 SNS      0.056700
     52 H24       -11.3610    0.7150   -4.2340 hc        1 SNS      0.064200
     53 H24A      -10.2460    1.5120   -5.4160 hc        1 SNS      0.064200
     54 H25        -9.5760    0.1090   -2.8870 h1        1 SNS      0.047450
     55 H25A       -8.4750    1.0400   -3.9940 h1        1 SNS      0.047450
     56 HN26        3.6270   -0.8320    2.9120 hn        1 SNS      0.318500
     57 H29         5.4670    0.0060    4.4280 hc        1 SNS      0.074700
     58 H29A        5.5530   -1.8050    4.3380 hc        1 SNS      0.074700
     59 H30         7.8290    0.1840    3.6170 h1        1 SNS      0.053200
     60 H30A        7.9360   -1.6240    3.4760 h1        1 SNS      0.053200
     61 H32         9.1610    0.5870    6.3400 h1        1 SNS      0.062700
     62 H32A        9.7640   -0.0740    4.7530 h1        1 SNS      0.062700
     63 H33        10.8720   -1.8120    5.8140 h1        1 SNS      0.056700
     64 H35         9.3680   -3.5150    6.2840 hc        1 SNS      0.064200
     65 H35A        8.9110   -2.7220    7.8450 hc        1 SNS      0.064200
     66 H36         7.3120   -2.8870    5.4140 h1        1 SNS      0.047450
     67 H36A        6.9210   -1.9660    6.9300 h1        1 SNS      0.047450
@<TRIPOS>BOND
     1    1    2 ar  
     2    1   14 ar  
     3    2    3 ar  
     4    2    7 ar  
     5    3    4 ar  
     6    3   37 1   
     7    4    5 ar  
     8    4   26 1   
     9    5    6 ar  
    10    5   38 1   
    11    6    7 ar  
    12    6   39 1   
    13    7    8 ar  
    14    8    9 ar  
    15    8   40 1   
    16    9   10 ar  
    17    9   14 ar  
    18   10   11 ar  
    19   10   41 1   
    20   11   12 ar  
    21   11   42 1   
    22   12   13 ar  
    23   12   15 1   
    24   13   14 ar  
    25   13   43 1   
    26   15   16 1   
    27   15   44 1   
    28   16   17 2   
    29   16   18 1   
    30   18   19 1   
    31   18   45 1   
    32   18   46 1   
    33   19   20 1   
    34   19   47 1   
    35   19   48 1   
    36   20   21 1   
    37   20   25 1   
    38   21   22 1   
    39   21   49 1   
    40   21   50 1   
    41   22   23 1   
    42   22   24 1   
    43   22   51 1   
    44   24   25 1   
    45   24   52 1   
    46   24   53 1   
    47   25   54 1   
    48   25   55 1   
    49   26   27 1   
    50   26   56 1   
    51   27   28 2   
    52   27   29 1   
    53   29   30 1   
    54   29   57 1   
    55   29   58 1   
    56   30   31 1   
    57   30   59 1   
    58   30   60 1   
    59   31   32 1   
    60   31   36 1   
    61   32   33 1   
    62   32   61 1   
    63   32   62 1   
    64   33   34 1   
    65   33   35 1   
    66   33   63 1   
    67   35   36 1   
    68   35   64 1   
    69   35   65 1   
    70   36   66 1   
    71   36   67 1   
@<TRIPOS>SUBSTRUCTURE
     1 SNS         1 TEMP              0 ****  ****    0 ROOT
