@<TRIPOS>MOLECULE
SNS
   69    73     1     0     0
SMALL
bcc


@<TRIPOS>ATOM
      1 N1         -0.4600    0.0670   -0.1530 nb        1 SNS     -0.625000
      2 C2          0.7470    0.5280    0.2530 ca        1 SNS      0.423100
      3 C3          1.0440    0.5530    1.6690 ca        1 SNS     -0.118800
      4 C4          2.2610    1.0240    2.1010 ca        1 SNS     -0.012400
      5 C5          3.2590    1.4950    1.1800 ca        1 SNS     -0.134000
      6 C6          2.9990    1.4780   -0.1580 ca        1 SNS     -0.051500
      7 C7          1.7500    1.0010   -0.6650 ca        1 SNS     -0.134800
      8 C8          1.4590    0.9810   -2.0350 ca        1 SNS     -0.027000
      9 C9          0.2130    0.5090   -2.4710 ca        1 SNS     -0.134800
     10 C10        -0.1430    0.4660   -3.8540 ca        1 SNS     -0.051500
     11 C11        -1.3650    0.0130   -4.2550 ca        1 SNS     -0.134000
     12 C12        -2.3140   -0.4330   -3.2720 ca        1 SNS     -0.012400
     13 C13        -2.0190   -0.4210   -1.9290 ca        1 SNS     -0.118800
     14 C14        -0.7300    0.0570   -1.4820 ca        1 SNS      0.423100
     15 N15        -3.6300   -0.8850   -3.7320 n4        1 SNS     -0.558700
     16 C16        -3.6010   -2.1890   -4.5320 c         1 SNS      0.567100
     17 O17        -2.7420   -2.2820   -5.3900 o         1 SNS     -0.399600
     18 C18        -4.6790   -3.1750   -4.1910 c3        1 SNS     -0.163900
     19 C19        -6.0450   -2.7230   -4.7340 c3        1 SNS      0.179800
     20 N20        -6.4200   -1.4190   -4.2310 n3        1 SNS     -0.783600
     21 C21        -7.1200   -1.4310   -2.9460 c3        1 SNS      0.128300
     22 C22        -7.9730   -0.1290   -2.8770 c3        1 SNS      0.169100
     23 F23        -7.3150    0.8440   -2.1460 f         1 SNS     -0.230300
     24 C24        -8.1590    0.2840   -4.3520 c3        1 SNS     -0.123400
     25 C25        -7.1900   -0.5860   -5.1650 c3        1 SNS      0.165800
     26 N26         2.5670    1.0700    3.5350 n4        1 SNS     -0.558700
     27 C27         3.2260   -0.2360    4.0190 c         1 SNS      0.567100
     28 O28         2.4510   -1.0250    4.5260 o         1 SNS     -0.399600
     29 C29         4.7000   -0.3140    3.8020 c3        1 SNS     -0.163900
     30 C30         5.2200   -1.7080    4.2280 c3        1 SNS      0.179800
     31 N31         6.6050   -1.8440    3.8600 n3        1 SNS     -0.783600
     32 C32         6.9630   -3.0880    3.1860 c3        1 SNS      0.128300
     33 C33         8.4170   -3.4650    3.5990 c3        1 SNS      0.169100
     34 F34         9.2870   -3.3130    2.5370 f         1 SNS     -0.230300
     35 C35         8.7620   -2.5210    4.7690 c3        1 SNS     -0.123400
     36 C36         7.5810   -1.5540    4.9100 c3        1 SNS      0.165800
     37 H3          0.2680    0.1870    2.3670 ha        1 SNS      0.181000
     38 H5          4.2260    1.8730    1.5520 ha        1 SNS      0.173000
     39 H6          3.7550    1.8390   -0.8800 ha        1 SNS      0.178500
     40 H8          2.2050    1.3350   -2.7670 ha        1 SNS      0.176000
     41 H10         0.5970    0.8100   -4.5990 ha        1 SNS      0.178500
     42 H11        -1.6220   -0.0340   -5.3280 ha        1 SNS      0.173000
     43 H13        -2.7370   -0.7580   -1.1580 ha        1 SNS      0.181000
     44 HN15       -4.0320   -0.1560   -4.3420 hn        1 SNS      0.471050
     45 H18        -4.7270   -3.3420   -3.0830 hc        1 SNS      0.113200
     46 H18A       -4.4070   -4.1530   -4.6810 hc        1 SNS      0.113200
     47 H19        -6.7850   -3.5310   -4.4560 h1        1 SNS      0.071700
     48 H19A       -5.9890   -2.6930   -5.8610 h1        1 SNS      0.071700
     49 H21        -7.7970   -2.3210   -2.8250 h1        1 SNS      0.056950
     50 H21A       -6.3600   -1.4500   -2.1200 h1        1 SNS      0.056950
     51 H22        -8.9610   -0.3370   -2.3810 h1        1 SNS      0.084700
     52 H24        -7.9360    1.3700   -4.4900 hc        1 SNS      0.084200
     53 H24A       -9.2130    0.1000   -4.6720 hc        1 SNS      0.084200
     54 H25        -6.4560    0.0510   -5.7290 h1        1 SNS      0.052200
     55 H25A       -7.7610   -1.2010   -5.9150 h1        1 SNS      0.052200
     56 HN26        3.2010    1.8560    3.7150 hn        1 SNS      0.471050
     57 H29         5.2130    0.4810    4.4100 hc        1 SNS      0.113200
     58 H29A        4.9320   -0.1280    2.7170 hc        1 SNS      0.113200
     59 H30         4.5900   -2.4860    3.7080 h1        1 SNS      0.071700
     60 H30A        5.0440   -1.8130    5.3380 h1        1 SNS      0.071700
     61 H32         6.9100   -2.9120    2.0780 h1        1 SNS      0.056950
     62 H32A        6.2750   -3.9380    3.4490 h1        1 SNS      0.056950
     63 H33         8.4530   -4.5400    3.9280 h1        1 SNS      0.084700
     64 H35         9.7080   -1.9640    4.5560 hc        1 SNS      0.084200
     65 H35A        8.9060   -3.1080    5.7080 hc        1 SNS      0.084200
     66 H36         7.1360   -1.6360    5.9410 h1        1 SNS      0.052200
     67 H36A        7.9220   -0.4920    4.7650 h1        1 SNS      0.052200
     68 H152       -4.2610   -1.0000   -2.9270 hn        1 SNS      0.471050
     69 H262        1.6930    1.2190    4.0600 hn        1 SNS      0.471050
@<TRIPOS>BOND
     1    1    2 ar  
     2    1   14 ar  
     3    2    3 ar  
     4    2    7 ar  
     5    3    4 ar  
     6    3   37 1   
     7    4    5 ar  
     8    4   26 1   
     9    5    6 ar  
    10    5   38 1   
    11    6    7 ar  
    12    6   39 1   
    13    7    8 ar  
    14    8    9 ar  
    15    8   40 1   
    16    9   10 ar  
    17    9   14 ar  
    18   10   11 ar  
    19   10   41 1   
    20   11   12 ar  
    21   11   42 1   
    22   12   13 ar  
    23   12   15 1   
    24   13   14 ar  
    25   13   43 1   
    26   15   16 1   
    27   15   44 1   
    28   15   68 1   
    29   16   17 2   
    30   16   18 1   
    31   18   19 1   
    32   18   45 1   
    33   18   46 1   
    34   19   20 1   
    35   19   47 1   
    36   19   48 1   
    37   20   21 1   
    38   20   25 1   
    39   21   22 1   
    40   21   49 1   
    41   21   50 1   
    42   22   23 1   
    43   22   24 1   
    44   22   51 1   
    45   24   25 1   
    46   24   52 1   
    47   24   53 1   
    48   25   54 1   
    49   25   55 1   
    50   26   27 1   
    51   26   56 1   
    52   26   69 1   
    53   27   28 2   
    54   27   29 1   
    55   29   30 1   
    56   29   57 1   
    57   29   58 1   
    58   30   31 1   
    59   30   59 1   
    60   30   60 1   
    61   31   32 1   
    62   31   36 1   
    63   32   33 1   
    64   32   61 1   
    65   32   62 1   
    66   33   34 1   
    67   33   35 1   
    68   33   63 1   
    69   35   36 1   
    70   35   64 1   
    71   35   65 1   
    72   36   66 1   
    73   36   67 1   
@<TRIPOS>SUBSTRUCTURE
     1 SNS         1 TEMP              0 ****  ****    0 ROOT
