@<TRIPOS>MOLECULE
SNS
   67    71     1     0     0
SMALL
bcc


@<TRIPOS>ATOM
      1 N1          0.0290   -0.0520   -0.0060 nb        1 SNS     -0.681000
      2 C2         -1.1440    0.5520    0.3090 ca        1 SNS      0.456600
      3 C3         -2.3830   -0.0840   -0.0510 ca        1 SNS     -0.261300
      4 C4         -3.6050    0.4950    0.2520 ca        1 SNS      0.095600
      5 C5         -3.6380    1.7620    0.9420 ca        1 SNS     -0.145500
      6 C6         -2.4790    2.3840    1.2920 ca        1 SNS     -0.089000
      7 C7         -1.2030    1.8160    0.9970 ca        1 SNS     -0.180300
      8 C8         -0.0020    2.4390    1.3480 ca        1 SNS     -0.044000
      9 C9          1.2150    1.8290    1.0290 ca        1 SNS     -0.180300
     10 C10         2.4760    2.4090    1.3570 ca        1 SNS     -0.089000
     11 C11         3.6510    1.8000    1.0380 ca        1 SNS     -0.145500
     12 C12         3.6490    0.5320    0.3500 ca        1 SNS      0.095600
     13 C13         2.4420   -0.0610    0.0160 ca        1 SNS     -0.261300
     14 C14         1.1870    0.5640    0.3410 ca        1 SNS      0.456600
     15 N15         4.8390   -0.1220   -0.0060 n         1 SNS     -0.475100
     16 C16         6.1460    0.2260    0.3190 c         1 SNS      0.669100
     17 O17         6.4360    1.2330    0.9890 o         1 SNS     -0.590100
     18 C18         7.2150   -0.7150   -0.2150 c3        1 SNS     -0.157400
     19 C19         8.5920   -0.2550    0.2670 c3        1 SNS      0.172800
     20 N20         9.6560   -1.1310   -0.1950 n3        1 SNS     -0.725600
     21 C21        10.9020   -0.9840    0.5530 c3        1 SNS      0.132800
     22 C22        12.0650   -0.6500   -0.4300 c3        1 SNS      0.153600
     23 F23        13.1090   -1.5460   -0.2950 f         1 SNS     -0.235300
     24 C24        11.4340   -0.6960   -1.8340 c3        1 SNS     -0.128400
     25 C25         9.9500   -1.0190   -1.6260 c3        1 SNS      0.156800
     26 N26        -4.7790   -0.1810   -0.1150 n         1 SNS     -0.475100
     27 C27        -6.0960    0.2530   -0.0090 c         1 SNS      0.669100
     28 O28        -6.4130    1.3550    0.4730 o         1 SNS     -0.590100
     29 C29        -7.1400   -0.7270   -0.5210 c3        1 SNS     -0.157400
     30 C30        -8.5320   -0.1010   -0.4050 c3        1 SNS      0.172800
     31 N31        -9.5750   -0.9860   -0.9000 n3        1 SNS     -0.725600
     32 C32       -10.8320   -0.3030   -1.1890 c3        1 SNS      0.132800
     33 C33       -11.9880   -0.9740   -0.3870 c3        1 SNS      0.153600
     34 F34       -13.0170   -1.3670   -1.2220 f         1 SNS     -0.235300
     35 C35       -11.3380   -2.1670    0.3380 c3        1 SNS     -0.128400
     36 C36        -9.8510   -2.1350   -0.0350 c3        1 SNS      0.156800
     37 H3         -2.3220   -1.0510   -0.5780 ha        1 SNS      0.148000
     38 H5         -4.6090    2.2260    1.1850 ha        1 SNS      0.177000
     39 H6         -2.5050    3.3510    1.8190 ha        1 SNS      0.138000
     40 H8         -0.0140    3.4060    1.8740 ha        1 SNS      0.139000
     41 H10         2.4780    3.3780    1.8830 ha        1 SNS      0.138000
     42 H11         4.6100    2.2740    1.3060 ha        1 SNS      0.177000
     43 H13         2.4040   -1.0300   -0.5090 ha        1 SNS      0.148000
     44 HN15        4.7190   -0.9680   -0.5200 hn        1 SNS      0.318500
     45 H18         7.0130   -1.7590    0.1440 hc        1 SNS      0.074700
     46 H18A        7.1750   -0.7200   -1.3360 hc        1 SNS      0.074700
     47 H19         8.7400    0.8170   -0.0550 h1        1 SNS      0.053200
     48 H19A        8.5870   -0.2660    1.3950 h1        1 SNS      0.053200
     49 H21        10.8420   -0.1880    1.3420 h1        1 SNS      0.062700
     50 H21A       11.1080   -1.9680    1.0570 h1        1 SNS      0.062700
     51 H22        12.4660    0.3790   -0.2120 h1        1 SNS      0.056700
     52 H24        11.5590    0.2880   -2.3460 hc        1 SNS      0.064200
     53 H24A       11.9270   -1.4800   -2.4590 hc        1 SNS      0.064200
     54 H25         9.7030   -2.0140   -2.0880 h1        1 SNS      0.047700
     55 H25A        9.3110   -0.2400   -2.1270 h1        1 SNS      0.047700
     56 HN26       -4.6370   -1.0690   -0.5470 hn        1 SNS      0.318500
     57 H29        -6.9260   -0.9840   -1.5920 hc        1 SNS      0.074700
     58 H29A       -7.0860   -1.6720    0.0810 hc        1 SNS      0.074700
     59 H30        -8.6940    0.2040    0.6710 h1        1 SNS      0.053200
     60 H30A       -8.5420    0.8420   -1.0230 h1        1 SNS      0.053200
     61 H32       -10.7970    0.7920   -0.9460 h1        1 SNS      0.062700
     62 H32A      -11.0280   -0.4140   -2.2920 h1        1 SNS      0.062700
     63 H33       -12.4100   -0.2430    0.3580 h1        1 SNS      0.056700
     64 H35       -11.4730   -2.0690    1.4420 hc        1 SNS      0.064200
     65 H35A      -11.8080   -3.1270    0.0130 hc        1 SNS      0.064200
     66 H36        -9.5800   -3.0560   -0.6210 h1        1 SNS      0.047700
     67 H36A       -9.2190   -2.1230    0.8960 h1        1 SNS      0.047700
@<TRIPOS>BOND
     1    1    2 ar  
     2    1   14 ar  
     3    2    3 ar  
     4    2    7 ar  
     5    3    4 ar  
     6    3   37 1   
     7    4    5 ar  
     8    4   26 1   
     9    5    6 ar  
    10    5   38 1   
    11    6    7 ar  
    12    6   39 1   
    13    7    8 ar  
    14    8    9 ar  
    15    8   40 1   
    16    9   10 ar  
    17    9   14 ar  
    18   10   11 ar  
    19   10   41 1   
    20   11   12 ar  
    21   11   42 1   
    22   12   13 ar  
    23   12   15 1   
    24   13   14 ar  
    25   13   43 1   
    26   15   16 1   
    27   15   44 1   
    28   16   17 2   
    29   16   18 1   
    30   18   19 1   
    31   18   45 1   
    32   18   46 1   
    33   19   20 1   
    34   19   47 1   
    35   19   48 1   
    36   20   21 1   
    37   20   25 1   
    38   21   22 1   
    39   21   49 1   
    40   21   50 1   
    41   22   23 1   
    42   22   24 1   
    43   22   51 1   
    44   24   25 1   
    45   24   52 1   
    46   24   53 1   
    47   25   54 1   
    48   25   55 1   
    49   26   27 1   
    50   26   56 1   
    51   27   28 2   
    52   27   29 1   
    53   29   30 1   
    54   29   57 1   
    55   29   58 1   
    56   30   31 1   
    57   30   59 1   
    58   30   60 1   
    59   31   32 1   
    60   31   36 1   
    61   32   33 1   
    62   32   61 1   
    63   32   62 1   
    64   33   34 1   
    65   33   35 1   
    66   33   63 1   
    67   35   36 1   
    68   35   64 1   
    69   35   65 1   
    70   36   66 1   
    71   36   67 1   
@<TRIPOS>SUBSTRUCTURE
     1 SNS         1 TEMP              0 ****  ****    0 ROOT
