@<TRIPOS>MOLECULE
SNS
   67    71     1     0     0
SMALL
bcc


@<TRIPOS>ATOM
      1 N1          0.1610   -0.8420   -0.4190 nb        1 SNS     -0.681000
      2 C2          1.5170   -0.8320   -0.4190 ca        1 SNS      0.456600
      3 C3          2.2220   -0.8710    0.8350 ca        1 SNS     -0.261300
      4 C4          3.6070   -0.8640    0.8830 ca        1 SNS      0.095600
      5 C5          4.3600   -0.8170   -0.3470 ca        1 SNS     -0.145500
      6 C6          3.7150   -0.7780   -1.5450 ca        1 SNS     -0.089000
      7 C7          2.2910   -0.7840   -1.6330 ca        1 SNS     -0.180300
      8 C8          1.6110   -0.7450   -2.8540 ca        1 SNS     -0.044000
      9 C9          0.2130   -0.7540   -2.8700 ca        1 SNS     -0.180300
     10 C10        -0.5430   -0.7160   -4.0790 ca        1 SNS     -0.089000
     11 C11        -1.9040   -0.7250   -4.0750 ca        1 SNS     -0.145500
     12 C12        -2.6270   -0.7770   -2.8270 ca        1 SNS      0.095600
     13 C13        -1.9250   -0.8150   -1.6330 ca        1 SNS     -0.261300
     14 C14        -0.4860   -0.8040   -1.6110 ca        1 SNS      0.456600
     15 N15        -4.0300   -0.7760   -2.7810 ns        1 SNS     -0.475100
     16 C16        -4.9290   -0.8570   -3.8390 c         1 SNS      0.669100
     17 O17        -4.5750   -0.9210   -5.0300 o         1 SNS     -0.590100
     18 C18        -6.3960   -0.8520   -3.4400 c3        1 SNS     -0.157400
     19 C19        -7.2690   -1.0120   -4.6870 c3        1 SNS      0.172800
     20 N20        -8.6870   -1.0370   -4.3650 n3        1 SNS     -0.725600
     21 C21        -9.5190   -1.5860   -5.4320 c3        1 SNS      0.132800
     22 C22       -10.6140   -0.5500   -5.8260 c3        1 SNS      0.153600
     23 F23       -11.8800   -1.1000   -5.7440 f         1 SNS     -0.235300
     24 C24       -10.4270    0.6290   -4.8520 c3        1 SNS     -0.128400
     25 C25        -9.2350    0.2600   -3.9610 c3        1 SNS      0.156800
     26 N26         4.2350   -0.9150    2.1370 ns        1 SNS     -0.475100
     27 C27         5.5920   -0.8330    2.4280 c         1 SNS      0.669100
     28 O28         6.4700   -0.7150    1.5550 o         1 SNS     -0.590100
     29 C29         5.9400   -0.9080    3.9070 c3        1 SNS     -0.157400
     30 C30         7.4500   -0.7470    4.0890 c3        1 SNS      0.172800
     31 N31         7.8420   -0.7880    5.4890 n3        1 SNS     -0.725600
     32 C32         9.1720   -0.2420    5.7400 c3        1 SNS      0.132800
     33 C33        10.0470   -1.3090    6.4650 c3        1 SNS      0.153600
     34 F34        10.5740   -0.8120    7.6420 f         1 SNS     -0.235300
     35 C35         9.1090   -2.5070    6.7050 c3        1 SNS     -0.128400
     36 C36         7.7550   -2.1170    6.0990 c3        1 SNS      0.156800
     37 H3          1.6160   -0.9060    1.7550 ha        1 SNS      0.148000
     38 H5          5.4620   -0.8100   -0.3120 ha        1 SNS      0.177000
     39 H6          4.2900   -0.7400   -2.4840 ha        1 SNS      0.138000
     40 H8          2.1740   -0.7070   -3.8000 ha        1 SNS      0.139000
     41 H10         0.0090   -0.6770   -5.0320 ha        1 SNS      0.138000
     42 H11        -2.4600   -0.6950   -5.0270 ha        1 SNS      0.177000
     43 H13        -2.4460   -0.8550   -0.6620 ha        1 SNS      0.148000
     44 HN15       -4.4230   -0.7630   -1.8640 hn        1 SNS      0.318500
     45 H18        -6.5970   -1.6920   -2.7230 hc        1 SNS      0.074700
     46 H18A       -6.6330    0.1130   -2.9190 hc        1 SNS      0.074700
     47 H19        -6.9980   -1.9910   -5.1770 h1        1 SNS      0.053200
     48 H19A       -7.0010   -0.1900   -5.4140 h1        1 SNS      0.053200
     49 H21       -10.0100   -2.5140   -5.0290 h1        1 SNS      0.062700
     50 H21A       -8.9260   -1.8670   -6.3430 h1        1 SNS      0.062700
     51 H22       -10.4560   -0.2120   -6.8880 h1        1 SNS      0.056700
     52 H24       -11.3480    0.7810   -4.2390 hc        1 SNS      0.064200
     53 H24A      -10.2240    1.5690   -5.4180 hc        1 SNS      0.064200
     54 H25        -9.5710    0.1520   -2.8930 h1        1 SNS      0.047700
     55 H25A       -8.4600    1.0750   -3.9960 h1        1 SNS      0.047700
     56 HN26        3.6160   -0.9800    2.9170 hn        1 SNS      0.318500
     57 H29         5.3990   -0.0980    4.4640 hc        1 SNS      0.074700
     58 H29A        5.6010   -1.8960    4.3160 hc        1 SNS      0.074700
     59 H30         7.7460    0.2560    3.6670 h1        1 SNS      0.053200
     60 H30A        7.9680   -1.5360    3.4690 h1        1 SNS      0.053200
     61 H32         9.0460    0.6540    6.4080 h1        1 SNS      0.062700
     62 H32A        9.6900    0.0880    4.8000 h1        1 SNS      0.062700
     63 H33        10.9080   -1.6100    5.8040 h1        1 SNS      0.056700
     64 H35         9.0100   -2.7130    7.7990 hc        1 SNS      0.064200
     65 H35A        9.5160   -3.4220    6.2130 hc        1 SNS      0.064200
     66 H36         6.9750   -2.0540    6.9070 h1        1 SNS      0.047700
     67 H36A        7.4230   -2.8990    5.3620 h1        1 SNS      0.047700
@<TRIPOS>BOND
     1    1    2 ar  
     2    1   14 ar  
     3    2    3 ar  
     4    2    7 ar  
     5    3    4 ar  
     6    3   37 1   
     7    4    5 ar  
     8    4   26 1   
     9    5    6 ar  
    10    5   38 1   
    11    6    7 ar  
    12    6   39 1   
    13    7    8 ar  
    14    8    9 ar  
    15    8   40 1   
    16    9   10 ar  
    17    9   14 ar  
    18   10   11 ar  
    19   10   41 1   
    20   11   12 ar  
    21   11   42 1   
    22   12   13 ar  
    23   12   15 1   
    24   13   14 ar  
    25   13   43 1   
    26   15   16 1   
    27   15   44 1   
    28   16   17 2   
    29   16   18 1   
    30   18   19 1   
    31   18   45 1   
    32   18   46 1   
    33   19   20 1   
    34   19   47 1   
    35   19   48 1   
    36   20   21 1   
    37   20   25 1   
    38   21   22 1   
    39   21   49 1   
    40   21   50 1   
    41   22   23 1   
    42   22   24 1   
    43   22   51 1   
    44   24   25 1   
    45   24   52 1   
    46   24   53 1   
    47   25   54 1   
    48   25   55 1   
    49   26   27 1   
    50   26   56 1   
    51   27   28 2   
    52   27   29 1   
    53   29   30 1   
    54   29   57 1   
    55   29   58 1   
    56   30   31 1   
    57   30   59 1   
    58   30   60 1   
    59   31   32 1   
    60   31   36 1   
    61   32   33 1   
    62   32   61 1   
    63   32   62 1   
    64   33   34 1   
    65   33   35 1   
    66   33   63 1   
    67   35   36 1   
    68   35   64 1   
    69   35   65 1   
    70   36   66 1   
    71   36   67 1   
@<TRIPOS>SUBSTRUCTURE
     1 SNS         1 TEMP              0 ****  ****    0 ROOT
