@<TRIPOS>MOLECULE
SNT
   55    58     1     0     0
SMALL
bcc


@<TRIPOS>ATOM
      1 C4          0.0610   -0.3110    0.0910 ca        1 SNT      0.022800
      2 C3          1.4540   -0.5170    0.0110 ca        1 SNT     -0.128000
      3 C2          2.1990   -0.6700    1.1770 ca        1 SNT     -0.121500
      4 C1          1.5790   -0.6360    2.4250 ca        1 SNT     -0.131000
      5 N1         -0.7100   -0.1460   -1.0960 na        1 SNT      0.156300
      6 N2         -2.4450    0.9440   -5.2600 n2        1 SNT     -0.437400
      7 N3         -2.5970    1.6120   -6.4140 nh        1 SNT     -0.427700
      8 N4         -2.6430    2.4830   -9.2060 n3        1 SNT     -0.729600
      9 N5         -1.9170   -0.7240   -1.2610 nc        1 SNT     -0.512800
     10 C5         -0.3450    0.6350   -2.2100 cc        1 SNT     -0.069600
     11 C6         -1.4060    0.5140   -3.1340 cd        1 SNT     -0.295200
     12 C7         -1.4550    1.1460   -4.4300 cf        1 SNT      0.408800
     13 C8         -3.2860    0.8270   -7.4580 c3        1 SNT      0.171800
     14 C9         -3.7370    1.7100   -8.6350 c3        1 SNT      0.164300
     15 C10        -3.0880    3.3010  -10.3280 c3        1 SNT      0.214100
     16 C11        -1.9720    3.9570  -11.0880 ca        1 SNT     -0.089300
     17 C12        -2.0350    5.3250  -11.3710 ca        1 SNT     -0.118000
     18 C13        -1.0300    5.9320  -12.1230 ca        1 SNT     -0.133500
     19 C14         0.0450    5.1780  -12.5930 ca        1 SNT     -0.128000
     20 C15         0.2000   -0.4490    2.5070 ca        1 SNT     -0.121500
     21 C16        -0.5650   -0.2860    1.3540 ca        1 SNT     -0.128000
     22 C17        -2.3770   -0.3560   -2.4880 cd        1 SNT      0.357600
     23 C18        -3.6680   -0.7850   -3.0570 c3        1 SNT     -0.121400
     24 C19        -1.9420    3.2530   -8.1890 c3        1 SNT      0.164300
     25 C20        -1.4940    2.4030   -6.9870 c3        1 SNT      0.171800
     26 C21         0.1130    3.8140  -12.3100 ca        1 SNT     -0.133500
     27 C22        -0.8920    3.2030  -11.5620 ca        1 SNT     -0.118000
     28 C23         0.8920    1.4210   -2.3370 c3        1 SNT     -0.038800
     29 H1          1.9570   -0.5670   -0.9670 ha        1 SNT      0.150500
     30 H2          3.2860   -0.8270    1.1070 ha        1 SNT      0.137000
     31 H3          2.1740   -0.7610    3.3410 ha        1 SNT      0.136000
     32 H5         -0.5870    1.8110   -4.6330 h4        1 SNT     -0.018200
     33 H6         -2.6220    0.0040   -7.8500 h1        1 SNT      0.049450
     34 H7         -4.2070    0.3560   -7.0130 h1        1 SNT      0.049450
     35 H8         -4.5850    2.3720   -8.2920 h1        1 SNT      0.042950
     36 H9         -4.1340    1.0240   -9.4350 h1        1 SNT      0.042950
     37 H10        -3.8220    4.0950   -9.9920 h1        1 SNT      0.040700
     38 H11        -3.6340    2.6180  -11.0420 h1        1 SNT      0.040700
     39 H12        -2.8800    5.9260  -11.0020 ha        1 SNT      0.138000
     40 H13        -1.0860    7.0080  -12.3450 ha        1 SNT      0.131500
     41 H14         0.8380    5.6580  -13.1850 ha        1 SNT      0.131000
     42 H15        -0.2950   -0.4290    3.4900 ha        1 SNT      0.137000
     43 H16        -1.6550   -0.1460    1.4370 ha        1 SNT      0.150500
     44 H17        -4.2450   -1.4300   -2.3480 hc        1 SNT      0.055367
     45 H18        -4.2840    0.1160   -3.3060 hc        1 SNT      0.055367
     46 H19        -3.4870   -1.3610   -3.9990 hc        1 SNT      0.055367
     47 H20        -2.5710    4.1100   -7.8080 h1        1 SNT      0.042950
     48 H21        -1.0180    3.6850   -8.6670 h1        1 SNT      0.042950
     49 H22        -0.6360    1.7410   -7.2980 h1        1 SNT      0.049450
     50 H23        -1.1200    3.1220   -6.2050 h1        1 SNT      0.049450
     51 H24         0.9600    3.2170  -12.6790 ha        1 SNT      0.131500
     52 H25        -0.8390    2.1260  -11.3390 ha        1 SNT      0.138000
     53 H26         0.6850    2.3510   -2.9240 hc        1 SNT      0.056367
     54 H27         1.3030    1.7180   -1.3390 hc        1 SNT      0.056367
     55 H28         1.6720    0.8270   -2.8790 hc        1 SNT      0.056367
@<TRIPOS>BOND
     1    1    2 ar  
     2    1    5 1   
     3    1   21 ar  
     4    2    3 ar  
     5    2   29 1   
     6    3    4 ar  
     7    3   30 1   
     8    4   20 ar  
     9    4   31 1   
    10    5    9 1   
    11    5   10 1   
    12    6    7 1   
    13    6   12 2   
    14    7   13 1   
    15    7   25 1   
    16    8   14 1   
    17    8   15 1   
    18    8   24 1   
    19    9   22 2   
    20   10   11 2   
    21   10   28 1   
    22   11   12 1   
    23   11   22 1   
    24   12   32 1   
    25   13   14 1   
    26   13   33 1   
    27   13   34 1   
    28   14   35 1   
    29   14   36 1   
    30   15   16 1   
    31   15   37 1   
    32   15   38 1   
    33   16   17 ar  
    34   16   27 ar  
    35   17   18 ar  
    36   17   39 1   
    37   18   19 ar  
    38   18   40 1   
    39   19   26 ar  
    40   19   41 1   
    41   20   21 ar  
    42   20   42 1   
    43   21   43 1   
    44   22   23 1   
    45   23   44 1   
    46   23   45 1   
    47   23   46 1   
    48   24   25 1   
    49   24   47 1   
    50   24   48 1   
    51   25   49 1   
    52   25   50 1   
    53   26   27 ar  
    54   26   51 1   
    55   27   52 1   
    56   28   53 1   
    57   28   54 1   
    58   28   55 1   
@<TRIPOS>SUBSTRUCTURE
     1 SNT         1 TEMP              0 ****  ****    0 ROOT
