@<TRIPOS>MOLECULE
SNT
   55    58     1     0     0
SMALL
bcc


@<TRIPOS>ATOM
      1 C4          0.0740   -0.3520    0.0730 ca        1 SNT      0.022800
      2 C3          1.4590   -0.6010   -0.0260 ca        1 SNT     -0.128000
      3 C2          2.2140   -0.7780    1.1300 ca        1 SNT     -0.121500
      4 C1          1.6120   -0.7250    2.3860 ca        1 SNT     -0.131000
      5 N1         -0.7070   -0.1630   -1.1030 na        1 SNT      0.156300
      6 N2         -2.4620    0.9800   -5.2440 n2        1 SNT     -0.437400
      7 N3         -2.6090    1.6520   -6.3970 nh        1 SNT     -0.427700
      8 N4         -2.6640    2.5250   -9.1880 n3        1 SNT     -0.729600
      9 N5         -1.9340   -0.7030   -1.2520 nc        1 SNT     -0.512800
     10 C5         -0.3340    0.6080   -2.2220 cc        1 SNT     -0.069600
     11 C6         -1.4100    0.5190   -3.1320 cd        1 SNT     -0.295200
     12 C7         -1.4570    1.1530   -4.4270 cf        1 SNT      0.408800
     13 C8         -3.3330    0.8870   -7.4320 c3        1 SNT      0.171800
     14 C9         -3.7730    1.7830   -8.6040 c3        1 SNT      0.164300
     15 C10        -3.0990    3.3560  -10.3050 c3        1 SNT      0.214100
     16 C11        -1.9750    3.9810  -11.0770 ca        1 SNT     -0.089300
     17 C12        -2.0030    5.3510  -11.3590 ca        1 SNT     -0.118000
     18 C13        -0.9910    5.9300  -12.1230 ca        1 SNT     -0.133500
     19 C14         0.0570    5.1470  -12.6060 ca        1 SNT     -0.128000
     20 C15         0.2410   -0.4960    2.4870 ca        1 SNT     -0.121500
     21 C16        -0.5340   -0.3080    1.3450 ca        1 SNT     -0.128000
     22 C17        -2.3990   -0.3210   -2.4730 cd        1 SNT      0.357600
     23 C18        -3.7100   -0.7090   -3.0240 c3        1 SNT     -0.121400
     24 C19        -1.9290    3.2740   -8.1800 c3        1 SNT      0.164300
     25 C20        -1.4910    2.4110   -6.9830 c3        1 SNT      0.171800
     26 C21         0.0900    3.7810  -12.3250 ca        1 SNT     -0.133500
     27 C22        -0.9230    3.1970  -11.5650 ca        1 SNT     -0.118000
     28 C23         0.9250    1.3550   -2.3660 c3        1 SNT     -0.038800
     29 H1          1.9460   -0.6660   -1.0110 ha        1 SNT      0.150500
     30 H2          3.2950   -0.9690    1.0460 ha        1 SNT      0.137000
     31 H3          2.2160   -0.8690    3.2940 ha        1 SNT      0.136000
     32 H5         -0.5720    1.7930   -4.6410 h4        1 SNT     -0.018200
     33 H6         -4.2620    0.4420   -6.9770 h1        1 SNT      0.049450
     34 H7         -2.6970    0.0460   -7.8330 h1        1 SNT      0.049450
     35 H8         -4.1990    1.1090   -9.3990 h1        1 SNT      0.042950
     36 H9         -4.5980    2.4690   -8.2510 h1        1 SNT      0.042950
     37 H10        -3.6740    2.6890  -11.0120 h1        1 SNT      0.040700
     38 H11        -3.8070    4.1690   -9.9600 h1        1 SNT      0.040700
     39 H12        -2.8260    5.9740  -10.9800 ha        1 SNT      0.138000
     40 H13        -1.0200    7.0070  -12.3430 ha        1 SNT      0.131500
     41 H14         0.8560    5.6050  -13.2070 ha        1 SNT      0.131000
     42 H15        -0.2400   -0.4610    3.4760 ha        1 SNT      0.137000
     43 H16        -1.6170   -0.1350    1.4420 ha        1 SNT      0.150500
     44 H17        -4.3000    0.2100   -3.2660 hc        1 SNT      0.055367
     45 H18        -4.2970   -1.3350   -2.3080 hc        1 SNT      0.055367
     46 H19        -3.5590   -1.2900   -3.9690 hc        1 SNT      0.055367
     47 H20        -2.5280    4.1490   -7.7920 h1        1 SNT      0.042950
     48 H21        -0.9990    3.6800   -8.6690 h1        1 SNT      0.042950
     49 H22        -0.6560    1.7260   -7.3050 h1        1 SNT      0.049450
     50 H23        -1.0870    3.1190   -6.2060 h1        1 SNT      0.049450
     51 H24         0.9150    3.1610  -12.7050 ha        1 SNT      0.131500
     52 H25        -0.8970    2.1200  -11.3430 ha        1 SNT      0.138000
     53 H26         1.6790    0.7370   -2.9180 hc        1 SNT      0.056367
     54 H27         0.7390    2.2910   -2.9500 hc        1 SNT      0.056367
     55 H28         1.3590    1.6390   -1.3730 hc        1 SNT      0.056367
@<TRIPOS>BOND
     1    1    2 ar  
     2    1    5 1   
     3    1   21 ar  
     4    2    3 ar  
     5    2   29 1   
     6    3    4 ar  
     7    3   30 1   
     8    4   20 ar  
     9    4   31 1   
    10    5    9 1   
    11    5   10 1   
    12    6    7 1   
    13    6   12 2   
    14    7   13 1   
    15    7   25 1   
    16    8   14 1   
    17    8   15 1   
    18    8   24 1   
    19    9   22 2   
    20   10   11 2   
    21   10   28 1   
    22   11   12 1   
    23   11   22 1   
    24   12   32 1   
    25   13   14 1   
    26   13   33 1   
    27   13   34 1   
    28   14   35 1   
    29   14   36 1   
    30   15   16 1   
    31   15   37 1   
    32   15   38 1   
    33   16   17 ar  
    34   16   27 ar  
    35   17   18 ar  
    36   17   39 1   
    37   18   19 ar  
    38   18   40 1   
    39   19   26 ar  
    40   19   41 1   
    41   20   21 ar  
    42   20   42 1   
    43   21   43 1   
    44   22   23 1   
    45   23   44 1   
    46   23   45 1   
    47   23   46 1   
    48   24   25 1   
    49   24   47 1   
    50   24   48 1   
    51   25   49 1   
    52   25   50 1   
    53   26   27 ar  
    54   26   51 1   
    55   27   52 1   
    56   28   53 1   
    57   28   54 1   
    58   28   55 1   
@<TRIPOS>SUBSTRUCTURE
     1 SNT         1 TEMP              0 ****  ****    0 ROOT
