@<TRIPOS>MOLECULE
SNT
   55    58     1     0     0
SMALL
bcc


@<TRIPOS>ATOM
      1 C4          0.0590   -0.3210    0.0880 ca        1 SNT      0.022800
      2 C3          1.4500   -0.5300    0.0080 ca        1 SNT     -0.128000
      3 C2          2.1950   -0.6860    1.1740 ca        1 SNT     -0.121500
      4 C1          1.5750   -0.6510    2.4220 ca        1 SNT     -0.131000
      5 N1         -0.7130   -0.1530   -1.0980 na        1 SNT      0.156300
      6 N2         -2.4470    0.9490   -5.2590 n2        1 SNT     -0.437400
      7 N3         -2.5970    1.6180   -6.4130 nh        1 SNT     -0.427700
      8 N4         -2.6430    2.4930   -9.2030 n3        1 SNT     -0.729600
      9 N5         -1.9210   -0.7280   -1.2630 nc        1 SNT     -0.512800
     10 C5         -0.3460    0.6290   -2.2110 cc        1 SNT     -0.069600
     11 C6         -1.4070    0.5110   -3.1360 cd        1 SNT     -0.295200
     12 C7         -1.4560    1.1450   -4.4300 cf        1 SNT      0.408800
     13 C8         -3.2920    0.8380   -7.4560 c3        1 SNT      0.171800
     14 C9         -3.7410    1.7250   -8.6310 c3        1 SNT      0.164300
     15 C10        -3.0860    3.3150  -10.3240 c3        1 SNT      0.214100
     16 C11        -1.9680    3.9640  -11.0850 ca        1 SNT     -0.089300
     17 C12        -2.0230    5.3340  -11.3660 ca        1 SNT     -0.118000
     18 C13        -1.0160    5.9360  -12.1190 ca        1 SNT     -0.133500
     19 C14         0.0530    5.1760  -12.5930 ca        1 SNT     -0.128000
     20 C15         0.1970   -0.4610    2.5040 ca        1 SNT     -0.121500
     21 C16        -0.5680   -0.2950    1.3520 ca        1 SNT     -0.128000
     22 C17        -2.3810   -0.3570   -2.4900 cd        1 SNT      0.357600
     23 C18        -3.6730   -0.7820   -3.0590 c3        1 SNT     -0.121400
     24 C19        -1.9370    3.2580   -8.1870 c3        1 SNT      0.164300
     25 C20        -1.4920    2.4040   -6.9860 c3        1 SNT      0.171800
     26 C21         0.1120    3.8110  -12.3130 ca        1 SNT     -0.133500
     27 C22        -0.8950    3.2050  -11.5630 ca        1 SNT     -0.118000
     28 C23         0.8930    1.4130   -2.3380 c3        1 SNT     -0.038800
     29 H1          1.9530   -0.5800   -0.9700 ha        1 SNT      0.150500
     30 H2          3.2820   -0.8450    1.1030 ha        1 SNT      0.137000
     31 H3          2.1710   -0.7780    3.3380 ha        1 SNT      0.136000
     32 H5         -0.5850    1.8070   -4.6340 h4        1 SNT     -0.018200
     33 H6         -2.6320    0.0130   -7.8510 h1        1 SNT      0.049450
     34 H7         -4.2150    0.3710   -7.0110 h1        1 SNT      0.049450
     35 H8         -4.5850    2.3910   -8.2870 h1        1 SNT      0.042950
     36 H9         -4.1430    1.0420   -9.4320 h1        1 SNT      0.042950
     37 H10        -3.6380    2.6350  -11.0380 h1        1 SNT      0.040700
     38 H11        -3.8150    4.1120   -9.9860 h1        1 SNT      0.040700
     39 H12        -2.8640    5.9390  -10.9940 ha        1 SNT      0.138000
     40 H13        -1.0660    7.0120  -12.3390 ha        1 SNT      0.131500
     41 H14         0.8470    5.6520  -13.1860 ha        1 SNT      0.131000
     42 H15        -0.2980   -0.4410    3.4870 ha        1 SNT      0.137000
     43 H16        -1.6570   -0.1530    1.4350 ha        1 SNT      0.150500
     44 H17        -4.2500   -1.4270   -2.3520 hc        1 SNT      0.055367
     45 H18        -3.4930   -1.3560   -4.0030 hc        1 SNT      0.055367
     46 H19        -4.2870    0.1200   -3.3060 hc        1 SNT      0.055367
     47 H20        -1.0110    3.6860   -8.6660 h1        1 SNT      0.042950
     48 H21        -2.5610    4.1180   -7.8040 h1        1 SNT      0.042950
     49 H22        -1.1130    3.1210   -6.2040 h1        1 SNT      0.049450
     50 H23        -0.6370    1.7390   -7.3000 h1        1 SNT      0.049450
     51 H24         0.9550    3.2090  -12.6850 ha        1 SNT      0.131500
     52 H25        -0.8480    2.1270  -11.3430 ha        1 SNT      0.138000
     53 H26         1.3040    1.7080   -1.3400 hc        1 SNT      0.056367
     54 H27         1.6710    0.8170   -2.8810 hc        1 SNT      0.056367
     55 H28         0.6880    2.3440   -2.9240 hc        1 SNT      0.056367
@<TRIPOS>BOND
     1    1    2 ar  
     2    1    5 1   
     3    1   21 ar  
     4    2    3 ar  
     5    2   29 1   
     6    3    4 ar  
     7    3   30 1   
     8    4   20 ar  
     9    4   31 1   
    10    5    9 1   
    11    5   10 1   
    12    6    7 1   
    13    6   12 2   
    14    7   13 1   
    15    7   25 1   
    16    8   14 1   
    17    8   15 1   
    18    8   24 1   
    19    9   22 2   
    20   10   11 2   
    21   10   28 1   
    22   11   12 1   
    23   11   22 1   
    24   12   32 1   
    25   13   14 1   
    26   13   33 1   
    27   13   34 1   
    28   14   35 1   
    29   14   36 1   
    30   15   16 1   
    31   15   37 1   
    32   15   38 1   
    33   16   17 ar  
    34   16   27 ar  
    35   17   18 ar  
    36   17   39 1   
    37   18   19 ar  
    38   18   40 1   
    39   19   26 ar  
    40   19   41 1   
    41   20   21 ar  
    42   20   42 1   
    43   21   43 1   
    44   22   23 1   
    45   23   44 1   
    46   23   45 1   
    47   23   46 1   
    48   24   25 1   
    49   24   47 1   
    50   24   48 1   
    51   25   49 1   
    52   25   50 1   
    53   26   27 ar  
    54   26   51 1   
    55   27   52 1   
    56   28   53 1   
    57   28   54 1   
    58   28   55 1   
@<TRIPOS>SUBSTRUCTURE
     1 SNT         1 TEMP              0 ****  ****    0 ROOT
