@<TRIPOS>MOLECULE
SNT
   55    58     1     0     0
SMALL
bcc


@<TRIPOS>ATOM
      1 C4         -5.1680    0.5800   -0.3990 ca        1 SNT      0.022800
      2 C3         -5.6100    1.5960    0.4740 ca        1 SNT     -0.127500
      3 C2         -6.7500    2.3310    0.1600 ca        1 SNT     -0.121500
      4 C1         -7.4690    2.0620   -1.0040 ca        1 SNT     -0.131000
      5 N1         -3.9980   -0.1730   -0.0900 na        1 SNT      0.157300
      6 N2          0.2140   -1.7200    1.0870 n2        1 SNT     -0.457400
      7 N3          1.4300   -1.7410    1.6620 nh        1 SNT     -0.407700
      8 N4          3.8220   -1.0370    0.0710 n3        1 SNT     -0.729600
      9 N5         -3.9270   -1.5070   -0.2760 nc        1 SNT     -0.512800
     10 C5         -2.7910    0.3530    0.4080 cc        1 SNT     -0.068600
     11 C6         -1.9160   -0.7460    0.5500 cd        1 SNT     -0.298200
     12 C7         -0.5620   -0.6720    1.0420 cf        1 SNT      0.421800
     13 C8          2.3310   -2.7630    1.0930 c3        1 SNT      0.160800
     14 C9          3.1170   -2.2950   -0.1460 c3        1 SNT      0.135800
     15 C10         4.4980   -0.5870   -1.1410 c3        1 SNT      0.214100
     16 C11         5.4210    0.5780   -0.9310 ca        1 SNT     -0.089300
     17 C12         5.3500    1.6810   -1.7880 ca        1 SNT     -0.118500
     18 C13         6.2390    2.7440   -1.6370 ca        1 SNT     -0.134000
     19 C14         7.2010    2.7140   -0.6280 ca        1 SNT     -0.129000
     20 C15        -7.0440    1.0470   -1.8600 ca        1 SNT     -0.121500
     21 C16        -5.9020    0.3040   -1.5710 ca        1 SNT     -0.127500
     22 C17        -2.6820   -1.9020    0.1050 cd        1 SNT      0.358600
     23 C18        -2.2020   -3.2960    0.0710 c3        1 SNT     -0.121400
     24 C19         2.9780   -0.0070    0.6590 c3        1 SNT      0.135800
     25 C20         2.2060   -0.5100    1.8930 c3        1 SNT      0.160800
     26 C21         7.2730    1.6170    0.2300 ca        1 SNT     -0.134000
     27 C22         6.3880    0.5500    0.0790 ca        1 SNT     -0.118500
     28 C23        -2.5260    1.7720    0.6920 c3        1 SNT     -0.038800
     29 H1         -5.0660    1.8070    1.4070 ha        1 SNT      0.150000
     30 H2         -7.0870    3.1240    0.8440 ha        1 SNT      0.137500
     31 H3         -8.3700    2.6450   -1.2430 ha        1 SNT      0.136000
     32 H5         -0.2690    0.3490    1.3750 h4        1 SNT     -0.020200
     33 H6          3.0450   -3.0260    1.9210 h1        1 SNT      0.067700
     34 H7          1.7540   -3.6870    0.8130 h1        1 SNT      0.067700
     35 H8          2.4090   -2.2330   -1.0240 h1        1 SNT      0.041950
     36 H9          3.8900   -3.0790   -0.3820 h1        1 SNT      0.041950
     37 H10         5.1180   -1.4530   -1.5170 h1        1 SNT      0.040700
     38 H11         3.7540   -0.3270   -1.9530 h1        1 SNT      0.040700
     39 H12         4.5930    1.7110   -2.5860 ha        1 SNT      0.138000
     40 H13         6.1800    3.6080   -2.3160 ha        1 SNT      0.131500
     41 H14         7.9010    3.5540   -0.5090 ha        1 SNT      0.131000
     42 H15        -7.6130    0.8260   -2.7760 ha        1 SNT      0.137500
     43 H16        -5.5860   -0.4990   -2.2540 ha        1 SNT      0.150000
     44 H17        -1.3230   -3.3710   -0.6190 hc        1 SNT      0.056033
     45 H18        -1.8730   -3.6020    1.0960 hc        1 SNT      0.056033
     46 H19        -2.9940   -4.0030   -0.2790 hc        1 SNT      0.056033
     47 H20         3.6520    0.8350    0.9800 h1        1 SNT      0.041950
     48 H21         2.2380    0.4080   -0.0870 h1        1 SNT      0.041950
     49 H22         1.5460    0.3190    2.2640 h1        1 SNT      0.067700
     50 H23         2.9340   -0.7580    2.7160 h1        1 SNT      0.067700
     51 H24         8.0310    1.5910    1.0270 ha        1 SNT      0.131500
     52 H25         6.4460   -0.3160    0.7560 ha        1 SNT      0.138000
     53 H26        -2.7200    1.9910    1.7740 hc        1 SNT      0.056367
     54 H27        -1.4540    2.0030    0.4720 hc        1 SNT      0.056367
     55 H28        -3.1680    2.4490    0.0730 hc        1 SNT      0.056367
@<TRIPOS>BOND
     1    1    2 ar  
     2    1    5 1   
     3    1   21 ar  
     4    2    3 ar  
     5    2   29 1   
     6    3    4 ar  
     7    3   30 1   
     8    4   20 ar  
     9    4   31 1   
    10    5    9 1   
    11    5   10 1   
    12    6    7 1   
    13    6   12 2   
    14    7   13 1   
    15    7   25 1   
    16    8   14 1   
    17    8   15 1   
    18    8   24 1   
    19    9   22 2   
    20   10   11 2   
    21   10   28 1   
    22   11   12 1   
    23   11   22 1   
    24   12   32 1   
    25   13   14 1   
    26   13   33 1   
    27   13   34 1   
    28   14   35 1   
    29   14   36 1   
    30   15   16 1   
    31   15   37 1   
    32   15   38 1   
    33   16   17 ar  
    34   16   27 ar  
    35   17   18 ar  
    36   17   39 1   
    37   18   19 ar  
    38   18   40 1   
    39   19   26 ar  
    40   19   41 1   
    41   20   21 ar  
    42   20   42 1   
    43   21   43 1   
    44   22   23 1   
    45   23   44 1   
    46   23   45 1   
    47   23   46 1   
    48   24   25 1   
    49   24   47 1   
    50   24   48 1   
    51   25   49 1   
    52   25   50 1   
    53   26   27 ar  
    54   26   51 1   
    55   27   52 1   
    56   28   53 1   
    57   28   54 1   
    58   28   55 1   
@<TRIPOS>SUBSTRUCTURE
     1 SNT         1 TEMP              0 ****  ****    0 ROOT
