@<TRIPOS>MOLECULE
SNU
   22    23     1     0     0
SMALL
bcc


@<TRIPOS>ATOM
      1 CAF        -0.6880    1.1920    0.2210 ca        1 SNU     -0.107000
      2 CAD        -2.0740    1.1940    0.2060 ca        1 SNU     -0.174500
      3 CAJ        -2.8020    0.0090   -0.0460 ca        1 SNU      0.132600
      4 NAA        -4.1950    0.0300   -0.1510 nh        1 SNU     -0.817200
      5 CAE        -2.0740   -1.1820   -0.2740 ca        1 SNU     -0.174500
      6 CAG        -0.6870   -1.1830   -0.2680 ca        1 SNU     -0.107000
      7 CAK         0.0340    0.0030   -0.0170 ca        1 SNU     -0.030200
      8 NAL         1.4410    0.0010   -0.0040 na        1 SNU      0.007800
      9 CAH         2.2550   -1.0790    0.3600 cc        1 SNU     -0.156800
     10 CAB         3.5920   -0.6840    0.2430 cd        1 SNU     -0.194500
     11 CAC         3.5980    0.6790   -0.2080 cd        1 SNU     -0.194500
     12 CAI         2.2650    1.0780   -0.3510 cc        1 SNU     -0.156800
     13 HAF        -0.1540    2.1330    0.4270 ha        1 SNU      0.141500
     14 HAD        -2.6070    2.1400    0.3900 ha        1 SNU      0.136000
     15 HNAA       -4.6340    0.7800    0.3350 hn        1 SNU      0.391800
     16 HNAB       -4.6340   -0.8510    0.0030 hn        1 SNU      0.391800
     17 HAE        -2.6070   -2.1250   -0.4730 ha        1 SNU      0.136000
     18 HAG        -0.1530   -2.1260   -0.4650 ha        1 SNU      0.141500
     19 HAH         1.8280   -2.0280    0.6810 h4        1 SNU      0.165500
     20 HAB         4.4640   -1.2950    0.4550 ha        1 SNU      0.151000
     21 HAC         4.4760    1.2870   -0.4020 ha        1 SNU      0.151000
     22 HAI         1.8470    2.0280   -0.6830 h4        1 SNU      0.165500
@<TRIPOS>BOND
     1    1    2 ar  
     2    1    7 ar  
     3    1   13 1   
     4    2    3 ar  
     5    2   14 1   
     6    3    4 1   
     7    3    5 ar  
     8    4   15 1   
     9    4   16 1   
    10    5    6 ar  
    11    5   17 1   
    12    6    7 ar  
    13    6   18 1   
    14    7    8 1   
    15    8    9 1   
    16    8   12 1   
    17    9   10 2   
    18    9   19 1   
    19   10   11 1   
    20   10   20 1   
    21   11   12 2   
    22   11   21 1   
    23   12   22 1   
@<TRIPOS>SUBSTRUCTURE
     1 SNU         1 TEMP              0 ****  ****    0 ROOT
