@<TRIPOS>MOLECULE
SNU
   23    24     1     0     0
SMALL
bcc


@<TRIPOS>ATOM
      1 CAF         0.0090   -0.0760   -0.0240 ca        1 SNU     -0.165000
      2 CAD         1.3910   -0.0810   -0.0280 ca        1 SNU     -0.054000
      3 CAJ         2.0980   -0.0200    1.1870 ca        1 SNU     -0.147400
      4 NAA         3.5570   -0.0140    1.1820 n4        1 SNU     -0.686000
      5 CAE         1.3990    0.0440    2.4060 ca        1 SNU     -0.054000
      6 CAG         0.0160    0.0510    2.4100 ca        1 SNU     -0.165000
      7 CAK        -0.7250   -0.0080    1.1950 ca        1 SNU      0.133800
      8 NAL        -2.1060   -0.0020    1.1990 na        1 SNU     -0.029200
      9 CAH        -2.9430   -0.0700    2.3430 cc        1 SNU     -0.146300
     10 CAB        -4.2650   -0.0380    1.9280 cd        1 SNU     -0.144000
     11 CAC        -4.2690    0.0550    0.4810 cd        1 SNU     -0.144000
     12 CAI        -2.9490    0.0750    0.0590 cc        1 SNU     -0.146300
     13 HAF        -0.5180   -0.1320   -0.9910 ha        1 SNU      0.174000
     14 HAD         1.9210   -0.1370   -0.9950 ha        1 SNU      0.155000
     15 HNAA        3.9100   -0.4510    2.0410 hn        1 SNU      0.459800
     16 HNAB        3.8970    0.9530    1.1330 hn        1 SNU      0.459800
     17 HAE         1.9340    0.0910    3.3700 ha        1 SNU      0.155000
     18 HAG        -0.5050    0.1080    3.3800 ha        1 SNU      0.174000
     19 HAH        -2.5310   -0.1450    3.3490 h4        1 SNU      0.176500
     20 HAB        -5.1480   -0.0760    2.5630 ha        1 SNU      0.178000
     21 HAC        -5.1550    0.1020   -0.1490 ha        1 SNU      0.178000
     22 HAI        -2.5410    0.1460   -0.9490 h4        1 SNU      0.176500
     23 HAA3        3.9050   -0.5350    0.3700 hn        1 SNU      0.459800
@<TRIPOS>BOND
     1    1    2 ar  
     2    1    7 ar  
     3    1   13 1   
     4    2    3 ar  
     5    2   14 1   
     6    3    4 1   
     7    3    5 ar  
     8    4   15 1   
     9    4   16 1   
    10    4   23 1   
    11    5    6 ar  
    12    5   17 1   
    13    6    7 ar  
    14    6   18 1   
    15    7    8 1   
    16    8    9 1   
    17    8   12 1   
    18    9   10 2   
    19    9   19 1   
    20   10   11 1   
    21   10   20 1   
    22   11   12 2   
    23   11   21 1   
    24   12   22 1   
@<TRIPOS>SUBSTRUCTURE
     1 SNU         1 TEMP              0 ****  ****    0 ROOT
