@<TRIPOS>MOLECULE
SNU
   22    23     1     0     0
SMALL
bcc


@<TRIPOS>ATOM
      1 CAF         0.0330    0.3870    0.0570 ca        1 SNU     -0.107000
      2 CAD         1.4190    0.3820    0.0690 ca        1 SNU     -0.174500
      3 CAJ         2.1350    0.0290    1.2360 ca        1 SNU      0.132600
      4 NAA         3.5290    0.1200    1.2780 nv        1 SNU     -0.817200
      5 CAE         1.3960   -0.3390    2.3840 ca        1 SNU     -0.174500
      6 CAG         0.0100   -0.3420    2.3690 ca        1 SNU     -0.107000
      7 CAK        -0.7000    0.0220    1.2060 ca        1 SNU     -0.030200
      8 NAL        -2.1080    0.0200    1.1910 na        1 SNU      0.007800
      9 CAH        -2.9390    0.2610    2.2920 cc        1 SNU     -0.156800
     10 CAB        -4.2690    0.1700    1.8710 cd        1 SNU     -0.194500
     11 CAC        -4.2540   -0.1390    0.4680 cd        1 SNU     -0.194500
     12 CAI        -2.9150   -0.2240    0.0730 cc        1 SNU     -0.156800
     13 HAF        -0.4930    0.6840   -0.8650 ha        1 SNU      0.141500
     14 HAD         1.9610    0.6730   -0.8440 ha        1 SNU      0.136000
     15 HNAA        3.9580   -0.4440    1.9780 hn        1 SNU      0.391800
     16 HNAB        3.9740    0.0530    0.3900 hn        1 SNU      0.391800
     17 HAE         1.9200   -0.6220    3.3100 ha        1 SNU      0.136000
     18 HAG        -0.5340   -0.6390    3.2800 ha        1 SNU      0.141500
     19 HAH        -2.5260    0.4900    3.2740 h4        1 SNU      0.165500
     20 HAB        -5.1500    0.3070    2.4890 ha        1 SNU      0.151000
     21 HAC        -5.1220   -0.2800   -0.1680 ha        1 SNU      0.151000
     22 HAI        -2.4820   -0.4500   -0.9000 h4        1 SNU      0.165500
@<TRIPOS>BOND
     1    1    2 ar  
     2    1    7 ar  
     3    1   13 1   
     4    2    3 ar  
     5    2   14 1   
     6    3    4 1   
     7    3    5 ar  
     8    4   15 1   
     9    4   16 1   
    10    5    6 ar  
    11    5   17 1   
    12    6    7 ar  
    13    6   18 1   
    14    7    8 1   
    15    8    9 1   
    16    8   12 1   
    17    9   10 2   
    18    9   19 1   
    19   10   11 1   
    20   10   20 1   
    21   11   12 2   
    22   11   21 1   
    23   12   22 1   
@<TRIPOS>SUBSTRUCTURE
     1 SNU         1 TEMP              0 ****  ****    0 ROOT
