@<TRIPOS>MOLECULE
SNX
   52    55     1     0     0
SMALL
bcc


@<TRIPOS>ATOM
      1 O23        -0.0630    0.0500    0.2830 o         1 SNX     -0.502100
      2 C21         1.0930    0.3600   -0.0110 c         1 SNX      0.580700
      3 N22         1.8260    0.9110    1.2160 n4        1 SNX     -0.759400
      4 C18         1.8220    0.2980   -1.2370 ca        1 SNX     -0.334600
      5 C17         3.2020    0.6380   -1.3040 ca        1 SNX     -0.048000
      6 C16         3.9270    0.5740   -2.4570 ca        1 SNX     -0.188000
      7 C19         1.1680   -0.1310   -2.4510 ca        1 SNX      0.338600
      8 N24        -0.1400   -0.4930   -2.4780 nh        1 SNX     -0.713600
      9 C25        -0.8400   -0.8420   -3.6930 c3        1 SNX      0.193800
     10 C26        -2.2990   -1.2440   -3.4440 c3        1 SNX      0.112400
     11 O27        -2.9440   -0.1300   -2.8370 os        1 SNX     -0.439600
     12 C28        -4.3500   -0.3040   -2.7220 c3        1 SNX      0.114700
     13 C20         1.9480   -0.1830   -3.6520 ca        1 SNX     -0.278000
     14 C15         3.3000    0.1430   -3.6790 ca        1 SNX      0.162800
     15 N7          4.0490    0.0400   -4.8480 na        1 SNX     -0.017500
     16 C1          3.8170   -0.8930   -5.8990 ca        1 SNX     -0.051200
     17 C6          3.0130   -2.0360   -5.9520 ca        1 SNX     -0.147000
     18 C5          3.0330   -2.7900   -7.1230 ca        1 SNX     -0.104000
     19 C4          3.8340   -2.4340   -8.2160 ca        1 SNX     -0.132000
     20 C3          4.6590   -1.3140   -8.1680 ca        1 SNX     -0.065000
     21 C8          5.0110    0.9730   -5.3140 cc        1 SNX     -0.005300
     22 C13         5.5440    2.1460   -4.5820 c3        1 SNX     -0.034200
     23 C12         6.0880    3.1620   -5.5740 c3        1 SNX     -0.071400
     24 C11         7.0150    2.5450   -6.6000 c3        1 SNX     -0.182400
     25 C10         6.3800    1.4130   -7.3680 c         1 SNX      0.600300
     26 O14         6.6900    1.1570   -8.5350 o         1 SNX     -0.512100
     27 C9          5.3990    0.6430   -6.6110 cd        1 SNX     -0.178400
     28 C2          4.6620   -0.5390   -7.0120 ca        1 SNX     -0.048800
     29 HN22        2.6150    0.3070    1.4520 hn        1 SNX      0.460133
     30 HN2A        1.1730    0.9390    2.0090 hn        1 SNX      0.460133
     31 H17         3.7410    0.9560   -0.3980 ha        1 SNX      0.112000
     32 H16         5.0010    0.8210   -2.4540 ha        1 SNX      0.168000
     33 HN24       -0.7200   -0.3550   -1.6730 hn        1 SNX      0.475800
     34 H25        -0.3210   -1.7150   -4.1840 h1        1 SNX      0.072200
     35 H25A       -0.8230    0.0380   -4.4010 h1        1 SNX      0.072200
     36 H26        -2.3740   -2.1360   -2.7670 h1        1 SNX      0.054700
     37 H26A       -2.7750   -1.4830   -4.4330 h1        1 SNX      0.054700
     38 H28        -4.7030    0.6380   -2.2330 h1        1 SNX      0.046367
     39 H28A       -4.8130   -0.4220   -3.7320 h1        1 SNX      0.046367
     40 H28B       -4.5830   -1.1920   -2.0850 h1        1 SNX      0.046367
     41 H20         1.4500   -0.4750   -4.5940 ha        1 SNX      0.176000
     42 H6          2.4000   -2.3510   -5.0970 ha        1 SNX      0.132000
     43 H5          2.4060   -3.6930   -7.1880 ha        1 SNX      0.142000
     44 H4          3.8160   -3.0580   -9.1230 ha        1 SNX      0.150000
     45 H3          5.3060   -1.0320   -9.0150 ha        1 SNX      0.173000
     46 H13         6.3720    1.8060   -3.9000 hc        1 SNX      0.060200
     47 H13A        4.7520    2.6270   -3.9490 hc        1 SNX      0.060200
     48 H12         5.2310    3.6600   -6.1000 hc        1 SNX      0.060700
     49 H12A        6.6440    3.9550   -5.0080 hc        1 SNX      0.060700
     50 H11         7.3550    3.3340   -7.3230 hc        1 SNX      0.083700
     51 H11A        7.9320    2.1350   -6.0950 hc        1 SNX      0.083700
     52 H223        2.1690    1.8540    1.0250 hn        1 SNX      0.460133
@<TRIPOS>BOND
     1    1    2 2   
     2    2    3 1   
     3    2    4 1   
     4    3   29 1   
     5    3   30 1   
     6    3   52 1   
     7    4    5 ar  
     8    4    7 ar  
     9    5    6 ar  
    10    5   31 1   
    11    6   14 ar  
    12    6   32 1   
    13    7    8 1   
    14    7   13 ar  
    15    8    9 1   
    16    8   33 1   
    17    9   10 1   
    18    9   34 1   
    19    9   35 1   
    20   10   11 1   
    21   10   36 1   
    22   10   37 1   
    23   11   12 1   
    24   12   38 1   
    25   12   39 1   
    26   12   40 1   
    27   13   14 ar  
    28   13   41 1   
    29   14   15 1   
    30   15   16 1   
    31   15   21 1   
    32   16   17 ar  
    33   16   28 ar  
    34   17   18 ar  
    35   17   42 1   
    36   18   19 ar  
    37   18   43 1   
    38   19   20 ar  
    39   19   44 1   
    40   20   28 ar  
    41   20   45 1   
    42   21   22 1   
    43   21   27 2   
    44   22   23 1   
    45   22   46 1   
    46   22   47 1   
    47   23   24 1   
    48   23   48 1   
    49   23   49 1   
    50   24   25 1   
    51   24   50 1   
    52   24   51 1   
    53   25   26 2   
    54   25   27 1   
    55   27   28 1   
@<TRIPOS>SUBSTRUCTURE
     1 SNX         1 TEMP              0 ****  ****    0 ROOT
