@<TRIPOS>MOLECULE
SNX
   53    56     1     0     0
SMALL
bcc


@<TRIPOS>ATOM
      1 O23         0.0120   -0.2700    0.2890 o         1 SNX     -0.493100
      2 C21         1.1310    0.1930    0.0550 c         1 SNX      0.573700
      3 N22         1.7960    0.7590    1.2870 n4        1 SNX     -0.743400
      4 C18         1.8380    0.2390   -1.2020 ca        1 SNX     -0.292600
      5 C17         3.1490    0.7570   -1.3100 ca        1 SNX     -0.015000
      6 C16         3.8590    0.7450   -2.4850 ca        1 SNX     -0.175000
      7 C19         1.2420   -0.2680   -2.4050 ca        1 SNX      0.114600
      8 N24        -0.1500   -0.7400   -2.3710 n4        1 SNX     -0.650400
      9 C25        -0.8210   -0.9150   -3.7000 c3        1 SNX      0.103800
     10 C26        -2.3260   -1.1760   -3.5310 c3        1 SNX      0.103400
     11 O27        -2.8330   -0.1250   -2.7230 os        1 SNX     -0.473600
     12 C28        -4.2540    0.0000   -2.7840 c3        1 SNX      0.118700
     13 C20         1.9530   -0.3090   -3.5890 ca        1 SNX     -0.182000
     14 C15         3.3070    0.1760   -3.6760 ca        1 SNX      0.176800
     15 N7          4.0130    0.0820   -4.8360 na        1 SNX      0.027500
     16 C1          3.7930   -0.8810   -5.8810 ca        1 SNX     -0.080200
     17 C6          3.0440   -2.0560   -5.9020 ca        1 SNX     -0.143000
     18 C5          3.0740   -2.8290   -7.0680 ca        1 SNX     -0.096000
     19 C4          3.8420   -2.4610   -8.1740 ca        1 SNX     -0.102000
     20 C3          4.6370   -1.3100   -8.1480 ca        1 SNX     -0.042000
     21 C8          4.9980    1.0120   -5.3270 cc        1 SNX     -0.042300
     22 C13         5.5320    2.2020   -4.6240 c3        1 SNX     -0.036200
     23 C12         6.0810    3.1960   -5.6400 c3        1 SNX     -0.074400
     24 C11         6.9920    2.5590   -6.6660 c3        1 SNX     -0.183400
     25 C10         6.3390    1.4270   -7.4090 c         1 SNX      0.589300
     26 O14         6.6070    1.1360   -8.5750 o         1 SNX     -0.473100
     27 C9          5.3610    0.6670   -6.6170 cd        1 SNX     -0.106400
     28 C2          4.6240   -0.5270   -7.0030 ca        1 SNX     -0.050800
     29 HN22        2.0050    1.7550    1.1550 hn        1 SNX      0.481800
     30 HN2A        2.6680    0.2550    1.4850 hn        1 SNX      0.481800
     31 H17         3.6600    1.1810   -0.4280 ha        1 SNX      0.144000
     32 H16         4.8930    1.1390   -2.4930 ha        1 SNX      0.195000
     33 HN24       -0.7210   -0.0590   -1.8310 hn        1 SNX      0.479800
     34 H25        -0.6720    0.0350   -4.2900 hx        1 SNX      0.117200
     35 H25A       -0.3530   -1.7860   -4.2380 hx        1 SNX      0.117200
     36 H26        -2.5230   -2.1630   -3.0310 h1        1 SNX      0.084700
     37 H26A       -2.7940   -1.1720   -4.5530 h1        1 SNX      0.084700
     38 H28        -4.5740    0.2430   -3.8270 h1        1 SNX      0.065033
     39 H28A       -4.4760    0.8500   -2.0900 h1        1 SNX      0.065033
     40 H28B       -4.7380   -0.9420   -2.4310 h1        1 SNX      0.065033
     41 H20         1.4900   -0.6710   -4.5270 ha        1 SNX      0.192000
     42 H6          2.4750   -2.4090   -5.0320 ha        1 SNX      0.121000
     43 H5          2.4840   -3.7590   -7.1050 ha        1 SNX      0.157000
     44 H4          3.8370   -3.0950   -9.0770 ha        1 SNX      0.172000
     45 H3          5.2740   -1.0260   -9.0050 ha        1 SNX      0.193000
     46 H13         6.3590    1.8810   -3.9310 hc        1 SNX      0.062700
     47 H13A        4.7370    2.7090   -4.0130 hc        1 SNX      0.062700
     48 H12         6.6520    3.9890   -5.0870 hc        1 SNX      0.072200
     49 H12A        5.2250    3.7000   -6.1630 hc        1 SNX      0.072200
     50 H11         7.9160    2.1510   -6.1700 hc        1 SNX      0.098700
     51 H11A        7.3290    3.3380   -7.4040 hc        1 SNX      0.098700
     52 H223        1.1590    0.6530    2.0930 hn        1 SNX      0.481800
     53 H242       -0.1790   -1.6320   -1.8540 hn        1 SNX      0.479800
@<TRIPOS>BOND
     1    1    2 2   
     2    2    3 1   
     3    2    4 1   
     4    3   29 1   
     5    3   30 1   
     6    3   52 1   
     7    4    5 ar  
     8    4    7 ar  
     9    5    6 ar  
    10    5   31 1   
    11    6   14 ar  
    12    6   32 1   
    13    7    8 1   
    14    7   13 ar  
    15    8    9 1   
    16    8   33 1   
    17    8   53 1   
    18    9   10 1   
    19    9   34 1   
    20    9   35 1   
    21   10   11 1   
    22   10   36 1   
    23   10   37 1   
    24   11   12 1   
    25   12   38 1   
    26   12   39 1   
    27   12   40 1   
    28   13   14 ar  
    29   13   41 1   
    30   14   15 1   
    31   15   16 1   
    32   15   21 1   
    33   16   17 ar  
    34   16   28 ar  
    35   17   18 ar  
    36   17   42 1   
    37   18   19 ar  
    38   18   43 1   
    39   19   20 ar  
    40   19   44 1   
    41   20   28 ar  
    42   20   45 1   
    43   21   22 1   
    44   21   27 2   
    45   22   23 1   
    46   22   46 1   
    47   22   47 1   
    48   23   24 1   
    49   23   48 1   
    50   23   49 1   
    51   24   25 1   
    52   24   50 1   
    53   24   51 1   
    54   25   26 2   
    55   25   27 1   
    56   27   28 1   
@<TRIPOS>SUBSTRUCTURE
     1 SNX         1 TEMP              0 ****  ****    0 ROOT
