@<TRIPOS>MOLECULE
SNX
   52    55     1     0     0
SMALL
bcc


@<TRIPOS>ATOM
      1 O23        -0.0670    0.0440    0.2800 o         1 SNX     -0.502100
      2 C21         1.0880    0.3550   -0.0120 c         1 SNX      0.580700
      3 N22         1.8200    0.9060    1.2160 nz        1 SNX     -0.759400
      4 C18         1.8190    0.2950   -1.2370 ca        1 SNX     -0.334600
      5 C17         3.1990    0.6340   -1.3030 ca        1 SNX     -0.048000
      6 C16         3.9250    0.5720   -2.4540 ca        1 SNX     -0.188000
      7 C19         1.1660   -0.1330   -2.4530 ca        1 SNX      0.338600
      8 N24        -0.1410   -0.4950   -2.4810 nu        1 SNX     -0.713600
      9 C25        -0.8400   -0.8430   -3.6980 c3        1 SNX      0.193800
     10 C26        -2.3000   -1.2450   -3.4500 c3        1 SNX      0.112400
     11 O27        -2.9450   -0.1320   -2.8420 os        1 SNX     -0.439600
     12 C28        -4.3510   -0.3060   -2.7300 c3        1 SNX      0.114700
     13 C20         1.9470   -0.1830   -3.6530 ca        1 SNX     -0.278000
     14 C15         3.3000    0.1420   -3.6780 ca        1 SNX      0.162800
     15 N7          4.0500    0.0410   -4.8460 na        1 SNX     -0.017500
     16 C1          3.8190   -0.8910   -5.8990 ca        1 SNX     -0.051200
     17 C6          3.0150   -2.0340   -5.9540 ca        1 SNX     -0.147000
     18 C5          3.0370   -2.7860   -7.1260 ca        1 SNX     -0.104000
     19 C4          3.8390   -2.4290   -8.2180 ca        1 SNX     -0.132000
     20 C3          4.6630   -1.3080   -8.1680 ca        1 SNX     -0.065000
     21 C8          5.0120    0.9740   -5.3100 cc        1 SNX     -0.005300
     22 C13         5.5440    2.1460   -4.5760 c3        1 SNX     -0.034200
     23 C12         6.0900    3.1640   -5.5670 c3        1 SNX     -0.071400
     24 C11         7.0180    2.5480   -6.5920 c3        1 SNX     -0.182400
     25 C10         6.3830    1.4180   -7.3620 c         1 SNX      0.600300
     26 O14         6.6950    1.1630   -8.5290 o         1 SNX     -0.512100
     27 C9          5.4020    0.6460   -6.6080 cd        1 SNX     -0.178400
     28 C2          4.6650   -0.5350   -7.0110 ca        1 SNX     -0.048800
     29 HN22        1.1660    0.9340    2.0080 hn        1 SNX      0.460133
     30 HN2A        2.1640    1.8490    1.0260 hn        1 SNX      0.460133
     31 H17         3.7380    0.9510   -0.3950 ha        1 SNX      0.112000
     32 H16         4.9990    0.8190   -2.4500 ha        1 SNX      0.168000
     33 HN24       -0.7220   -0.3580   -1.6770 hn        1 SNX      0.475800
     34 H25        -0.8230    0.0370   -4.4040 h1        1 SNX      0.072200
     35 H25A       -0.3210   -1.7160   -4.1890 h1        1 SNX      0.072200
     36 H26        -2.7740   -1.4820   -4.4400 h1        1 SNX      0.054700
     37 H26A       -2.3760   -2.1380   -2.7750 h1        1 SNX      0.054700
     38 H28        -4.7050    0.6360   -2.2400 h1        1 SNX      0.046367
     39 H28A       -4.8130   -0.4210   -3.7410 h1        1 SNX      0.046367
     40 H28B       -4.5850   -1.1950   -2.0940 h1        1 SNX      0.046367
     41 H20         1.4510   -0.4750   -4.5960 ha        1 SNX      0.176000
     42 H6          2.4010   -2.3500   -5.1000 ha        1 SNX      0.132000
     43 H5          2.4100   -3.6890   -7.1930 ha        1 SNX      0.142000
     44 H4          3.8210   -3.0510   -9.1260 ha        1 SNX      0.150000
     45 H3          5.3110   -1.0260   -9.0140 ha        1 SNX      0.173000
     46 H13         4.7510    2.6270   -3.9430 hc        1 SNX      0.060200
     47 H13A        6.3720    1.8060   -3.8930 hc        1 SNX      0.060200
     48 H12         6.6450    3.9570   -4.9990 hc        1 SNX      0.060700
     49 H12A        5.2330    3.6630   -6.0930 hc        1 SNX      0.060700
     50 H11         7.3580    3.3380   -7.3130 hc        1 SNX      0.083700
     51 H11A        7.9340    2.1380   -6.0860 hc        1 SNX      0.083700
     52 H223        2.6090    0.3020    1.4530 hn        1 SNX      0.460133
@<TRIPOS>BOND
     1    1    2 2   
     2    2    3 1   
     3    2    4 1   
     4    3   29 1   
     5    3   30 1   
     6    3   52 1   
     7    4    5 ar  
     8    4    7 ar  
     9    5    6 ar  
    10    5   31 1   
    11    6   14 ar  
    12    6   32 1   
    13    7    8 1   
    14    7   13 ar  
    15    8    9 1   
    16    8   33 1   
    17    9   10 1   
    18    9   34 1   
    19    9   35 1   
    20   10   11 1   
    21   10   36 1   
    22   10   37 1   
    23   11   12 1   
    24   12   38 1   
    25   12   39 1   
    26   12   40 1   
    27   13   14 ar  
    28   13   41 1   
    29   14   15 1   
    30   15   16 1   
    31   15   21 1   
    32   16   17 ar  
    33   16   28 ar  
    34   17   18 ar  
    35   17   42 1   
    36   18   19 ar  
    37   18   43 1   
    38   19   20 ar  
    39   19   44 1   
    40   20   28 ar  
    41   20   45 1   
    42   21   22 1   
    43   21   27 2   
    44   22   23 1   
    45   22   46 1   
    46   22   47 1   
    47   23   24 1   
    48   23   48 1   
    49   23   49 1   
    50   24   25 1   
    51   24   50 1   
    52   24   51 1   
    53   25   26 2   
    54   25   27 1   
    55   27   28 1   
@<TRIPOS>SUBSTRUCTURE
     1 SNX         1 TEMP              0 ****  ****    0 ROOT
