@<TRIPOS>MOLECULE
SNY
   27    27     1     0     0
SMALL
bcc


@<TRIPOS>ATOM
      1 C1         -0.0360   -0.5890   -0.1550 ca        1 SNY     -0.055800
      2 C2          1.3590   -0.4510   -0.1590 ca        1 SNY     -0.182000
      3 C3          2.0260   -0.0230    0.9910 ca        1 SNY      0.093100
      4 O3          3.3910    0.1540    1.0890 os        1 SNY     -0.322400
      5 C4          1.2990    0.2590    2.1720 ca        1 SNY      0.097100
      6 O4          2.0040    0.6770    3.2720 oh        1 SNY     -0.469100
      7 C5         -0.1020    0.1010    2.1600 ca        1 SNY      0.093100
      8 O5         -0.7220    0.4070    3.3610 os        1 SNY     -0.322400
      9 C6         -0.7670   -0.3190    1.0060 ca        1 SNY     -0.182000
     10 C7         -0.6960   -1.0480   -1.3700 ce        1 SNY     -0.042200
     11 C8         -1.8510   -0.5900   -1.8700 cf        1 SNY     -0.263200
     12 C9         -2.6330    0.5130   -1.2970 c         1 SNY      0.555100
     13 O9         -3.8370    0.6650   -1.5200 o         1 SNY     -0.527100
     14 C3M         4.1420   -0.1110   -0.0910 c3        1 SNY      0.115200
     15 C5M        -2.1120    0.1110    3.4410 c3        1 SNY      0.115200
     16 H2          1.9210   -0.6760   -1.0770 ha        1 SNY      0.145500
     17 HO4         1.3750    0.7910    4.0020 ho        1 SNY      0.435000
     18 H6         -1.8590   -0.4540    1.0080 ha        1 SNY      0.145500
     19 H7         -0.1580   -1.8550   -1.9020 ha        1 SNY      0.134000
     20 H8         -2.2780   -1.0370   -2.7850 ha        1 SNY      0.150000
     21 H9         -2.0680    1.2260   -0.6520 h4        1 SNY      0.005200
     22 H3M         3.8290    0.5680   -0.9210 h1        1 SNY      0.047867
     23 H3MA        5.1950    0.1060    0.2230 h1        1 SNY      0.047867
     24 H3MB        4.0340   -1.1800   -0.3960 h1        1 SNY      0.047867
     25 H5M        -2.6880    0.7520    2.7310 h1        1 SNY      0.047867
     26 H5MA       -2.2990   -0.9710    3.2350 h1        1 SNY      0.047867
     27 H5MB       -2.3690    0.3640    4.5000 h1        1 SNY      0.047867
@<TRIPOS>BOND
     1    1    2 ar  
     2    1    9 ar  
     3    1   10 1   
     4    2    3 ar  
     5    2   16 1   
     6    3    4 1   
     7    3    5 ar  
     8    4   14 1   
     9    5    6 1   
    10    5    7 ar  
    11    6   17 1   
    12    7    8 1   
    13    7    9 ar  
    14    8   15 1   
    15    9   18 1   
    16   10   11 2   
    17   10   19 1   
    18   11   12 1   
    19   11   20 1   
    20   12   13 2   
    21   12   21 1   
    22   14   22 1   
    23   14   23 1   
    24   14   24 1   
    25   15   25 1   
    26   15   26 1   
    27   15   27 1   
@<TRIPOS>SUBSTRUCTURE
     1 SNY         1 TEMP              0 ****  ****    0 ROOT
