@<TRIPOS>MOLECULE
SNY
   27    27     1     0     0
SMALL
bcc


@<TRIPOS>ATOM
      1 C1         -0.0570   -0.5740   -0.1590 ca        1 SNY     -0.055800
      2 C2          1.3410   -0.4670   -0.1780 ca        1 SNY     -0.182000
      3 C3          2.0310   -0.0690    0.9690 ca        1 SNY      0.093100
      4 O3          3.4010    0.0760    1.0530 os        1 SNY     -0.322400
      5 C4          1.3250    0.2130    2.1630 ca        1 SNY      0.097100
      6 O4          2.0520    0.6010    3.2580 oh        1 SNY     -0.469100
      7 C5         -0.0790    0.0870    2.1660 ca        1 SNY      0.093100
      8 O5         -0.6780    0.3910    3.3780 os        1 SNY     -0.322400
      9 C6         -0.7680   -0.3030    1.0150 ca        1 SNY     -0.182000
     10 C7         -0.7420   -1.0030   -1.3710 ce        1 SNY     -0.042200
     11 C8         -1.8930   -0.5130   -1.8510 cf        1 SNY     -0.263200
     12 C9         -2.6420    0.6000   -1.2550 c         1 SNY      0.555100
     13 O9         -3.8450    0.7820   -1.4600 o         1 SNY     -0.527100
     14 C3M         4.1310   -0.1900   -0.1400 c3        1 SNY      0.115200
     15 C5M        -2.0740    0.1280    3.4700 c3        1 SNY      0.115200
     16 H2          1.8860   -0.6930   -1.1050 ha        1 SNY      0.145500
     17 HO4         1.4350    0.7200    3.9980 ho        1 SNY      0.435000
     18 H6         -1.8620   -0.4130    1.0290 ha        1 SNY      0.145500
     19 H7         -0.2280   -1.8150   -1.9200 ha        1 SNY      0.134000
     20 H8         -2.3400   -0.9380   -2.7660 ha        1 SNY      0.150000
     21 H9         -2.0540    1.2920   -0.6080 h4        1 SNY      0.005200
     22 H3M         3.8240    0.5070   -0.9570 h1        1 SNY      0.047867
     23 H3MA        5.1920   -0.0010    0.1630 h1        1 SNY      0.047867
     24 H3MB        3.9950   -1.2520   -0.4570 h1        1 SNY      0.047867
     25 H5M        -2.6420    0.7930    2.7750 h1        1 SNY      0.047867
     26 H5MA       -2.2900   -0.9460    3.2530 h1        1 SNY      0.047867
     27 H5MB       -2.3130    0.3750    4.5350 h1        1 SNY      0.047867
@<TRIPOS>BOND
     1    1    2 ar  
     2    1    9 ar  
     3    1   10 1   
     4    2    3 ar  
     5    2   16 1   
     6    3    4 1   
     7    3    5 ar  
     8    4   14 1   
     9    5    6 1   
    10    5    7 ar  
    11    6   17 1   
    12    7    8 1   
    13    7    9 ar  
    14    8   15 1   
    15    9   18 1   
    16   10   11 2   
    17   10   19 1   
    18   11   12 1   
    19   11   20 1   
    20   12   13 2   
    21   12   21 1   
    22   14   22 1   
    23   14   23 1   
    24   14   24 1   
    25   15   25 1   
    26   15   26 1   
    27   15   27 1   
@<TRIPOS>SUBSTRUCTURE
     1 SNY         1 TEMP              0 ****  ****    0 ROOT
