@<TRIPOS>MOLECULE
SNY
   27    27     1     0     0
SMALL
bcc


@<TRIPOS>ATOM
      1 C1         -0.6470    0.5630   -0.0850 ca        1 SNY     -0.054800
      2 C2          0.4540    1.4330   -0.0260 ca        1 SNY     -0.173000
      3 C3          1.7520    0.9270    0.0460 ca        1 SNY      0.088600
      4 O3          2.8960    1.6960    0.1150 os        1 SNY     -0.323400
      5 C4          1.9700   -0.4720    0.0540 ca        1 SNY      0.103100
      6 O4          3.2660   -0.9160    0.1180 oh        1 SNY     -0.469100
      7 C5          0.8560   -1.3320   -0.0160 ca        1 SNY      0.088600
      8 O5          1.1750   -2.6800   -0.0250 os        1 SNY     -0.323400
      9 C6         -0.4430   -0.8220   -0.0830 ca        1 SNY     -0.173000
     10 C7         -1.9810    1.1340   -0.1570 ce        1 SNY     -0.032200
     11 C8         -3.1200    0.4770    0.1110 cf        1 SNY     -0.271200
     12 C9         -4.4320    1.1280    0.0120 c         1 SNY      0.560100
     13 O9         -5.4890    0.5360    0.2430 o         1 SNY     -0.525100
     14 C3M         2.7000    3.1060    0.1130 c3        1 SNY      0.115200
     15 C5M         0.0790   -3.5830    0.0730 c3        1 SNY      0.115200
     16 H2          0.2820    2.5190   -0.0330 ha        1 SNY      0.144500
     17 HO4         3.2470   -1.8860    0.1450 ho        1 SNY      0.435000
     18 H6         -1.3030   -1.5040   -0.1440 ha        1 SNY      0.144500
     19 H7         -2.0140    2.2010   -0.4510 ha        1 SNY      0.127000
     20 H8         -3.1360   -0.5790    0.4250 ha        1 SNY      0.148000
     21 H9         -4.4240    2.2010   -0.2890 h4        1 SNY     -0.007800
     22 H3M         3.7440    3.5080    0.1770 h1        1 SNY      0.047367
     23 H3MA        2.2080    3.4370   -0.8330 h1        1 SNY      0.047367
     24 H3MB        2.1010    3.4250    1.0000 h1        1 SNY      0.047367
     25 H5M         0.5760   -4.5850    0.1300 h1        1 SNY      0.047367
     26 H5MA       -0.5180   -3.3840    0.9950 h1        1 SNY      0.047367
     27 H5MB       -0.5650   -3.5140   -0.8370 h1        1 SNY      0.047367
@<TRIPOS>BOND
     1    1    2 ar  
     2    1    9 ar  
     3    1   10 1   
     4    2    3 ar  
     5    2   16 1   
     6    3    4 1   
     7    3    5 ar  
     8    4   14 1   
     9    5    6 1   
    10    5    7 ar  
    11    6   17 1   
    12    7    8 1   
    13    7    9 ar  
    14    8   15 1   
    15    9   18 1   
    16   10   11 2   
    17   10   19 1   
    18   11   12 1   
    19   11   20 1   
    20   12   13 2   
    21   12   21 1   
    22   14   22 1   
    23   14   23 1   
    24   14   24 1   
    25   15   25 1   
    26   15   26 1   
    27   15   27 1   
@<TRIPOS>SUBSTRUCTURE
     1 SNY         1 TEMP              0 ****  ****    0 ROOT
