@<TRIPOS>MOLECULE
SO3
    4     3     1     0     0
SMALL
bcc


@<TRIPOS>ATOM
      1 S           0.0000   -0.0000    0.3490 s4        1 SO3      0.168000
      2 O1         -0.1110   -1.4660   -0.2560 o         1 SO3     -0.682400
      3 O2          1.3250    0.6360   -0.2560 o         1 SO3     -0.682400
      4 O3         -1.2140    0.8290   -0.2560 o         1 SO3     -0.802200
@<TRIPOS>BOND
     1    1    2 1   
     2    1    3 1   
     3    1    4 2   
@<TRIPOS>SUBSTRUCTURE
     1 SO3         1 TEMP              0 ****  ****    0 ROOT
