@<TRIPOS>MOLECULE
SOA
   18    18     1     0     0
SMALL
bcc


@<TRIPOS>ATOM
      1 C4         -0.0010    0.0080   -0.4710 ca        1 SOA     -0.143300
      2 C3          0.9820    0.0420    0.5530 ca        1 SOA      0.132600
      3 C2          0.5540    0.0370    1.9010 ca        1 SOA     -0.193000
      4 C1         -0.8000    0.0110    2.2140 ca        1 SOA     -0.093000
      5 C5         -1.3540   -0.0230   -0.1290 ca        1 SOA     -0.069000
      6 C6         -1.7580   -0.0220    1.2030 ca        1 SOA     -0.173000
      7 N11         2.3460    0.1620    0.2500 nh        1 SOA     -0.814200
      8 C12         0.4250    0.0230   -1.9020 c3        1 SOA      0.184700
      9 O1         -0.7180   -0.0630   -2.7420 oh        1 SOA     -0.598800
     10 H2          1.2950    0.0640    2.7130 ha        1 SOA      0.129000
     11 H1         -1.1120    0.0130    3.2690 ha        1 SOA      0.129000
     12 H5         -2.1070   -0.0480   -0.9340 ha        1 SOA      0.153000
     13 H6         -2.8280   -0.0460    1.4540 ha        1 SOA      0.132000
     14 HNB1        2.9470   -0.0850    1.0060 hn        1 SOA      0.384300
     15 HNB2        2.6130   -0.2740   -0.6060 hn        1 SOA      0.384300
     16 H121        0.9890    0.9720   -2.1230 h1        1 SOA      0.027200
     17 H122        1.0970   -0.8570   -2.1180 h1        1 SOA      0.027200
     18 HO1        -0.4030    0.0910   -3.6400 ho        1 SOA      0.402000
@<TRIPOS>BOND
     1    1    2 ar  
     2    1    5 ar  
     3    1    8 1   
     4    2    3 ar  
     5    2    7 1   
     6    3    4 ar  
     7    3   10 1   
     8    4    6 ar  
     9    4   11 1   
    10    5    6 ar  
    11    5   12 1   
    12    6   13 1   
    13    7   14 1   
    14    7   15 1   
    15    8    9 1   
    16    8   16 1   
    17    8   17 1   
    18    9   18 1   
@<TRIPOS>SUBSTRUCTURE
     1 SOA         1 TEMP              0 ****  ****    0 ROOT
