@<TRIPOS>MOLECULE
SOA
   19    19     1     0     0
SMALL
bcc


@<TRIPOS>ATOM
      1 C4         -0.0180   -0.0040   -0.0080 ca        1 SOA     -0.055300
      2 C3          1.3930    0.0010    0.0210 ca        1 SOA     -0.082400
      3 C2          2.0960   -0.0010    1.2390 ca        1 SOA     -0.101000
      4 C1          1.3840   -0.0070    2.4340 ca        1 SOA     -0.099000
      5 C5         -0.7050   -0.0110    1.2100 ca        1 SOA     -0.075000
      6 C6         -0.0120   -0.0120    2.4210 ca        1 SOA     -0.067000
      7 N11         2.1460    0.0080   -1.2340 n4        1 SOA     -0.699000
      8 C12        -0.7590   -0.0020   -1.3090 c3        1 SOA      0.167700
      9 O1         -2.1470   -0.0090   -1.0360 oh        1 SOA     -0.576800
     10 H2          3.1990    0.0030    1.2670 ha        1 SOA      0.156000
     11 H1          1.9300   -0.0090    3.3930 ha        1 SOA      0.175000
     12 H5         -1.8110   -0.0150    1.2000 ha        1 SOA      0.196000
     13 H6         -0.5730   -0.0180    3.3720 ha        1 SOA      0.176000
     14 HNB1        1.9000    0.8450   -1.7760 hn        1 SOA      0.461800
     15 HNB2        1.9070   -0.8270   -1.7820 hn        1 SOA      0.461800
     16 H121       -0.4850   -0.9170   -1.9080 h1        1 SOA      0.032700
     17 H122       -0.4920    0.9190   -1.9010 h1        1 SOA      0.032700
     18 HO1        -2.6020   -0.0070   -1.8890 ho        1 SOA      0.434000
     19 H113        3.1540    0.0120   -1.0420 hn        1 SOA      0.461800
@<TRIPOS>BOND
     1    1    2 ar  
     2    1    5 ar  
     3    1    8 1   
     4    2    3 ar  
     5    2    7 1   
     6    3    4 ar  
     7    3   10 1   
     8    4    6 ar  
     9    4   11 1   
    10    5    6 ar  
    11    5   12 1   
    12    6   13 1   
    13    7   14 1   
    14    7   15 1   
    15    7   19 1   
    16    8    9 1   
    17    8   16 1   
    18    8   17 1   
    19    9   18 1   
@<TRIPOS>SUBSTRUCTURE
     1 SOA         1 TEMP              0 ****  ****    0 ROOT
