@<TRIPOS>MOLECULE
SOA
   18    18     1     0     0
SMALL
bcc


@<TRIPOS>ATOM
      1 C4         -0.0210    0.0080   -0.0170 ca        1 SOA     -0.143300
      2 C3          1.3970   -0.0620   -0.0340 ca        1 SOA      0.132600
      3 C2          2.0850   -0.1160    1.2010 ca        1 SOA     -0.193000
      4 C1          1.3870   -0.1120    2.4020 ca        1 SOA     -0.093000
      5 C5         -0.6980    0.0150    1.2040 ca        1 SOA     -0.069000
      6 C6         -0.0040   -0.0440    2.4100 ca        1 SOA     -0.173000
      7 N11         2.1070   -0.1600   -1.2390 nv        1 SOA     -0.814200
      8 C12        -0.7720    0.0560   -1.3070 c3        1 SOA      0.184700
      9 O1         -2.1650    0.1680   -1.0450 oh        1 SOA     -0.598800
     10 H2          3.1840   -0.1720    1.2150 ha        1 SOA      0.129000
     11 H1          1.9420   -0.1610    3.3510 ha        1 SOA      0.129000
     12 H5         -1.8000    0.0690    1.2040 ha        1 SOA      0.153000
     13 H6         -0.5540   -0.0370    3.3610 ha        1 SOA      0.132000
     14 HNB1        3.0760    0.0590   -1.1520 hn        1 SOA      0.384300
     15 HNB2        1.6780    0.3130   -2.0050 hn        1 SOA      0.384300
     16 H121       -0.4470    0.9480   -1.9140 h1        1 SOA      0.027200
     17 H122       -0.5710   -0.8790   -1.9010 h1        1 SOA      0.027200
     18 HO1        -2.6070    0.0550   -1.8940 ho        1 SOA      0.402000
@<TRIPOS>BOND
     1    1    2 ar  
     2    1    5 ar  
     3    1    8 1   
     4    2    3 ar  
     5    2    7 1   
     6    3    4 ar  
     7    3   10 1   
     8    4    6 ar  
     9    4   11 1   
    10    5    6 ar  
    11    5   12 1   
    12    6   13 1   
    13    7   14 1   
    14    7   15 1   
    15    8    9 1   
    16    8   16 1   
    17    8   17 1   
    18    9   18 1   
@<TRIPOS>SUBSTRUCTURE
     1 SOA         1 TEMP              0 ****  ****    0 ROOT
