@<TRIPOS>MOLECULE
SOA
   18    18     1     0     0
SMALL
bcc


@<TRIPOS>ATOM
      1 C4         -0.0220   -0.0300   -0.0140 ca        1 SOA     -0.143300
      2 C3          1.3930    0.0810   -0.0410 ca        1 SOA      0.132600
      3 C2          2.0870    0.1770    1.1880 ca        1 SOA     -0.193000
      4 C1          1.3960    0.1730    2.3930 ca        1 SOA     -0.093000
      5 C5         -0.6920   -0.0360    1.2110 ca        1 SOA     -0.069000
      6 C6          0.0070    0.0650    2.4110 ca        1 SOA     -0.173000
      7 N11         2.0940    0.1780   -1.2520 nh        1 SOA     -0.814200
      8 C12        -0.7790   -0.1220   -1.2980 c3        1 SOA      0.184700
      9 O1         -2.1660   -0.2700   -1.0260 oh        1 SOA     -0.598800
     10 H2          3.1830    0.2650    1.1940 ha        1 SOA      0.129000
     11 H1          1.9540    0.2540    3.3380 ha        1 SOA      0.129000
     12 H5         -1.7910   -0.1220    1.2180 ha        1 SOA      0.153000
     13 H6         -0.5360    0.0590    3.3660 ha        1 SOA      0.132000
     14 HNB1        1.6740   -0.3210   -2.0060 hn        1 SOA      0.384300
     15 HNB2        3.0690   -0.0110   -1.1670 hn        1 SOA      0.384300
     16 H121       -0.4310   -1.0150   -1.8920 h1        1 SOA      0.027200
     17 H122       -0.6080    0.8080   -1.9090 h1        1 SOA      0.027200
     18 HO1        -2.6160   -0.1830   -1.8740 ho        1 SOA      0.402000
@<TRIPOS>BOND
     1    1    2 ar  
     2    1    5 ar  
     3    1    8 1   
     4    2    3 ar  
     5    2    7 1   
     6    3    4 ar  
     7    3   10 1   
     8    4    6 ar  
     9    4   11 1   
    10    5    6 ar  
    11    5   12 1   
    12    6   13 1   
    13    7   14 1   
    14    7   15 1   
    15    8    9 1   
    16    8   16 1   
    17    8   17 1   
    18    9   18 1   
@<TRIPOS>SUBSTRUCTURE
     1 SOA         1 TEMP              0 ****  ****    0 ROOT
