@<TRIPOS>MOLECULE
SOA
   18    15     1     0     0
SMALL
bcc


@<TRIPOS>ATOM
      1 C4         -0.4130    0.0970   -0.1870 c1        1 SOA     -0.109100
      2 C3          0.9570    0.0390   -0.1740 c1        1 SOA      0.106800
      3 C2          1.6490    0.0030    1.0510 c1        1 SOA     -0.135500
      4 C1          0.9580    0.0280    2.2200 c1        1 SOA     -0.075500
      5 C5         -1.0950    0.1220    0.9700 c1        1 SOA     -0.011500
      6 C6         -0.3920    0.0860    2.2090 c1        1 SOA     -0.075500
      7 N11         1.7040   -0.0110   -1.4470 n3        1 SOA     -0.788400
      8 C12        -1.1790    0.0430   -1.5440 c3        1 SOA      0.150500
      9 O1         -2.4400   -0.5140   -1.3410 oh        1 SOA     -0.598800
     10 H2          2.6950   -0.0420    1.0610 ha        1 SOA      0.071500
     11 H1          1.4780    0.0010    3.1410 ha        1 SOA      0.073000
     12 H5         -2.1550    0.1680    0.9620 ha        1 SOA      0.095500
     13 H6         -0.8830    0.1040    3.0480 ha        1 SOA      0.073000
     14 HNB1        1.3830    0.4450   -2.1890 hn        1 SOA      0.384300
     15 HNB2        2.5430   -0.4220   -1.4800 hn        1 SOA      0.384300
     16 H121       -1.2760    1.0050   -1.9220 h1        1 SOA      0.027200
     17 H122       -0.6640   -0.5230   -2.1990 h1        1 SOA      0.027200
     18 HO1        -2.8720   -0.6290   -2.1770 ho        1 SOA      0.402000
@<TRIPOS>BOND
     1    1    5 3   
     2    1    8 1   
     3    2    3 3   
     4    2    7 1   
     5    3   10 1   
     6    4    6 3   
     7    4   11 1   
     8    5   12 1   
     9    6   13 1   
    10    7   14 1   
    11    7   15 1   
    12    8    9 1   
    13    8   16 1   
    14    8   17 1   
    15    9   18 1   
@<TRIPOS>SUBSTRUCTURE
     1 SOA         1 TEMP              0 ****  ****    0 ROOT
