@<TRIPOS>MOLECULE
SOC
   15    14     1     0     0
SMALL
bcc


@<TRIPOS>ATOM
      1 N          62.0190   -8.6320   21.6880 n3        1 SOC     -0.920800
      2 CA         63.0240   -7.9730   22.5060 c3        1 SOC      0.039500
      3 CB         63.8070   -9.0270   23.3020 c3        1 SOC     -0.315600
      4 SE         62.7820  -10.1080   24.0720 s6        1 SOC      1.346000
      5 OD1        62.5820  -11.3050   23.3610 o         1 SOC     -0.669800
      6 OD2        61.6690   -9.5290   24.7070 o         1 SOC     -0.669800
      7 C          64.0570   -7.0800   21.7360 c         1 SOC      0.903600
      8 O          64.9590   -6.5360   22.4270 o         1 SOC     -0.828300
      9 OXT        63.9110   -6.9610   20.4900 o         1 SOC     -0.828300
     10 H          62.4430   -8.9080   20.8180 hn        1 SOC      0.352800
     11 H2         61.2980   -7.9720   21.4680 hn        1 SOC      0.352800
     12 HA         62.5010   -7.2990   23.2460 h1        1 SOC      0.057700
     13 HB2        64.5010   -9.5480   22.5870 h1        1 SOC      0.134200
     14 HB3        64.4860   -8.4350   23.9750 h1        1 SOC      0.134200
     15 HE         63.5780  -10.3950   24.9830 hs        1 SOC     -0.087200
@<TRIPOS>BOND
     1    1    2 1   
     2    1   10 1   
     3    1   11 1   
     4    2    3 1   
     5    2    7 1   
     6    2   12 1   
     7    3    4 1   
     8    3   13 1   
     9    3   14 1   
    10    4    5 2   
    11    4    6 2   
    12    4   15 1   
    13    7    8 1   
    14    7    9 1   
@<TRIPOS>SUBSTRUCTURE
     1 SOC         1 TEMP              0 ****  ****    0 ROOT
