@<TRIPOS>MOLECULE
SOE
   24    24     1     0     0
SMALL
bcc


@<TRIPOS>ATOM
      1 C1         -2.4360   -0.4260    0.5750 c3        1 SOE      0.118400
      2 O1         -3.4300    0.4510    0.0940 oh        1 SOE     -0.598800
      3 C2         -1.0720   -0.0650   -0.0440 c3        1 SOE      0.299600
      4 O2         -1.1200    0.0710   -1.4400 oh        1 SOE     -0.599800
      5 C3          0.0180   -1.0860    0.3440 c3        1 SOE      0.147100
      6 O3         -0.3450   -2.3380   -0.2030 oh        1 SOE     -0.587800
      7 C4          1.3810   -0.6020   -0.1730 c3        1 SOE      0.112100
      8 O4          2.3440   -1.5310    0.2910 oh        1 SOE     -0.610800
      9 C5          1.6500    0.8060    0.3830 c3        1 SOE      0.075100
     10 O5          2.8750    1.2290   -0.1960 oh        1 SOE     -0.599800
     11 C6          0.5020    1.7410   -0.0090 c3        1 SOE      0.108400
     12 O6         -0.7480    1.2380    0.4430 os        1 SOE     -0.455600
     13 H1         -2.3660   -0.3910    1.6910 h1        1 SOE      0.076700
     14 H1A        -2.7320   -1.4490    0.2200 h1        1 SOE      0.076700
     15 HO1        -3.2200    1.3320    0.4300 ho        1 SOE      0.414000
     16 H3          0.0460   -1.1670    1.4680 h1        1 SOE      0.059700
     17 HO3         0.4540   -2.8840   -0.1990 ho        1 SOE      0.428000
     18 H4          1.3800   -0.5770   -1.2980 h1        1 SOE      0.082700
     19 HO4         3.2070   -1.1900    0.0200 ho        1 SOE      0.428000
     20 H5          1.7560    0.7580    1.5020 h1        1 SOE      0.056700
     21 HO5         3.0480    2.1190    0.1320 ho        1 SOE      0.410000
     22 H6          0.5980    2.7350    0.5020 h1        1 SOE      0.064700
     23 H6A         0.4810    1.8750   -1.1230 h1        1 SOE      0.064700
     24 HO2        -1.9920    0.4250   -1.6700 ho        1 SOE      0.430000
@<TRIPOS>BOND
     1    1    2 1   
     2    1    3 1   
     3    1   13 1   
     4    1   14 1   
     5    2   15 1   
     6    3    4 1   
     7    3    5 1   
     8    3   12 1   
     9    4   24 1   
    10    5    6 1   
    11    5    7 1   
    12    5   16 1   
    13    6   17 1   
    14    7    8 1   
    15    7    9 1   
    16    7   18 1   
    17    8   19 1   
    18    9   10 1   
    19    9   11 1   
    20    9   20 1   
    21   10   21 1   
    22   11   12 1   
    23   11   22 1   
    24   11   23 1   
@<TRIPOS>SUBSTRUCTURE
     1 SOE         1 TEMP              0 ****  ****    0 ROOT
