@<TRIPOS>MOLECULE
SOG
   48    48     1     0     0
SMALL
bcc


@<TRIPOS>ATOM
      1 C1         -0.3890   -0.2340   -1.9240 c3        1 SOG      0.184200
      2 C2         -1.3620    0.0170   -3.0800 c3        1 SOG      0.094100
      3 C3         -0.7290   -0.4360   -4.4070 c3        1 SOG      0.110100
      4 C4          0.6530    0.2140   -4.5820 c3        1 SOG      0.125100
      5 C5          1.5210   -0.0940   -3.3540 c3        1 SOG      0.091100
      6 C6          2.8530    0.6570   -3.4230 c3        1 SOG      0.141400
      7 C2'        -0.6330    0.3190    2.1380 c3        1 SOG     -0.073400
      8 C3'         0.0610   -0.3400    3.3130 c3        1 SOG     -0.077400
      9 C4'        -0.4040    0.2580    4.6240 c3        1 SOG     -0.079400
     10 C5'         0.2880   -0.3980    5.8000 c3        1 SOG     -0.079400
     11 C6'        -0.1760    0.2000    7.1120 c3        1 SOG     -0.079400
     12 C7'         0.5140   -0.4550    8.2890 c3        1 SOG     -0.080400
     13 C8'         0.0560    0.1370    9.5970 c3        1 SOG     -0.093100
     14 S1         -1.0450    0.5460   -0.4630 ss        1 SOG     -0.286200
     15 O2         -2.5450   -0.7540   -2.9420 oh        1 SOG     -0.603800
     16 O3         -1.5140   -0.0140   -5.5080 oh        1 SOG     -0.605800
     17 O4          1.3150   -0.3290   -5.7100 oh        1 SOG     -0.594800
     18 O5          0.8740    0.3710   -2.1650 os        1 SOG     -0.408600
     19 O6          3.6930    0.3070   -2.3450 oh        1 SOG     -0.594800
     20 H1         -0.2560   -1.3360   -1.7610 h2        1 SOG      0.070700
     21 H2         -1.6220    1.1120   -3.1350 h1        1 SOG      0.074700
     22 H3         -0.6370   -1.5580   -4.4180 h1        1 SOG      0.064700
     23 H4          0.5310    1.3260   -4.7070 h1        1 SOG      0.063700
     24 H5          1.7010   -1.2010   -3.2750 h1        1 SOG      0.068700
     25 H61         3.4030    0.3410   -4.3500 h1        1 SOG      0.065200
     26 H62         2.6690    1.7630   -3.4350 h1        1 SOG      0.065200
     27 H1'1        0.9350   -0.1310    0.7040 h1        1 SOG      0.067700
     28 H1'2       -0.3700   -1.3760    0.8060 h1        1 SOG      0.067700
     29 H2'1       -1.7440    0.1900    2.2390 hc        1 SOG      0.056700
     30 H2'2       -0.4210    1.4210    2.1480 hc        1 SOG      0.056700
     31 H3'1        1.1710   -0.2130    3.2140 hc        1 SOG      0.042700
     32 H3'2       -0.1490   -1.4420    3.3060 hc        1 SOG      0.042700
     33 H4'1       -1.5140    0.1320    4.7220 hc        1 SOG      0.042200
     34 H4'2       -0.1930    1.3600    4.6300 hc        1 SOG      0.042200
     35 H5'1        1.3980   -0.2720    5.7020 hc        1 SOG      0.040200
     36 H5'2        0.0780   -1.5000    5.7940 hc        1 SOG      0.040200
     37 H6'1       -1.2870    0.0740    7.2100 hc        1 SOG      0.040200
     38 H6'2        0.0340    1.3020    7.1180 hc        1 SOG      0.040200
     39 H7'1        1.6250   -0.3300    8.1880 hc        1 SOG      0.038700
     40 H7'2        0.3050   -1.5570    8.2800 hc        1 SOG      0.038700
     41 H8'1        0.5770   -0.3590   10.4510 hc        1 SOG      0.033033
     42 H8'2        0.2790    1.2300    9.6350 hc        1 SOG      0.033033
     43 H8'3       -1.0450   -0.0010    9.7280 hc        1 SOG      0.033033
     44 HO2        -2.9380   -0.5160   -2.0910 ho        1 SOG      0.424000
     45 HO3        -2.4010   -0.3720   -5.3680 ho        1 SOG      0.427000
     46 HO4         0.7150   -0.2120   -6.4590 ho        1 SOG      0.425000
     47 HO6         3.2320    0.5610   -1.5350 ho        1 SOG      0.408000
     48 C1'        -0.1650   -0.2790    0.8360 c3        1 SOG     -0.003300
@<TRIPOS>BOND
     1    1    2 1   
     2    1   14 1   
     3    1   18 1   
     4    1   20 1   
     5    2    3 1   
     6    2   15 1   
     7    2   21 1   
     8    3    4 1   
     9    3   16 1   
    10    3   22 1   
    11    4    5 1   
    12    4   17 1   
    13    4   23 1   
    14    5    6 1   
    15    5   18 1   
    16    5   24 1   
    17    6   19 1   
    18    6   25 1   
    19    6   26 1   
    20    7    8 1   
    21    7   29 1   
    22    7   30 1   
    23    7   48 1   
    24    8    9 1   
    25    8   31 1   
    26    8   32 1   
    27    9   10 1   
    28    9   33 1   
    29    9   34 1   
    30   10   11 1   
    31   10   35 1   
    32   10   36 1   
    33   11   12 1   
    34   11   37 1   
    35   11   38 1   
    36   12   13 1   
    37   12   39 1   
    38   12   40 1   
    39   13   41 1   
    40   13   42 1   
    41   13   43 1   
    42   14   48 1   
    43   15   44 1   
    44   16   45 1   
    45   17   46 1   
    46   19   47 1   
    47   27   48 1   
    48   28   48 1   
@<TRIPOS>SUBSTRUCTURE
     1 SOG         1 TEMP              0 ****  ****    0 ROOT
