@<TRIPOS>MOLECULE
SOG
   48    61     1     0     0
SMALL
bcc


@<TRIPOS>ATOM
      1 C1          0.0000    0.0000    0.0000 DU        1 SOG     -0.427000
      2 C2          1.5300    0.0000    0.0000 DU        1 SOG     -0.039000
      3 C3          2.0290    0.0000    1.4490 DU        1 SOG     -0.157000
      4 C4          1.3780    1.1700    2.1910 DU        1 SOG     -0.074000
      5 C5         -0.1410    1.0830    2.0250 DU        1 SOG     -0.064000
      6 C6         -0.8020    2.2290    2.7920 c3        1 SOG     -0.081000
      7 C2'        -3.1310   -0.0730   -2.7520 DU        1 SOG      0.044000
      8 C3'        -4.6400   -0.0710   -2.5040 DU        1 SOG     -0.369000
      9 C4'        -5.3790   -0.1050   -3.8410 DU        1 SOG     -0.229000
     10 C5'        -6.8880   -0.1030   -3.5920 DU        1 SOG     -0.254000
     11 C6'        -7.6280   -0.1360   -4.9300 DU        1 SOG     -0.222000
     12 C7'        -9.1360   -0.1350   -4.6810 DU        1 SOG     -0.200000
     13 C8'        -9.8760   -0.1680   -6.0190 c3        1 SOG     -0.254000
     14 S1         -0.6030   -0.0420   -1.7100 s4        1 SOG     -0.092000
     15 O2          2.0090   -1.1660   -0.6720 oh        1 SOG     -0.280000
     16 O3          3.4510    0.1490    1.4700 oh        1 SOG     -0.270000
     17 O4          1.7120    1.1040    3.5790 oh        1 SOG     -0.275000
     18 O5         -0.4820    1.1760    0.6440 os        1 SOG     -0.147000
     19 O6         -2.2210    2.1460    2.6440 oh        1 SOG     -0.463000
     20 H1         -0.8740    0.1910   -0.6100 DU        1 SOG      0.291000
     21 H2          0.5790   -0.4420    0.2700 DU        1 SOG      0.176000
     22 H3          1.9610    0.4490    0.4650 DU        1 SOG      0.128000
     23 H4          1.5640    0.1110    2.0600 DU        1 SOG      0.116000
     24 H5          0.8030    1.6000    1.8970 DU        1 SOG      0.130000
     25 H61        -0.6460    1.1740    2.6040 DU        1 SOG      0.071000
     26 H62        -0.5430    2.1580    3.8410 h1        1 SOG      0.099000
     27 H1'1       -1.9990    0.6120   -0.6430 ha        1 SOG      0.169500
     28 H1'2       -2.4810    0.9990   -1.7070 ha        1 SOG      0.169500
     29 H2'1       -3.0460    0.1180   -1.6890 DU        1 SOG      0.056000
     30 H2'2       -2.7810   -1.0950   -2.8270 ha        1 SOG      0.116000
     31 H3'1       -3.7730    0.1910   -3.0980 DU        1 SOG      0.190000
     32 H3'2       -4.9100   -0.9430   -1.9200 ha        1 SOG      0.109000
     33 H4'1       -5.1470    0.3660   -2.8930 DU        1 SOG      0.163000
     34 H4'2       -5.1040   -1.0010   -4.3830 ha        1 SOG      0.097000
     35 H5'1       -5.9920    0.3370   -4.0130 DU        1 SOG      0.161000
     36 H5'2       -7.1590   -0.9750   -3.0090 ha        1 SOG      0.101000
     37 H6'1       -7.3950    0.3340   -3.9820 DU        1 SOG      0.154000
     38 H6'2       -7.3530   -1.0330   -5.4720 ha        1 SOG      0.095000
     39 H7'1       -8.2400    0.3060   -5.1010 DU        1 SOG      0.165000
     40 H7'2       -9.4120    0.7620   -4.1380 ha        1 SOG      0.120000
     41 H8'1       -9.6410   -0.5920   -5.0510 DU        1 SOG      0.140000
     42 H8'2       -9.6010   -1.0640   -6.5620 hc        1 SOG      0.068000
     43 H8'3      -10.9450   -0.1670   -5.8420 hc        1 SOG      0.068000
     44 HO2         1.1780   -1.0320   -1.0960 ho        1 SOG      0.261000
     45 HO3         3.1700   -0.1580    0.6240 ho        1 SOG      0.259000
     46 HO4         2.3340    0.6020    3.0780 ho        1 SOG      0.253000
     47 HO6        -1.3080    2.0630    2.8660 ho        1 SOG      0.322000
     48 C1'        -2.3920   -0.0400   -1.4140 DU        1 SOG     -0.394000
@<TRIPOS>BOND
     1    1    2 1   
     2    1   14 1   
     3    1   18 1   
     4    1   20 1   
     5    1   21 1   
     6    2    3 1   
     7    2   15 1   
     8    2   21 1   
     9    2   22 1   
    10    3    4 1   
    11    3   16 1   
    12    3   22 1   
    13    3   23 1   
    14    4    5 1   
    15    4   17 1   
    16    4   23 1   
    17    4   24 1   
    18    5    6 1   
    19    5   18 1   
    20    5   24 1   
    21    5   25 1   
    22    6   19 1   
    23    6   25 1   
    24    6   26 1   
    25    7    8 1   
    26    7   29 1   
    27    7   30 1   
    28    7   31 1   
    29    7   48 1   
    30    8    9 1   
    31    8   31 1   
    32    8   32 1   
    33    8   33 1   
    34    9   10 1   
    35    9   33 1   
    36    9   34 1   
    37    9   35 1   
    38   10   11 1   
    39   10   35 1   
    40   10   36 1   
    41   10   37 1   
    42   11   12 1   
    43   11   37 1   
    44   11   38 1   
    45   11   39 1   
    46   12   13 1   
    47   12   39 1   
    48   12   40 1   
    49   12   41 1   
    50   13   41 1   
    51   13   42 1   
    52   13   43 1   
    53   14   20 1   
    54   14   48 1   
    55   15   44 1   
    56   16   45 1   
    57   17   46 1   
    58   19   47 1   
    59   27   48 1   
    60   28   48 1   
    61   29   48 1   
@<TRIPOS>SUBSTRUCTURE
     1 SOG         1 TEMP              0 ****  ****    0 ROOT
