@<TRIPOS>MOLECULE
SOH
    5     2     1     0     0
SMALL
bcc


@<TRIPOS>ATOM
      1 S          -0.0320   -0.0100    0.0190 ss        1 SOH      2.528000
      2 O1         -1.2550    0.8640    0.1610 os        1 SOH     -1.208000
      3 O2         -0.2470   -1.3300    0.7200 os        1 SOH     -1.208000
      4 O3          0.3300   -0.2130   -1.4330 o         1 SOH     -1.055000
      5 O4          1.2040    0.6890    0.5330 o         1 SOH     -1.055000
@<TRIPOS>BOND
     1    1    4 1   
     2    1    5 1   
@<TRIPOS>SUBSTRUCTURE
     1 SOH         1 TEMP              0 ****  ****    0 ROOT
