@<TRIPOS>MOLECULE
SOH
    5     4     1     0     0
SMALL
bcc


@<TRIPOS>ATOM
      1 S          -0.0130    0.0000   -0.0020 s6        1 SOH      1.542800
      2 O1          1.0890   -0.0000   -0.9650 o         1 SOH     -0.885200
      3 O2          0.0740   -1.1950    0.8390 o         1 SOH     -0.885200
      4 O3          0.0740    1.1950    0.8390 o         1 SOH     -0.885200
      5 O4         -1.2880   -0.0000   -0.7200 o         1 SOH     -0.885200
@<TRIPOS>BOND
     1    1    2 1   
     2    1    3 1   
     3    1    4 1   
     4    1    5 1   
@<TRIPOS>SUBSTRUCTURE
     1 SOH         1 TEMP              0 ****  ****    0 ROOT
