@<TRIPOS>MOLECULE
SOL
   24    23     1     0     0
SMALL
bcc


@<TRIPOS>ATOM
      1 C1         -2.8520   -0.9620   -0.6360 c3        1 SOL      0.037400
      2 O1         -4.1720   -0.8390   -0.1540 oh        1 SOL     -0.586800
      3 C2         -1.9540    0.1630   -0.1910 c         1 SOL      0.519100
      4 O2         -2.2680    0.9320    0.7210 o         1 SOL     -0.523100
      5 C3         -0.6170    0.2820   -0.9020 c3        1 SOL      0.023100
      6 O3         -0.2020    1.6280   -0.9610 oh        1 SOL     -0.579800
      7 C4          0.4230   -0.6350   -0.2170 c3        1 SOL      0.117100
      8 O4          0.0090   -1.0070    1.0830 oh        1 SOL     -0.600800
      9 C5          1.8080    0.0300   -0.1890 c3        1 SOL      0.116100
     10 O5          1.7460    1.0310    0.8190 oh        1 SOL     -0.620800
     11 C6          2.8840   -1.0070    0.1480 c3        1 SOL      0.093400
     12 O6          4.0930   -0.2820    0.3050 oh        1 SOL     -0.612800
     13 H1         -2.4000   -1.9290   -0.2770 h1        1 SOL      0.073700
     14 H1A        -2.9470   -0.9780   -1.7550 h1        1 SOL      0.073700
     15 HO1        -4.1260   -0.4950    0.7490 ho        1 SOL      0.421000
     16 H3         -0.7260   -0.0180   -1.9840 h1        1 SOL      0.092700
     17 HO3        -0.1000    1.9440   -0.0500 ho        1 SOL      0.433000
     18 H4          0.4840   -1.6090   -0.7800 h1        1 SOL      0.082700
     19 HO4         0.0590   -0.2180    1.6430 ho        1 SOL      0.431000
     20 H5          2.0280    0.5140   -1.1800 h1        1 SOL      0.073700
     21 HO5         2.6420    1.3770    0.9270 ho        1 SOL      0.437000
     22 H6          2.6150   -1.5400    1.0990 h1        1 SOL      0.043200
     23 H6A         2.9850   -1.7480   -0.6870 h1        1 SOL      0.043200
     24 HO6         4.7420   -0.8960    0.6660 ho        1 SOL      0.413000
@<TRIPOS>BOND
     1    1    2 1   
     2    1    3 1   
     3    1   13 1   
     4    1   14 1   
     5    2   15 1   
     6    3    4 2   
     7    3    5 1   
     8    5    6 1   
     9    5    7 1   
    10    5   16 1   
    11    6   17 1   
    12    7    8 1   
    13    7    9 1   
    14    7   18 1   
    15    8   19 1   
    16    9   10 1   
    17    9   11 1   
    18    9   20 1   
    19   10   21 1   
    20   11   12 1   
    21   11   22 1   
    22   11   23 1   
    23   12   24 1   
@<TRIPOS>SUBSTRUCTURE
     1 SOL         1 TEMP              0 ****  ****    0 ROOT
