@<TRIPOS>MOLECULE
SOM
    8     7     1     0     0
SMALL
bcc


@<TRIPOS>ATOM
      1 P1          0.0580    0.0630    0.0480 p5        1 SOM      1.270600
      2 O1          1.5330    0.0190   -0.1100 o         1 SOM     -0.887500
      3 O2         -0.5700    0.0030    1.3920 o         1 SOM     -0.887500
      4 C1         -0.5670    1.3850   -0.8130 c3        1 SOM     -0.357300
      5 HP1        -0.4770   -0.9020   -0.7110 hp        1 SOM     -0.269400
      6 H11        -0.2390    2.3370   -0.3400 hc        1 SOM      0.044033
      7 H12        -1.6780    1.3790   -0.8210 hc        1 SOM      0.044033
      8 H13        -0.2110    1.3930   -1.8650 hc        1 SOM      0.044033
@<TRIPOS>BOND
     1    1    2 1   
     2    1    3 1   
     3    1    4 1   
     4    1    5 1   
     5    4    6 1   
     6    4    7 1   
     7    4    8 1   
@<TRIPOS>SUBSTRUCTURE
     1 SOM         1 TEMP              0 ****  ****    0 ROOT
