@<TRIPOS>MOLECULE
SOM
    9     8     1     0     0
SMALL
bcc


@<TRIPOS>ATOM
      1 P1          0.1780   -0.3360    0.0570 p5        1 SOM      1.464300
      2 O1         -1.0430   -0.2570   -0.9850 oh        1 SOM     -0.797400
      3 O2          1.2760    0.4150   -0.5360 o         1 SOM     -0.857300
      4 C1         -0.4220    0.1560    1.4950 c3        1 SOM     -0.455300
      5 HP1         0.3530   -1.5980    0.2160 hp        1 SOM     -0.166400
      6 HO1        -0.8680    0.2200   -1.7930 ho        1 SOM      0.479000
      7 H11        -0.0460   -0.4340    2.3670 hc        1 SOM      0.111367
      8 H12        -0.1600    1.2220    1.7140 hc        1 SOM      0.111367
      9 H13        -1.5380    0.0960    1.5400 hc        1 SOM      0.111367
@<TRIPOS>BOND
     1    1    2 1   
     2    1    3 2   
     3    1    4 1   
     4    1    5 1   
     5    2    6 1   
     6    4    7 1   
     7    4    8 1   
     8    4    9 1   
@<TRIPOS>SUBSTRUCTURE
     1 SOM         1 TEMP              0 ****  ****    0 ROOT
