@<TRIPOS>MOLECULE
SOM
    9     8     1     0     0
SMALL
bcc


@<TRIPOS>ATOM
      1 P1         -0.1410   -0.0050    0.0050 p5        1 SOM      1.464300
      2 O1          1.3790   -0.3330   -0.4010 oh        1 SOM     -0.797400
      3 O2         -0.1890   -0.0090    1.4610 o         1 SOM     -0.857300
      4 C1         -0.5360    1.3660   -0.7900 c3        1 SOM     -0.455300
      5 HP1        -0.8140   -0.9140   -0.6030 hp        1 SOM     -0.166400
      6 HO1         1.9780   -0.4920    0.3250 ho        1 SOM      0.479000
      7 H11        -1.5750    1.3670   -1.2000 hc        1 SOM      0.111367
      8 H12        -0.4690    2.2670   -0.1280 hc        1 SOM      0.111367
      9 H13         0.1390    1.5710   -1.6590 hc        1 SOM      0.111367
@<TRIPOS>BOND
     1    1    2 1   
     2    1    3 2   
     3    1    4 1   
     4    1    5 1   
     5    2    6 1   
     6    4    7 1   
     7    4    8 1   
     8    4    9 1   
@<TRIPOS>SUBSTRUCTURE
     1 SOM         1 TEMP              0 ****  ****    0 ROOT
