@<TRIPOS>MOLECULE
SON
   40    41     1     0     0
SMALL
bcc


@<TRIPOS>ATOM
      1 PB          1.2710    0.2200   -1.0960 p4        1 SON      1.560300
      2 O1B         2.3030    0.8280   -1.9690 o         1 SON     -0.846167
      3 O2B         1.6420   -0.1970    0.2740 o         1 SON     -0.846167
      4 O3B         0.1020   -0.4230   -1.7420 o         1 SON     -0.894967
      5 CB          0.0670    2.3760   -0.7680 c2        1 SON     -0.672000
      6 CA         -0.1560    3.1500    0.3440 c2        1 SON      0.428100
      7 OA          0.4870    4.0880    0.9070 o         1 SON     -0.618000
      8 O5'        -1.3860    2.8770    1.0180 os        1 SON     -0.482900
      9 C5'        -1.4740    3.2640    2.3650 c3        1 SON      0.162400
     10 C4'        -1.8700    4.7430    2.4720 c3        1 SON      0.062100
     11 O4'        -2.8300    4.9180    3.5390 os        1 SON     -0.425600
     12 C1'        -2.3420    5.8010    4.5400 c3        1 SON      0.213800
     13 N9         -2.0780    5.0620    5.7640 na        1 SON     -0.262000
     14 C4         -2.5330    5.3890    7.0480 ca        1 SON      0.446800
     15 N3         -3.2490    6.4580    7.5140 nb        1 SON     -0.713000
     16 C2         -3.4900    6.3890    8.8400 ca        1 SON      0.655900
     17 N1         -3.1330    5.4430    9.7550 nb        1 SON     -0.803000
     18 C6         -2.3950    4.3800    9.3020 ca        1 SON      0.718200
     19 N6         -1.9080    3.4230   10.1810 nh        1 SON     -0.939500
     20 C5         -2.0760    4.2970    7.9100 ca        1 SON     -0.213200
     21 N7         -1.3930    3.3400    7.1460 nc        1 SON     -0.572100
     22 C8         -1.4220    3.8140    5.8890 cd        1 SON      0.443700
     23 C2'        -1.0780    6.5290    3.9660 c3        1 SON      0.110100
     24 O2'        -1.4230    7.8670    3.6860 oh        1 SON     -0.598800
     25 C3'        -0.6820    5.6880    2.7360 c3        1 SON      0.115100
     26 O3'        -0.4810    6.5590    1.6430 oh        1 SON     -0.648800
     27 HB1         0.8850    2.6530   -1.4380 ha        1 SON      0.138000
     28 HB2        -0.7080    1.6930   -1.1270 ha        1 SON      0.138000
     29 H5'1       -2.2920    2.6300    2.8020 h1        1 SON      0.036700
     30 H5'2       -0.5060    3.0770    2.9010 h1        1 SON      0.036700
     31 H4'        -2.4120    5.0480    1.5340 h1        1 SON      0.088700
     32 H1'        -3.1690    6.5400    4.7540 h2        1 SON      0.105700
     33 H2         -4.0770    7.2340    9.2590 h5        1 SON      0.035100
     34 HN61       -2.3450    3.3490   11.0680 hn        1 SON      0.420300
     35 HN62       -1.6060    2.5730    9.7640 hn        1 SON      0.420300
     36 H8         -1.0010    3.3140    5.0000 h5        1 SON      0.105800
     37 H2'        -0.2440    6.5890    4.7130 h1        1 SON      0.080700
     38 H3         -1.6900    7.9190    2.7580 ho        1 SON      0.428000
     39 H3'         0.2570    5.1000    2.9330 h1        1 SON      0.105700
     40 H1         -0.0880    6.0090    0.9360 ho        1 SON      0.482000
@<TRIPOS>BOND
     1    1    2 1   
     2    1    3 1   
     3    1    4 2   
     4    5    6 2   
     5    5   27 1   
     6    5   28 1   
     7    6    7 1   
     8    6    8 1   
     9    8    9 1   
    10    9   10 1   
    11    9   29 1   
    12    9   30 1   
    13   10   11 1   
    14   10   25 1   
    15   10   31 1   
    16   11   12 1   
    17   12   13 1   
    18   12   23 1   
    19   12   32 1   
    20   13   14 1   
    21   13   22 1   
    22   14   15 ar  
    23   14   20 ar  
    24   15   16 ar  
    25   16   17 ar  
    26   16   33 1   
    27   17   18 ar  
    28   18   19 1   
    29   18   20 ar  
    30   19   34 1   
    31   19   35 1   
    32   20   21 1   
    33   21   22 2   
    34   22   36 1   
    35   23   24 1   
    36   23   25 1   
    37   23   37 1   
    38   24   38 1   
    39   25   26 1   
    40   25   39 1   
    41   26   40 1   
@<TRIPOS>SUBSTRUCTURE
     1 SON         1 TEMP              0 ****  ****    0 ROOT
