@<TRIPOS>MOLECULE
SON
   40    41     1     0     0
SMALL
bcc


@<TRIPOS>ATOM
      1 PB          1.2830    0.3060   -1.1480 p4        1 SON      1.560300
      2 O1B         2.3220    0.9250   -2.0050 o         1 SON     -0.846167
      3 O2B         1.6460   -0.1370    0.2160 o         1 SON     -0.846167
      4 O3B         0.1150   -0.3210   -1.8110 o         1 SON     -0.894967
      5 CB          0.0860    2.4610   -0.7880 c2        1 SON     -0.672000
      6 CA         -0.1390    3.2150    0.3360 c2        1 SON      0.428100
      7 OA          0.5030    4.1400    0.9200 o         1 SON     -0.618000
      8 O5'        -1.3740    2.9360    0.9980 os        1 SON     -0.482900
      9 C5'        -1.4680    3.2990    2.3510 c3        1 SON      0.162400
     10 C4'        -1.8590    4.7770    2.4840 c3        1 SON      0.062100
     11 O4'        -2.8240    4.9360    3.5480 os        1 SON     -0.425600
     12 C1'        -2.3380    5.8000    4.5680 c3        1 SON      0.213800
     13 N9         -2.0830    5.0380    5.7800 na        1 SON     -0.262000
     14 C4         -2.5420    5.3440    7.0670 ca        1 SON      0.446800
     15 N3         -3.2570    6.4080    7.5490 nb        1 SON     -0.713000
     16 C2         -3.5040    6.3170    8.8720 ca        1 SON      0.655900
     17 N1         -3.1540    5.3540    9.7720 nb        1 SON     -0.803000
     18 C6         -2.4180    4.2960    9.3030 ca        1 SON      0.718200
     19 N6         -1.9380    3.3220   10.1680 nh        1 SON     -0.939500
     20 C5         -2.0930    4.2360    7.9120 ca        1 SON     -0.213200
     21 N7         -1.4100    3.2900    7.1340 nc        1 SON     -0.572100
     22 C8         -1.4310    3.7870    5.8860 cd        1 SON      0.443700
     23 C2'        -1.0690    6.5340    4.0120 c3        1 SON      0.110100
     24 O2'        -1.4080    7.8770    3.7540 oh        1 SON     -0.598800
     25 C3'        -0.6690    5.7130    2.7700 c3        1 SON      0.115100
     26 O3'        -0.4600    6.6010    1.6940 oh        1 SON     -0.648800
     27 HB1         0.9090    2.7460   -1.4490 ha        1 SON      0.138000
     28 HB2        -0.6890    1.7870   -1.1630 ha        1 SON      0.138000
     29 H5'1       -2.2910    2.6600    2.7730 h1        1 SON      0.036700
     30 H5'2       -0.5040    3.0980    2.8890 h1        1 SON      0.036700
     31 H4'        -2.3960    5.1010    1.5490 h1        1 SON      0.088700
     32 H1'        -3.1640    6.5380    4.7910 h2        1 SON      0.105700
     33 H2         -4.0900    7.1550    9.3030 h5        1 SON      0.035100
     34 HN61       -1.6370    2.4780    9.7370 hn        1 SON      0.420300
     35 HN62       -2.3790    3.2340   11.0520 hn        1 SON      0.420300
     36 H8         -1.0080    3.3000    4.9900 h5        1 SON      0.105800
     37 H2'        -0.2380    6.5770    4.7640 h1        1 SON      0.080700
     38 H3         -1.6690    7.9470    2.8260 ho        1 SON      0.428000
     39 H3'         0.2670    5.1180    2.9610 h1        1 SON      0.105700
     40 H1         -0.0650    6.0630    0.9790 ho        1 SON      0.482000
@<TRIPOS>BOND
     1    1    2 1   
     2    1    3 1   
     3    1    4 2   
     4    5    6 2   
     5    5   27 1   
     6    5   28 1   
     7    6    7 1   
     8    6    8 1   
     9    8    9 1   
    10    9   10 1   
    11    9   29 1   
    12    9   30 1   
    13   10   11 1   
    14   10   25 1   
    15   10   31 1   
    16   11   12 1   
    17   12   13 1   
    18   12   23 1   
    19   12   32 1   
    20   13   14 1   
    21   13   22 1   
    22   14   15 ar  
    23   14   20 ar  
    24   15   16 ar  
    25   16   17 ar  
    26   16   33 1   
    27   17   18 ar  
    28   18   19 1   
    29   18   20 ar  
    30   19   34 1   
    31   19   35 1   
    32   20   21 1   
    33   21   22 2   
    34   22   36 1   
    35   23   24 1   
    36   23   25 1   
    37   23   37 1   
    38   24   38 1   
    39   25   26 1   
    40   25   39 1   
    41   26   40 1   
@<TRIPOS>SUBSTRUCTURE
     1 SON         1 TEMP              0 ****  ****    0 ROOT
