@<TRIPOS>MOLECULE
SON
   40    41     1     0     0
SMALL
bcc


@<TRIPOS>ATOM
      1 PB         -6.1990    0.8540    0.9140 p4        1 SON      1.560300
      2 O1B        -5.3060    1.7630    1.6660 o         1 SON     -0.846167
      3 O2B        -6.7110    1.2920   -0.4060 o         1 SON     -0.846167
      4 O3B        -6.9670   -0.1760    1.6520 o         1 SON     -0.894967
      5 CB         -4.6500   -0.8150   -0.0970 c2        1 SON     -0.672000
      6 CA         -3.3000   -1.0200    0.0340 c2        1 SON      0.428100
      7 OA         -2.5850   -1.7000    0.8330 o         1 SON     -0.618000
      8 O5'        -2.5020   -0.3540   -0.9470 os        1 SON     -0.482900
      9 C5'        -1.1540   -0.1270   -0.6250 c3        1 SON      0.162400
     10 C4'        -0.3110   -1.3690   -0.9430 c3        1 SON      0.062100
     11 O4'         0.9440   -0.9710   -1.5410 os        1 SON     -0.425600
     12 C1'         2.0520   -1.4000   -0.7610 c3        1 SON      0.213800
     13 N9          2.7090   -0.2500   -0.1610 na        1 SON     -0.262000
     14 C4          4.0770    0.0450   -0.2080 ca        1 SON      0.446800
     15 N3          5.1380   -0.6420   -0.7340 nb        1 SON     -0.713000
     16 C2          6.3120    0.0040   -0.5730 ca        1 SON      0.655900
     17 N1          6.5880    1.2000    0.0220 nb        1 SON     -0.803000
     18 C6          5.5350    1.8840    0.5720 ca        1 SON      0.718200
     19 N6          5.7400    3.0610    1.2790 nh        1 SON     -0.939500
     20 C5          4.2170    1.3390    0.4620 ca        1 SON     -0.213200
     21 N7          2.9590    1.8040    0.8700 nc        1 SON     -0.572100
     22 C8          2.0940    0.8520    0.4790 cd        1 SON      0.443700
     23 C2'         1.5290   -2.4390    0.2890 c3        1 SON      0.110100
     24 O2'         1.9640   -3.7220   -0.0980 oh        1 SON     -0.598800
     25 C3'        -0.0000   -2.2420    0.2870 c3        1 SON      0.115100
     26 O3'        -0.6150   -3.5080    0.1730 oh        1 SON     -0.648800
     27 HB1        -5.0430   -0.2650   -0.9560 ha        1 SON      0.138000
     28 HB2        -5.3300   -1.4380    0.4910 ha        1 SON      0.138000
     29 H5'1       -1.0410    0.1590    0.4540 h1        1 SON      0.036700
     30 H5'2       -0.8310    0.7200   -1.2900 h1        1 SON      0.036700
     31 H4'        -0.8340   -1.9770   -1.7330 h1        1 SON      0.088700
     32 H1'         2.7840   -1.8830   -1.4740 h2        1 SON      0.105700
     33 H2          7.1990   -0.5150   -0.9930 h5        1 SON      0.035100
     34 HN61        6.5890    3.5490    1.1240 hn        1 SON      0.420300
     35 HN62        4.9300    3.6170    1.4280 hn        1 SON      0.420300
     36 H8          0.9990    0.8820    0.6080 h5        1 SON      0.105800
     37 H2'         1.9670   -2.2730    1.3080 h1        1 SON      0.080700
     38 H3          1.2630   -4.1300   -0.6260 ho        1 SON      0.428000
     39 H3'        -0.3450   -1.7360    1.2320 h1        1 SON      0.105700
     40 H1         -1.5680   -3.3530    0.3290 ho        1 SON      0.482000
@<TRIPOS>BOND
     1    1    2 1   
     2    1    3 1   
     3    1    4 2   
     4    5    6 2   
     5    5   27 1   
     6    5   28 1   
     7    6    7 1   
     8    6    8 1   
     9    8    9 1   
    10    9   10 1   
    11    9   29 1   
    12    9   30 1   
    13   10   11 1   
    14   10   25 1   
    15   10   31 1   
    16   11   12 1   
    17   12   13 1   
    18   12   23 1   
    19   12   32 1   
    20   13   14 1   
    21   13   22 1   
    22   14   15 ar  
    23   14   20 ar  
    24   15   16 ar  
    25   16   17 ar  
    26   16   33 1   
    27   17   18 ar  
    28   18   19 1   
    29   18   20 ar  
    30   19   34 1   
    31   19   35 1   
    32   20   21 1   
    33   21   22 2   
    34   22   36 1   
    35   23   24 1   
    36   23   25 1   
    37   23   37 1   
    38   24   38 1   
    39   25   26 1   
    40   25   39 1   
    41   26   40 1   
@<TRIPOS>SUBSTRUCTURE
     1 SON         1 TEMP              0 ****  ****    0 ROOT
