@<TRIPOS>MOLECULE
SON
   40    41     1     0     0
SMALL
bcc


@<TRIPOS>ATOM
      1 PB          1.3730    0.2620   -1.0680 p4        1 SON      1.560300
      2 O1B         1.8190   -0.0880    0.2980 o         1 SON     -0.846167
      3 O2B         0.2300   -0.4780   -1.6540 o         1 SON     -0.846167
      4 O3B         2.3290    0.9130   -1.9940 o         1 SON     -0.894967
      5 CB          0.0330    2.3390   -0.7540 c2        1 SON     -0.672000
      6 CA         -0.2040    3.1280    0.3430 c2        1 SON      0.428100
      7 OA          0.3910    4.1230    0.8580 o         1 SON     -0.618000
      8 O5'        -1.3880    2.7910    1.0690 os        1 SON     -0.482900
      9 C5'        -1.4570    3.2110    2.4070 c3        1 SON      0.162400
     10 C4'        -1.9520    4.6610    2.4890 c3        1 SON      0.062100
     11 O4'        -2.8850    4.8000    3.5850 os        1 SON     -0.425600
     12 C1'        -2.4250    5.7450    4.5430 c3        1 SON      0.213800
     13 N9         -2.0670    5.0640    5.7760 na        1 SON     -0.262000
     14 C4         -2.4980    5.3970    7.0660 ca        1 SON      0.446800
     15 N3         -3.2710    6.4280    7.5290 nb        1 SON     -0.713000
     16 C2         -3.4590    6.3830    8.8640 ca        1 SON      0.655900
     17 N1         -3.0040    5.4930    9.7910 nb        1 SON     -0.803000
     18 C6         -2.2090    4.4700    9.3410 ca        1 SON      0.718200
     19 N6         -1.6250    3.5770   10.2270 nv        1 SON     -0.939500
     20 C5         -1.9350    4.3670    7.9400 ca        1 SON     -0.213200
     21 N7         -1.2130    3.4370    7.1790 nc        1 SON     -0.572100
     22 C8         -1.3200    3.8700    5.9110 cd        1 SON      0.443700
     23 C2'        -1.2370    6.5430    3.9010 c3        1 SON      0.110100
     24 O2'        -1.6860    7.8430    3.5970 oh        1 SON     -0.598800
     25 C3'        -0.8250    5.6940    2.6820 c3        1 SON      0.115100
     26 O3'        -0.7240    6.5420    1.5590 oh        1 SON     -0.648800
     27 HB1         0.8070    2.6510   -1.4620 ha        1 SON      0.138000
     28 HB2        -0.7030    1.5940   -1.0670 ha        1 SON      0.138000
     29 H5'1       -0.4610    3.1070    2.9130 h1        1 SON      0.036700
     30 H5'2       -2.2130    2.5340    2.8900 h1        1 SON      0.036700
     31 H4'        -2.5470    4.9000    1.5630 h1        1 SON      0.088700
     32 H1'        -3.2950    6.4310    4.7660 h2        1 SON      0.105700
     33 H2         -4.0890    7.1970    9.2810 h5        1 SON      0.035100
     34 HN61       -1.2780    2.7380    9.8230 hn        1 SON      0.420300
     35 HN62       -2.0240    3.5000   11.1320 hn        1 SON      0.420300
     36 H8         -0.8960    3.3730    5.0210 h5        1 SON      0.105800
     37 H2'        -0.3840    6.6830    4.6160 h1        1 SON      0.080700
     38 H3         -1.9870    7.8480    2.6780 ho        1 SON      0.428000
     39 H3'         0.1590    5.1790    2.8610 h1        1 SON      0.105700
     40 H1         -0.3170    6.0000    0.8540 ho        1 SON      0.482000
@<TRIPOS>BOND
     1    1    2 1   
     2    1    3 1   
     3    1    4 2   
     4    5    6 2   
     5    5   27 1   
     6    5   28 1   
     7    6    7 1   
     8    6    8 1   
     9    8    9 1   
    10    9   10 1   
    11    9   29 1   
    12    9   30 1   
    13   10   11 1   
    14   10   25 1   
    15   10   31 1   
    16   11   12 1   
    17   12   13 1   
    18   12   23 1   
    19   12   32 1   
    20   13   14 1   
    21   13   22 1   
    22   14   15 ar  
    23   14   20 ar  
    24   15   16 ar  
    25   16   17 ar  
    26   16   33 1   
    27   17   18 ar  
    28   18   19 1   
    29   18   20 ar  
    30   19   34 1   
    31   19   35 1   
    32   20   21 1   
    33   21   22 2   
    34   22   36 1   
    35   23   24 1   
    36   23   25 1   
    37   23   37 1   
    38   24   38 1   
    39   25   26 1   
    40   25   39 1   
    41   26   40 1   
@<TRIPOS>SUBSTRUCTURE
     1 SON         1 TEMP              0 ****  ****    0 ROOT
