@<TRIPOS>MOLECULE
SOO
   64    60     1     0     0
SMALL
bcc


@<TRIPOS>ATOM
      1 C1          1.8520   -1.9220   -5.0190 c1        1 SOO      0.102000
      2 O1          1.7510   -0.8220   -5.4550 o         1 SOO     -0.325000
      3 S1          2.3210   -2.1660   -3.3020 s         1 SOO      0.184000
      4 C2          1.7090   -3.1120   -5.9380 c2        1 SOO     -0.231000
      5 C3          0.5420   -3.3060   -6.6360 c1        1 SOO     -0.091000
      6 C4         -0.6190   -2.3120   -6.4830 c2        1 SOO     -0.148000
      7 C5         -1.6980   -2.6210   -7.5380 c3        1 SOO     -0.155000
      8 C6         -2.7510   -1.5340   -7.5210 c3        1 SOO     -0.159000
      9 C7         -3.8930   -1.9080   -8.5070 c3        1 SOO     -0.158000
     10 C8         -4.7440   -0.6880   -8.7840 c3        1 SOO     -0.209000
     11 O23        -1.4370    2.0270   10.6730 o         1 SOO     -1.001500
     12 P24        -2.6190    2.2720    9.7480 p3        1 SOO      2.538000
     13 O26        -3.4140    3.4690   10.2470 os        1 SOO     -1.151000
     14 O27        -2.0890    2.5650    8.2750 os        1 SOO     -0.761000
     15 C28        -1.1530    1.6340    7.6760 c3        1 SOO      0.056000
     16 O28        -3.5050    1.0510    9.7310 o         1 SOO     -1.001500
     17 C29        -0.7480    2.1360    6.2830 c3        1 SOO     -0.127000
     18 C30         0.0430    3.4530    6.4170 c3        1 SOO     -0.189500
     19 C31        -2.0300    2.3870    5.4260 c3        1 SOO     -0.189500
     20 C32         0.1140    1.0960    5.6110 c3        1 SOO      0.227000
     21 O33         1.2420    0.8220    6.4200 oh        1 SOO     -0.693000
     22 C34         0.5760    1.6140    4.2560 c2        1 SOO      0.219000
     23 O35        -0.0820    2.4430    3.6690 o         1 SOO     -0.503000
     24 N36         1.7990    1.1290    3.6820 n         1 SOO     -0.382000
     25 C37         1.8220    0.6560    2.3100 c3        1 SOO     -0.026000
     26 C38         3.2330    0.7460    1.7760 c3        1 SOO     -0.191000
     27 C39         3.5080   -0.4480    0.8280 c2        1 SOO      0.305000
     28 O40         3.6000   -1.5660    1.2760 o         1 SOO     -0.427000
     29 N41         3.7350   -0.2130   -0.5750 n         1 SOO     -0.355000
     30 C42         4.1080   -1.2960   -1.4340 c3        1 SOO     -0.021000
     31 C43         3.6160   -1.0050   -2.8670 c3        1 SOO     -0.320000
     32 H2          2.4430   -3.7410   -6.0350 ha        1 SOO      0.148000
     33 H3          0.4510   -4.0710   -7.2260 ha        1 SOO      0.114000
     34 H4         -0.2880   -1.4000   -6.6120 ha        1 SOO      0.114000
     35 H4A        -1.0040   -2.3970   -5.5910 ha        1 SOO      0.114000
     36 H5         -2.1190   -3.4870   -7.3320 hc        1 SOO      0.073500
     37 H5A        -1.2840   -2.6610   -8.4270 hc        1 SOO      0.073500
     38 H6         -3.1180   -1.4450   -6.6130 hc        1 SOO      0.083500
     39 H6A        -2.3460   -0.6830   -7.7960 hc        1 SOO      0.083500
     40 H7         -4.4520   -2.6140   -8.1060 hc        1 SOO      0.074500
     41 H7A        -3.5050   -2.2350   -9.3500 hc        1 SOO      0.074500
     42 H8         -5.5650   -0.9610   -9.2510 hc        1 SOO      0.068667
     43 H8A        -4.9790   -0.2520   -7.9350 hc        1 SOO      0.068667
     44 H8B        -4.2460   -0.0650   -9.3430 hc        1 SOO      0.068667
     45 H28        -1.5730    0.7600    7.5950 h1        1 SOO      0.063000
     46 H28A       -0.3490    1.5620    8.2460 h1        1 SOO      0.063000
     47 H30         0.8990    3.2780    6.8740 hc        1 SOO      0.060167
     48 H30A        0.2190    3.8210    5.5240 hc        1 SOO      0.060167
     49 H30B       -0.4810    4.0990    6.9400 hc        1 SOO      0.060167
     50 H31        -2.7390    2.7640    5.9990 hc        1 SOO      0.060167
     51 H31A       -2.3400    1.5330    5.0390 hc        1 SOO      0.060167
     52 H31B       -1.8220    3.0190    4.7030 hc        1 SOO      0.060167
     53 H32        -0.4060    0.2700    5.4860 h1        1 SOO     -0.007000
     54 HO33        1.1480    0.0030    6.8010 ho        1 SOO      0.222000
     55 HN36        2.5890    1.1410    4.1860 hn        1 SOO      0.234000
     56 H37         1.2330    1.2070    1.7650 h1        1 SOO      0.068000
     57 H37A        1.5250   -0.2610    2.2810 h1        1 SOO      0.068000
     58 H38         3.3430    1.5820    1.2860 hc        1 SOO      0.095500
     59 H38A        3.8580    0.7210    2.5160 hc        1 SOO      0.095500
     60 HN41        3.6870    0.6360   -0.9080 hn        1 SOO      0.267000
     61 H42         3.7020   -2.1220   -1.1110 h1        1 SOO      0.087500
     62 H42A        5.0920   -1.3910   -1.4370 h1        1 SOO      0.087500
     63 H43         4.3710   -1.1010   -3.5010 h1        1 SOO      0.159500
     64 H43A        3.2660   -0.0910   -2.9120 h1        1 SOO      0.159500
@<TRIPOS>BOND
     1    1    2 1   
     2    1    4 1   
     3    3   31 1   
     4    4    5 1   
     5    4   32 1   
     6    5   33 1   
     7    6    7 1   
     8    6   34 1   
     9    6   35 1   
    10    7    8 1   
    11    7   36 1   
    12    7   37 1   
    13    8    9 1   
    14    8   38 1   
    15    8   39 1   
    16    9   10 1   
    17    9   40 1   
    18    9   41 1   
    19   10   42 1   
    20   10   43 1   
    21   10   44 1   
    22   11   12 1   
    23   12   14 1   
    24   12   16 1   
    25   14   15 1   
    26   15   17 1   
    27   15   45 1   
    28   15   46 1   
    29   17   18 1   
    30   17   19 1   
    31   17   20 1   
    32   18   47 1   
    33   18   48 1   
    34   18   49 1   
    35   19   50 1   
    36   19   51 1   
    37   19   52 1   
    38   20   21 1   
    39   20   22 1   
    40   20   53 1   
    41   21   54 1   
    42   22   23 1   
    43   22   24 1   
    44   24   25 1   
    45   24   55 1   
    46   25   26 1   
    47   25   56 1   
    48   25   57 1   
    49   26   27 1   
    50   26   58 1   
    51   26   59 1   
    52   27   28 1   
    53   27   29 1   
    54   29   30 1   
    55   29   60 1   
    56   30   31 1   
    57   30   61 1   
    58   30   62 1   
    59   31   63 1   
    60   31   64 1   
@<TRIPOS>SUBSTRUCTURE
     1 SOO         1 TEMP              0 ****  ****    0 ROOT
