@<TRIPOS>MOLECULE
SOO
   64    63     1     0     0
SMALL
bcc


@<TRIPOS>ATOM
      1 C1         -4.8750    0.1340    1.0770 c         1 SOO      0.534900
      2 O1         -4.9600   -0.7850    1.9080 o         1 SOO     -0.560100
      3 S1         -3.4960    0.7360    0.2850 ss        1 SOO     -0.201700
      4 C2         -6.0520    0.9100    0.6360 ce        1 SOO     -0.230200
      5 C3         -7.2900    0.6430    1.0660 c2        1 SOO     -0.126200
      6 C4         -8.4860    1.4170    0.6570 c3        1 SOO     -0.052200
      7 C5         -9.6560    0.5060    0.3430 c3        1 SOO     -0.077400
      8 C6        -10.8790    1.3040   -0.0550 c3        1 SOO     -0.079400
      9 C7        -12.0500    0.3990   -0.3680 c3        1 SOO     -0.081400
     10 C8        -13.2710    1.1880   -0.7660 c3        1 SOO     -0.091100
     11 O23         1.5890   -0.1290    1.1940 o         1 SOO     -0.919833
     12 P24         2.0840    1.1170    0.4880 p5        1 SOO      1.338900
     13 O26         1.2750    2.3610    0.6460 o         1 SOO     -0.919833
     14 O27         3.5530    1.4230    1.2870 os        1 SOO     -0.574200
     15 O28         2.5350    0.7160   -0.9010 o         1 SOO     -0.919833
     16 C29         5.4200   -0.0820    0.7140 c3        1 SOO     -0.107000
     17 C30         6.8910    0.1710    1.0440 c3        1 SOO     -0.089600
     18 C31         4.7900   -0.8390    1.8720 c3        1 SOO     -0.089600
     19 C32         5.3930   -0.9400   -0.5780 c3        1 SOO      0.125100
     20 O33         5.1060   -0.2450   -1.7640 oh        1 SOO     -0.654800
     21 C34         4.5220   -2.2100   -0.4460 c         1 SOO      0.631100
     22 O35         5.1060   -3.3170   -0.2820 o         1 SOO     -0.722100
     23 N36         3.1680   -2.1160   -0.6100 n         1 SOO     -0.536900
     24 C37         2.3090   -3.2510   -0.4210 c3        1 SOO      0.107000
     25 C38         1.3790   -3.1720    0.7950 c3        1 SOO     -0.189400
     26 C39        -0.0580   -2.9000    0.3900 c         1 SOO      0.658100
     27 O40        -0.9390   -3.7920    0.4950 o         1 SOO     -0.708100
     28 N41        -0.3190   -1.6560   -0.1440 n         1 SOO     -0.540900
     29 C42        -1.6580   -1.1700   -0.2910 c3        1 SOO      0.101000
     30 C43        -2.1090   -0.2270    0.8250 c3        1 SOO     -0.056300
     31 H2         -5.8420    1.7280   -0.0750 ha        1 SOO      0.142000
     32 H3         -7.4670   -0.1840    1.7760 ha        1 SOO      0.139000
     33 H4         -8.7680    2.1100    1.4970 hc        1 SOO      0.045700
     34 H4A        -8.2590    2.0580   -0.2370 hc        1 SOO      0.045700
     35 H5         -9.3740   -0.1930   -0.4880 hc        1 SOO      0.044200
     36 H5A        -9.8930   -0.1260    1.2400 hc        1 SOO      0.044200
     37 H6        -11.1570    2.0060    0.7750 hc        1 SOO      0.037700
     38 H6A       -10.6400    1.9340   -0.9530 hc        1 SOO      0.037700
     39 H7        -11.7680   -0.3030   -1.1970 hc        1 SOO      0.039200
     40 H7A       -12.2850   -0.2320    0.5300 hc        1 SOO      0.039200
     41 H8        -13.5810    1.8750    0.0580 hc        1 SOO      0.028033
     42 H8A       -13.0620    1.8040   -1.6750 hc        1 SOO      0.028033
     43 H8B       -14.1220    0.5020   -0.9930 hc        1 SOO      0.028033
     44 H28         4.5460    1.5500   -0.5120 h1        1 SOO      0.004200
     45 H28A        5.4380    2.0830    0.9810 h1        1 SOO      0.004200
     46 H30         6.9780    0.7810    1.9750 hc        1 SOO      0.029533
     47 H30A        7.4290   -0.7940    1.2060 hc        1 SOO      0.029533
     48 H30B        7.3860    0.7220    0.2080 hc        1 SOO      0.029533
     49 H31         3.6670   -0.8190    1.7610 hc        1 SOO      0.029533
     50 H31A        5.1620   -1.8900    1.9190 hc        1 SOO      0.029533
     51 H31B        5.0360   -0.3260    2.8330 hc        1 SOO      0.029533
     52 H32         6.4400   -1.3380   -0.7620 h1        1 SOO      0.044700
     53 HO33        4.1880    0.0990   -1.7290 ho        1 SOO      0.488000
     54 HN36        2.7340   -1.1880   -0.5620 hn        1 SOO      0.399500
     55 H37         1.6870   -3.3630   -1.3560 h1        1 SOO      0.036700
     56 H37A        2.9420   -4.1810   -0.3210 h1        1 SOO      0.036700
     57 H38         1.4010   -4.1480    1.3420 hc        1 SOO      0.092700
     58 H38A        1.7060   -2.3450    1.4950 hc        1 SOO      0.092700
     59 HN41        0.4030   -0.9400    0.0380 hn        1 SOO      0.395500
     60 H42        -1.7020   -0.6030   -1.2670 h1        1 SOO      0.046200
     61 H42A       -2.3740   -2.0390   -0.3500 h1        1 SOO      0.046200
     62 H43        -1.2970    0.5150    1.0700 h1        1 SOO      0.120700
     63 H43A       -2.3580   -0.7960    1.7520 h1        1 SOO      0.120700
     64 C28         4.7210    1.3060    0.5710 c3        1 SOO      0.226400
@<TRIPOS>BOND
     1    1    2 2   
     2    1    3 1   
     3    1    4 1   
     4    3   30 1   
     5    4    5 2   
     6    4   31 1   
     7    5    6 1   
     8    5   32 1   
     9    6    7 1   
    10    6   33 1   
    11    6   34 1   
    12    7    8 1   
    13    7   35 1   
    14    7   36 1   
    15    8    9 1   
    16    8   37 1   
    17    8   38 1   
    18    9   10 1   
    19    9   39 1   
    20    9   40 1   
    21   10   41 1   
    22   10   42 1   
    23   10   43 1   
    24   11   12 1   
    25   12   13 1   
    26   12   14 1   
    27   12   15 1   
    28   14   64 1   
    29   16   17 1   
    30   16   18 1   
    31   16   19 1   
    32   16   64 1   
    33   17   46 1   
    34   17   47 1   
    35   17   48 1   
    36   18   49 1   
    37   18   50 1   
    38   18   51 1   
    39   19   20 1   
    40   19   21 1   
    41   19   52 1   
    42   20   53 1   
    43   21   22 2   
    44   21   23 1   
    45   23   24 1   
    46   23   54 1   
    47   24   25 1   
    48   24   55 1   
    49   24   56 1   
    50   25   26 1   
    51   25   57 1   
    52   25   58 1   
    53   26   27 2   
    54   26   28 1   
    55   28   29 1   
    56   28   59 1   
    57   29   30 1   
    58   29   60 1   
    59   29   61 1   
    60   30   62 1   
    61   30   63 1   
    62   44   64 1   
    63   45   64 1   
@<TRIPOS>SUBSTRUCTURE
     1 SOO         1 TEMP              0 ****  ****    0 ROOT
