@<TRIPOS>MOLECULE
SOR
   26    25     1     0     0
SMALL
bcc


@<TRIPOS>ATOM
      1 C1          0.9060   -0.1130    3.0180 c3        1 SOR      0.095900
      2 C2         -0.0400    0.3030    1.8880 c3        1 SOR      0.127600
      3 C3          0.4730   -0.2420    0.5440 c3        1 SOR      0.117100
      4 C4         -0.3950    0.2690   -0.6200 c3        1 SOR      0.117100
      5 C5          0.3580    0.0920   -1.9500 c3        1 SOR      0.127600
      6 C6         -0.5600    0.4020   -3.1340 c3        1 SOR      0.095900
      7 O1          0.2860    0.2970    4.2270 oh        1 SOR     -0.618300
      8 O2         -1.3380   -0.2410    2.0880 oh        1 SOR     -0.621300
      9 O3          0.5270   -1.6530    0.5640 oh        1 SOR     -0.600300
     10 O4         -1.5890   -0.4910   -0.7270 oh        1 SOR     -0.600300
     11 O5          1.4520    0.9980   -1.9070 oh        1 SOR     -0.621300
     12 O6          0.2390    0.2690   -4.3010 oh        1 SOR     -0.618300
     13 H11         1.8960    0.4000    2.9010 h1        1 SOR      0.046200
     14 H12         1.0500   -1.2260    3.0030 h1        1 SOR      0.046200
     15 H2         -0.1150    1.4250    1.8500 h1        1 SOR      0.062700
     16 H3          1.5390    0.0910    0.3910 h1        1 SOR      0.079700
     17 H4         -0.6360    1.3560   -0.4620 h1        1 SOR      0.079700
     18 H5          0.7440   -0.9630   -2.0290 h1        1 SOR      0.062700
     19 H61        -1.4150   -0.3250   -3.1510 h1        1 SOR      0.046200
     20 H62        -0.9540    1.4500   -3.0600 h1        1 SOR      0.046200
     21 HO1         0.7950   -0.0920    4.9470 ho        1 SOR      0.410500
     22 HO2        -1.5840   -0.0600    3.0050 ho        1 SOR      0.429500
     23 HO3        -0.3880   -1.9720    0.5730 ho        1 SOR      0.424500
     24 HO4        -2.0850   -0.3490    0.0910 ho        1 SOR      0.424500
     25 HO5         1.8610    0.9710   -2.7830 ho        1 SOR      0.429500
     26 HO6        -0.3450    0.4050   -5.0540 ho        1 SOR      0.410500
@<TRIPOS>BOND
     1    1    2 1   
     2    1    7 1   
     3    1   13 1   
     4    1   14 1   
     5    2    3 1   
     6    2    8 1   
     7    2   15 1   
     8    3    4 1   
     9    3    9 1   
    10    3   16 1   
    11    4    5 1   
    12    4   10 1   
    13    4   17 1   
    14    5    6 1   
    15    5   11 1   
    16    5   18 1   
    17    6   12 1   
    18    6   19 1   
    19    6   20 1   
    20    7   21 1   
    21    8   22 1   
    22    9   23 1   
    23   10   24 1   
    24   11   25 1   
    25   12   26 1   
@<TRIPOS>SUBSTRUCTURE
     1 SOR         1 TEMP              0 ****  ****    0 ROOT
