@<TRIPOS>MOLECULE
SOR
   26    25     1     0     0
SMALL
bcc


@<TRIPOS>ATOM
      1 C1          0.0190    0.1260   -0.0090 c3        1 SOR      0.095900
      2 C2          1.5490    0.0780    0.0130 c3        1 SOR      0.127600
      3 C3          2.0480   -0.1430    1.4510 c3        1 SOR      0.117100
      4 C4          3.5840   -0.0690    1.5140 c3        1 SOR      0.117100
      5 C5          4.0380    0.1460    2.9690 c3        1 SOR      0.127600
      6 C6          5.5590    0.0180    3.0830 c3        1 SOR      0.095900
      7 O1         -0.3570    0.1810   -1.3770 oh        1 SOR     -0.618300
      8 O2          2.0340   -1.0070   -0.7660 oh        1 SOR     -0.621300
      9 O3          1.5720   -1.3700    1.9630 oh        1 SOR     -0.600300
     10 O4          4.1640   -1.2920    1.0870 oh        1 SOR     -0.600300
     11 O5          3.6110    1.4540    3.3250 oh        1 SOR     -0.621300
     12 O6          5.8780    0.2910    4.4390 oh        1 SOR     -0.618300
     13 H11        -0.3970   -0.7940    0.4810 h1        1 SOR      0.046200
     14 H12        -0.3470    1.0410    0.5270 h1        1 SOR      0.046200
     15 H2          1.9650    1.0400   -0.3990 h1        1 SOR      0.062700
     16 H3          1.6080    0.6480    2.1230 h1        1 SOR      0.079700
     17 H4          3.9480    0.7800    0.8730 h1        1 SOR      0.079700
     18 H5          3.5390   -0.6100    3.6360 h1        1 SOR      0.062700
     19 H61         6.0650    0.7640    2.4150 h1        1 SOR      0.046200
     20 H62         5.8740   -1.0200    2.7990 h1        1 SOR      0.046200
     21 HO1        -1.3130    0.0580   -1.4080 ho        1 SOR      0.410500
     22 HO2         1.5720   -0.9780   -1.6140 ho        1 SOR      0.429500
     23 HO3         2.0290   -2.0750    1.4820 ho        1 SOR      0.424500
     24 HO4         3.9150   -1.4110    0.1600 ho        1 SOR      0.424500
     25 HO5         3.9910    1.6350    4.1950 ho        1 SOR      0.429500
     26 HO6         6.8280    0.1560    4.5330 ho        1 SOR      0.410500
@<TRIPOS>BOND
     1    1    2 1   
     2    1    7 1   
     3    1   13 1   
     4    1   14 1   
     5    2    3 1   
     6    2    8 1   
     7    2   15 1   
     8    3    4 1   
     9    3    9 1   
    10    3   16 1   
    11    4    5 1   
    12    4   10 1   
    13    4   17 1   
    14    5    6 1   
    15    5   11 1   
    16    5   18 1   
    17    6   12 1   
    18    6   19 1   
    19    6   20 1   
    20    7   21 1   
    21    8   22 1   
    22    9   23 1   
    23   10   24 1   
    24   11   25 1   
    25   12   26 1   
@<TRIPOS>SUBSTRUCTURE
     1 SOR         1 TEMP              0 ****  ****    0 ROOT
