@<TRIPOS>MOLECULE
SOR
   26    25     1     0     0
SMALL
bcc


@<TRIPOS>ATOM
      1 C1          0.0290    0.1370   -0.0260 c3        1 SOR      0.095900
      2 C2          1.5590    0.0910    0.0060 c3        1 SOR      0.127600
      3 C3          2.0480   -0.1440    1.4460 c3        1 SOR      0.117100
      4 C4          3.5840   -0.0690    1.5200 c3        1 SOR      0.117100
      5 C5          4.0270    0.1320    2.9800 c3        1 SOR      0.127600
      6 C6          5.5470    0.0050    3.1030 c3        1 SOR      0.095900
      7 O1         -0.3380    0.2050   -1.3960 oh        1 SOR     -0.618300
      8 O2          2.0510   -0.9840   -0.7810 oh        1 SOR     -0.621300
      9 O3          1.5710   -1.3770    1.9410 oh        1 SOR     -0.600300
     10 O4          4.1680   -1.2860    1.0840 oh        1 SOR     -0.600300
     11 O5          3.5950    1.4350    3.3470 oh        1 SOR     -0.621300
     12 O6          5.8570    0.2640    4.4650 oh        1 SOR     -0.618300
     13 H11        -0.3890   -0.7900    0.4510 h1        1 SOR      0.046200
     14 H12        -0.3430    1.0450    0.5170 h1        1 SOR      0.046200
     15 H2          1.9750    1.0580   -0.3930 h1        1 SOR      0.062700
     16 H3          1.6010    0.6380    2.1230 h1        1 SOR      0.079700
     17 H4          3.9500    0.7880    0.8910 h1        1 SOR      0.079700
     18 H5          3.5240   -0.6320    3.6360 h1        1 SOR      0.062700
     19 H61         6.0570    0.7600    2.4470 h1        1 SOR      0.046200
     20 H62         5.8660   -1.0290    2.8110 h1        1 SOR      0.046200
     21 HO1        -1.2930    0.0810   -1.4350 ho        1 SOR      0.410500
     22 HO2         1.5950   -0.9470   -1.6320 ho        1 SOR      0.429500
     23 HO3         2.0330   -2.0760    1.4550 ho        1 SOR      0.424500
     24 HO4         3.9260   -1.3950    0.1530 ho        1 SOR      0.424500
     25 HO5         3.9690    1.6070    4.2210 ho        1 SOR      0.429500
     26 HO6         6.8060    0.1300    4.5640 ho        1 SOR      0.410500
@<TRIPOS>BOND
     1    1    2 1   
     2    1    7 1   
     3    1   13 1   
     4    1   14 1   
     5    2    3 1   
     6    2    8 1   
     7    2   15 1   
     8    3    4 1   
     9    3    9 1   
    10    3   16 1   
    11    4    5 1   
    12    4   10 1   
    13    4   17 1   
    14    5    6 1   
    15    5   11 1   
    16    5   18 1   
    17    6   12 1   
    18    6   19 1   
    19    6   20 1   
    20    7   21 1   
    21    8   22 1   
    22    9   23 1   
    23   10   24 1   
    24   11   25 1   
    25   12   26 1   
@<TRIPOS>SUBSTRUCTURE
     1 SOR         1 TEMP              0 ****  ****    0 ROOT
