@<TRIPOS>MOLECULE
SOS
   53    55     1     0     0
SMALL
bcc


@<TRIPOS>ATOM
      1 OP3        -0.0810    1.1020   -1.8620 o         1 SOS     -0.931833
      2 C15         2.2950   -0.0960   -0.2250 ca        1 SOS     -0.123000
      3 C14         3.6500    0.1550   -0.0110 ca        1 SOS     -0.164500
      4 C13         4.3540   -0.5550    0.9620 ca        1 SOS     -0.155000
      5 C12         3.7010   -1.5220    1.7240 ca        1 SOS     -0.164500
      6 C11         2.3470   -1.7830    1.5120 ca        1 SOS     -0.123000
      7 C10         1.6400   -1.0730    0.5380 ca        1 SOS     -0.088300
      8 C9          0.2000   -1.3770    0.2230 c3        1 SOS      0.090300
      9 C8         -0.9870   -2.0210    2.3030 c         1 SOS      0.671900
     10 O8         -0.3230   -3.0620    2.5050 o         1 SOS     -0.688100
     11 C5         -1.6890   -0.0870    1.0870 cc        1 SOS     -0.308600
     12 C6         -2.9050   -0.4170    0.3430 c         1 SOS      0.729700
     13 O6         -3.3200   -1.5740    0.0990 o         1 SOS     -0.705500
     14 N1         -3.7090    0.6590   -0.1030 n         1 SOS     -0.464400
     15 C2         -3.3790    1.9740    0.2720 cc        1 SOS      0.802800
     16 N2         -4.2570    3.0220   -0.1690 nh        1 SOS     -0.854800
     17 N3         -2.4020    2.2490    1.1720 nd        1 SOS     -0.770300
     18 C4         -1.4180    1.2850    1.3440 cd        1 SOS      0.491600
     19 N9         -0.1570    1.6870    1.8260 nh        1 SOS     -0.708000
     20 C1'         0.1940    3.1040    1.8070 c3        1 SOS      0.212500
     21 C6'        -0.1170    3.8980    0.5210 c3        1 SOS     -0.098400
     22 C2'         1.7080    3.3210    2.0370 c3        1 SOS     -0.087400
     23 C3'         2.3120    3.6030    0.6590 c3        1 SOS      0.127100
     24 O3'         3.3800    4.5340    0.8310 oh        1 SOS     -0.634800
     25 C4'         1.1830    4.1540   -0.2260 c3        1 SOS     -0.129700
     26 C5'         1.1820    3.5050   -1.6280 c3        1 SOS      0.218400
     27 O5'        -0.0350    3.6090   -2.2490 os        1 SOS     -0.570200
     28 P          -0.9300    2.1590   -2.5230 p5        1 SOS      1.361900
     29 OP2        -2.2100    2.4280   -1.7500 o         1 SOS     -0.931833
     30 OP1        -1.0540    2.1300   -4.0100 o         1 SOS     -0.931833
     31 H13         5.4200   -0.3490    1.1290 ha        1 SOS      0.097000
     32 H12         4.2520   -2.0800    2.4940 ha        1 SOS      0.108500
     33 H11         1.8250   -2.5490    2.1090 ha        1 SOS      0.199000
     34 H91        -0.1090   -0.7420   -0.6760 h1        1 SOS      0.105700
     35 H92         0.1350   -2.4700   -0.0480 h1        1 SOS      0.105700
     36 H8         -1.8380   -1.7360    2.9670 h5        1 SOS      0.015200
     37 HN1        -4.2150    0.5200   -0.9500 hn        1 SOS      0.328500
     38 HN21       -3.8770    3.9110    0.1030 hn        1 SOS      0.402300
     39 HN22       -4.2680    2.9910   -1.1830 hn        1 SOS      0.402300
     40 HN9         0.5700    1.1150    1.4280 hn        1 SOS      0.423800
     41 H1'        -0.3790    3.5650    2.6640 h1        1 SOS      0.039700
     42 H6'1       -0.5970    4.8650    0.8120 hc        1 SOS      0.082200
     43 H6'2       -0.8290    3.3700   -0.1810 hc        1 SOS      0.082200
     44 H2'         1.8500    4.2100    2.7010 hc        1 SOS      0.041700
     45 H2''        2.2110    2.4500    2.5210 hc        1 SOS      0.041700
     46 H3'         2.7410    2.6550    0.2230 h1        1 SOS      0.051700
     47 HO3'        3.5570    4.8980   -0.0430 ho        1 SOS      0.393000
     48 H4'         1.3230    5.2610   -0.3540 hc        1 SOS      0.023700
     49 H5'         1.5020    2.4270   -1.5420 h1        1 SOS     -0.002300
     50 H5''        1.9600    4.0600   -2.2370 h1        1 SOS     -0.002300
     51 H15         1.7070    0.4630   -0.9960 ha        1 SOS      0.199000
     52 N7         -0.7380   -1.1170    1.3010 n         1 SOS     -0.321000
     53 H14         4.1600    0.9220   -0.6110 ha        1 SOS      0.108500
@<TRIPOS>BOND
     1    1   28 1   
     2    2    3 ar  
     3    2    7 ar  
     4    2   51 1   
     5    3    4 ar  
     6    3   53 1   
     7    4    5 ar  
     8    4   31 1   
     9    5    6 ar  
    10    5   32 1   
    11    6    7 ar  
    12    6   33 1   
    13    7    8 1   
    14    8   34 1   
    15    8   35 1   
    16    8   52 1   
    17    9   10 2   
    18    9   36 1   
    19    9   52 1   
    20   11   12 1   
    21   11   18 2   
    22   11   52 1   
    23   12   13 2   
    24   12   14 1   
    25   14   15 1   
    26   14   37 1   
    27   15   16 1   
    28   15   17 2   
    29   16   38 1   
    30   16   39 1   
    31   17   18 1   
    32   18   19 1   
    33   19   20 1   
    34   19   40 1   
    35   20   21 1   
    36   20   22 1   
    37   20   41 1   
    38   21   25 1   
    39   21   42 1   
    40   21   43 1   
    41   22   23 1   
    42   22   44 1   
    43   22   45 1   
    44   23   24 1   
    45   23   25 1   
    46   23   46 1   
    47   24   47 1   
    48   25   26 1   
    49   25   48 1   
    50   26   27 1   
    51   26   49 1   
    52   26   50 1   
    53   27   28 1   
    54   28   29 1   
    55   28   30 1   
@<TRIPOS>SUBSTRUCTURE
     1 SOS         1 TEMP              0 ****  ****    0 ROOT
