@<TRIPOS>MOLECULE
SOT
   18    18     1     0     0
SMALL
bcc


@<TRIPOS>ATOM
      1 O1         -2.9880   -0.0000    0.0550 os        1 SOT     -0.441600
      2 C2         -2.2350   -1.1870    0.2940 c3        1 SOT      0.111400
      3 C3         -0.9040   -1.2000   -0.4740 c3        1 SOT      0.212800
      4 N4         -0.1460    0.0000   -0.3220 n3        1 SOT     -0.796500
      5 C5         -0.9040    1.2000   -0.4730 c3        1 SOT      0.212800
      6 C6         -2.2350    1.1870    0.2940 c3        1 SOT      0.111400
      7 S           1.5240    0.0000    0.0550 s6        1 SOT      1.533700
      8 O1S         1.7470    1.1910    0.8050 o         1 SOT     -0.743200
      9 O2S         1.7470   -1.1910    0.8040 o         1 SOT     -0.743200
     10 H21        -2.0580   -1.2900    1.3970 h1        1 SOT      0.032200
     11 H22        -2.9030   -2.0120   -0.0640 h1        1 SOT      0.032200
     12 H31        -0.2860   -2.0670   -0.1030 h1        1 SOT      0.038700
     13 H32        -1.1440   -1.3740   -1.5650 h1        1 SOT      0.038700
     14 H51        -0.2860    2.0670   -0.1030 h1        1 SOT      0.038700
     15 H52        -1.1440    1.3750   -1.5640 h1        1 SOT      0.038700
     16 H61        -2.9030    2.0120   -0.0640 h1        1 SOT      0.032200
     17 H62        -2.0580    1.2890    1.3980 h1        1 SOT      0.032200
     18 O4          2.2290    0.0000   -1.1770 o         1 SOT     -0.743200
@<TRIPOS>BOND
     1    1    2 1   
     2    1    6 1   
     3    2    3 1   
     4    2   10 1   
     5    2   11 1   
     6    3    4 1   
     7    3   12 1   
     8    3   13 1   
     9    4    5 1   
    10    4    7 1   
    11    5    6 1   
    12    5   14 1   
    13    5   15 1   
    14    6   16 1   
    15    6   17 1   
    16    7    8 1   
    17    7    9 1   
    18    7   18 1   
@<TRIPOS>SUBSTRUCTURE
     1 SOT         1 TEMP              0 ****  ****    0 ROOT
