@<TRIPOS>MOLECULE
SOT
   18    16     1     0     0
SMALL
bcc


@<TRIPOS>ATOM
      1 O1          0.0700   -0.3850   -0.4780 os        1 SOT     -0.370900
      2 C2          1.4540   -0.3370   -0.1140 c3        1 SOT      0.100700
      3 C3          2.4190    0.4990    3.0780 c1        1 SOT     -0.128500
      4 N4          2.4900   -0.5360    3.8500 n7        1 SOT     -0.490900
      5 C5         -1.9830   -1.3700    0.0450 c2        1 SOT     -0.361000
      6 C6         -0.6700   -1.2600    0.2930 c2        1 SOT      0.047100
      7 S           2.6620   -2.1650    3.1870 s6        1 SOT      1.532700
      8 O1S         2.4540   -2.9580    4.3450 o         1 SOT     -0.729533
      9 O2S         1.6490   -2.3260    2.2160 o         1 SOT     -0.729533
     10 H21         1.5760    0.0070    0.9470 h1        1 SOT      0.055700
     11 H22         1.8920    0.3960   -0.8340 h1        1 SOT      0.055700
     12 H31         1.9170   -1.3470   -0.2320 h1        1 SOT      0.055700
     13 H32         2.3140    1.5020    3.5510 ha        1 SOT     -0.059500
     14 H51         2.4530   -0.4700    4.8480 hn        1 SOT      0.344800
     15 H52        -2.6050   -2.0530    0.6300 ha        1 SOT      0.104000
     16 H61        -2.4910   -0.7950   -0.7350 ha        1 SOT      0.104000
     17 H62        -0.1150   -1.8200    1.0720 h4        1 SOT      0.200000
     18 O4          3.9730   -2.2570    2.6820 o         1 SOT     -0.729533
@<TRIPOS>BOND
     1    1    2 1   
     2    1    6 1   
     3    2   10 1   
     4    2   11 1   
     5    2   12 1   
     6    3    4 3   
     7    3   13 1   
     8    4    7 1   
     9    4   14 1   
    10    5    6 2   
    11    5   15 1   
    12    5   16 1   
    13    6   17 1   
    14    7    8 1   
    15    7    9 1   
    16    7   18 1   
@<TRIPOS>SUBSTRUCTURE
     1 SOT         1 TEMP              0 ****  ****    0 ROOT
