@<TRIPOS>MOLECULE
SOT
   18    16     1     0     0
SMALL
bcc


@<TRIPOS>ATOM
      1 O1          0.0070   -0.4530   -0.4510 os        1 SOT     -0.370900
      2 C2          1.4020   -0.4020   -0.1310 c3        1 SOT      0.100700
      3 C3          2.4640    0.4640    3.0220 c1        1 SOT     -0.128500
      4 N4          2.5600   -0.5640    3.8010 n3        1 SOT     -0.490900
      5 C5         -2.0290   -1.4320    0.1450 c2        1 SOT     -0.361000
      6 C6         -0.7090   -1.3200    0.3500 c2        1 SOT      0.047100
      7 S           2.7110   -2.1990    3.1470 s6        1 SOT      1.532700
      8 O1S         2.5390   -2.9820    4.3180 o         1 SOT     -0.729533
      9 O2S         1.6690   -2.3690    2.2100 o         1 SOT     -0.729533
     10 H21         1.5570   -0.0480    0.9230 h1        1 SOT      0.055700
     11 H22         1.8610   -1.4130   -0.2530 h1        1 SOT      0.055700
     12 H31         1.8170    0.3250   -0.8710 h1        1 SOT      0.055700
     13 H32         2.3730    1.4710    3.4900 ha        1 SOT     -0.059500
     14 H51         2.5530   -0.4890    4.7990 hn        1 SOT      0.344800
     15 H52        -2.6320   -2.1100    0.7550 ha        1 SOT      0.104000
     16 H61        -2.5610   -0.8640   -0.6240 ha        1 SOT      0.104000
     17 H62        -0.1290   -1.8730    1.1170 h4        1 SOT      0.200000
     18 O4          4.0070   -2.2960    2.6030 o         1 SOT     -0.729533
@<TRIPOS>BOND
     1    1    2 1   
     2    1    6 1   
     3    2   10 1   
     4    2   11 1   
     5    2   12 1   
     6    3    4 3   
     7    3   13 1   
     8    4    7 1   
     9    4   14 1   
    10    5    6 2   
    11    5   15 1   
    12    5   16 1   
    13    6   17 1   
    14    7    8 1   
    15    7    9 1   
    16    7   18 1   
@<TRIPOS>SUBSTRUCTURE
     1 SOT         1 TEMP              0 ****  ****    0 ROOT
