@<TRIPOS>MOLECULE
SOT
   18    17     1     0     0
SMALL
bcc


@<TRIPOS>ATOM
      1 O1          0.4020   -0.2720   -0.6530 os        1 SOT      0.084000
      2 C2          1.4570   -0.9880   -0.9740 c2        1 SOT     -0.336000
      3 C3          1.1490    0.2320    3.0540 c3        1 SOT     -0.042000
      4 N4          1.2090   -1.0270    2.4010 n3        1 SOT     -0.824000
      5 C5          0.0970   -1.3640    1.5690 c3        1 SOT      0.051000
      6 C6         -0.2520   -0.4060    0.4930 c2        1 SOT     -0.357000
      7 S           2.4720   -2.1440    2.6790 s6        1 SOT      2.835000
      8 O1S         1.9670   -3.1330    3.5650 o         1 SOT     -1.067667
      9 O2S         2.7820   -2.6910    1.3950 o         1 SOT     -1.067667
     10 H21         1.0010    1.0710    2.3180 h1        1 SOT      0.049333
     11 H22         1.8000   -0.7720   -1.9910 h4        1 SOT      0.173000
     12 H31         1.9480   -1.6900   -0.2890 h4        1 SOT      0.173000
     13 H32         2.1080    0.4080    3.6120 h1        1 SOT      0.049333
     14 H51         0.2920    0.2800    3.7860 h1        1 SOT      0.049333
     15 H52        -0.8390   -1.4740    2.2000 h1        1 SOT      0.075000
     16 H61         0.3180   -2.3710    1.0980 h1        1 SOT      0.075000
     17 H62        -1.0530    0.3340    0.5770 h4        1 SOT      0.148000
     18 O4          3.5470   -1.3990    3.2430 o         1 SOT     -1.067667
@<TRIPOS>BOND
     1    1    2 1   
     2    1    6 1   
     3    2   11 1   
     4    2   12 1   
     5    3    4 1   
     6    3   10 1   
     7    3   13 1   
     8    3   14 1   
     9    4    5 1   
    10    4    7 1   
    11    5    6 1   
    12    5   15 1   
    13    5   16 1   
    14    6   17 1   
    15    7    8 1   
    16    7    9 1   
    17    7   18 1   
@<TRIPOS>SUBSTRUCTURE
     1 SOT         1 TEMP              0 ****  ****    0 ROOT
