@<TRIPOS>MOLECULE
SOX
   44    46     1     0     0
SMALL
bcc


@<TRIPOS>ATOM
      1 O8          0.7450    1.8750   -0.8400 o         1 SOX     -0.568500
      2 C7          1.5500    1.0970   -0.3450 c         1 SOX      0.675500
      3 N4          1.8040    0.4600    0.8840 n         1 SOX     -0.280800
      4 C3          2.0180    1.1150    2.1620 c3        1 SOX     -0.097300
      5 C11         1.9410    0.0040    3.3190 c         1 SOX      0.949600
      6 O13         1.0650    0.1900    4.1820 o         1 SOX     -0.788300
      7 O12         2.8030   -0.9100    3.2360 o         1 SOX     -0.788300
      8 C2          3.4390    1.7520    2.2010 c3        1 SOX      0.077800
      9 C10         3.9050    1.9240    3.6270 c3        1 SOX     -0.083600
     10 C9          3.4640    3.0870    1.4940 c3        1 SOX     -0.083600
     11 S1          4.4490    0.5980    1.2480 s6        1 SOX     -0.296700
     12 C5          3.0570   -0.1940    0.3990 cy        1 SOX      0.105500
     13 C6          2.7340    0.2960   -1.0410 cy        1 SOX     -0.033500
     14 N14         3.7620    1.1330   -1.7020 n4        1 SOX     -0.650800
     15 C15         3.4510    1.3400   -3.1590 c         1 SOX      0.559100
     16 O16         3.9420    0.5330   -3.9370 o         1 SOX     -0.440100
     17 C17         2.5640    2.5100   -3.4890 c3        1 SOX     -0.106100
     18 C18         3.1430    3.7940   -3.0150 ca        1 SOX     -0.151300
     19 C19         2.5960    4.4360   -1.8970 ca        1 SOX     -0.117000
     20 C20         3.1070    5.6660   -1.4820 ca        1 SOX     -0.122500
     21 C21         4.1620    6.2570   -2.1770 ca        1 SOX     -0.101000
     22 C22         4.7050    5.6210   -3.2940 ca        1 SOX     -0.122500
     23 C23         4.1960    4.3940   -3.7160 ca        1 SOX     -0.117000
     24 O5          5.6700    1.4100    0.2570 oh        1 SOX     -0.732700
     25 H3          1.2250    1.8850    2.3450 h1        1 SOX      0.102700
     26 H101        4.8580    2.5070    3.6570 hc        1 SOX      0.048867
     27 H102        3.1290    2.4760    4.2150 hc        1 SOX      0.048867
     28 H103        4.0590    0.9310    4.1220 hc        1 SOX      0.048867
     29 H9C1        2.8920    3.0530    0.5320 hc        1 SOX      0.048867
     30 H9C2        4.5160    3.3930    1.2680 hc        1 SOX      0.048867
     31 H9C3        2.9970    3.8710    2.1400 hc        1 SOX      0.048867
     32 HS          4.9230   -0.1960    2.1450 hs        1 SOX      0.287800
     33 H5          3.0210   -1.2960    0.5430 h2        1 SOX      0.151700
     34 H6          2.4040   -0.5130   -1.7390 hx        1 SOX      0.122700
     35 H14         4.6860    0.6780   -1.5880 hn        1 SOX      0.479800
     36 H171        1.5510    2.3320   -3.0180 hc        1 SOX      0.123200
     37 H172        2.4330    2.5260   -4.6070 hc        1 SOX      0.123200
     38 H19         1.7480    3.9790   -1.3560 ha        1 SOX      0.150000
     39 H20         2.6700    6.1700   -0.6060 ha        1 SOX      0.148500
     40 H21         4.5630    7.2280   -1.8480 ha        1 SOX      0.147000
     41 H22         5.5330    6.0890   -3.8480 ha        1 SOX      0.148500
     42 H23         4.6150    3.9030   -4.6080 ha        1 SOX      0.150000
     43 HO5         6.5230    1.5360    0.6490 ho        1 SOX      0.408000
     44 H142        3.8240    2.0490   -1.2270 hn        1 SOX      0.479800
@<TRIPOS>BOND
     1    1    2 2   
     2    2    3 1   
     3    2   13 1   
     4    3    4 1   
     5    3   12 1   
     6    4    5 1   
     7    4    8 1   
     8    4   25 1   
     9    5    6 1   
    10    5    7 1   
    11    8    9 1   
    12    8   10 1   
    13    8   11 1   
    14    9   26 1   
    15    9   27 1   
    16    9   28 1   
    17   10   29 1   
    18   10   30 1   
    19   10   31 1   
    20   11   12 1   
    21   11   24 1   
    22   11   32 1   
    23   12   13 1   
    24   12   33 1   
    25   13   14 1   
    26   13   34 1   
    27   14   15 1   
    28   14   35 1   
    29   14   44 1   
    30   15   16 2   
    31   15   17 1   
    32   17   18 1   
    33   17   36 1   
    34   17   37 1   
    35   18   19 ar  
    36   18   23 ar  
    37   19   20 ar  
    38   19   38 1   
    39   20   21 ar  
    40   20   39 1   
    41   21   22 ar  
    42   21   40 1   
    43   22   23 ar  
    44   22   41 1   
    45   23   42 1   
    46   24   43 1   
@<TRIPOS>SUBSTRUCTURE
     1 SOX         1 TEMP              0 ****  ****    0 ROOT
