@<TRIPOS>MOLECULE
SOX
   44    46     1     0     0
SMALL
bcc


@<TRIPOS>ATOM
      1 O8          0.7730    1.7700   -0.8780 o         1 SOX     -0.568500
      2 C7          1.5980    1.0300   -0.3600 c         1 SOX      0.675500
      3 N4          1.8550    0.4180    0.8820 n         1 SOX     -0.280800
      4 C3          2.0220    1.0960    2.1540 c3        1 SOX     -0.097300
      5 C11         1.9680   -0.0020    3.3240 c         1 SOX      0.949600
      6 O13         1.0710    0.1620    4.1700 o         1 SOX     -0.788300
      7 O12         2.8640   -0.8850    3.2680 o         1 SOX     -0.788300
      8 C2          3.4190    1.7860    2.2080 c3        1 SOX      0.077800
      9 C10         3.8540    1.9930    3.6390 c3        1 SOX     -0.083600
     10 C9          3.4060    3.1120    1.4840 c3        1 SOX     -0.083600
     11 S1          4.4860    0.6590    1.2870 s6        1 SOX     -0.296700
     12 C5          3.1390   -0.1950    0.4260 cy        1 SOX      0.105500
     13 C6          2.8220    0.2640   -1.0260 cy        1 SOX     -0.033500
     14 N14         3.8300    1.1300   -1.6810 ny        1 SOX     -0.650800
     15 C15         3.5360    1.3070   -3.1460 c         1 SOX      0.559100
     16 O16         4.0690    0.5090   -3.9050 o         1 SOX     -0.440100
     17 C17         2.6120    2.4390   -3.5060 c3        1 SOX     -0.106100
     18 C18         3.1350    3.7500   -3.0390 ca        1 SOX     -0.151300
     19 C19         2.5470    4.3850   -1.9390 ca        1 SOX     -0.117000
     20 C20         3.0050    5.6380   -1.5320 ca        1 SOX     -0.122500
     21 C21         4.0490    6.2590   -2.2170 ca        1 SOX     -0.101000
     22 C22         4.6340    5.6290   -3.3170 ca        1 SOX     -0.122500
     23 C23         4.1770    4.3800   -3.7310 ca        1 SOX     -0.117000
     24 O5          5.6930    1.5030    0.3050 oh        1 SOX     -0.732700
     25 H3          1.1980    1.8380    2.3140 h1        1 SOX      0.102700
     26 H101        4.7840    2.6110    3.6760 hc        1 SOX      0.048867
     27 H102        3.0480    2.5240    4.2060 hc        1 SOX      0.048867
     28 H103        4.0360    1.0130    4.1500 hc        1 SOX      0.048867
     29 H9C1        2.8990    3.8860    2.1120 hc        1 SOX      0.048867
     30 H9C2        2.8520    3.0450    0.5130 hc        1 SOX      0.048867
     31 H9C3        4.4500    3.4550    1.2710 hc        1 SOX      0.048867
     32 HS          4.9740   -0.1060    2.2020 hs        1 SOX      0.287800
     33 H5          3.1410   -1.2960    0.5840 h2        1 SOX      0.151700
     34 H6          2.5350   -0.5660   -1.7190 hx        1 SOX      0.122700
     35 H14         4.7680    0.7110   -1.5460 hn        1 SOX      0.479800
     36 H171        1.5990    2.2300   -3.0490 hc        1 SOX      0.123200
     37 H172        2.5000    2.4360   -4.6260 hc        1 SOX      0.123200
     38 H19         1.7070    3.9040   -1.4060 ha        1 SOX      0.150000
     39 H20         2.5350    6.1370   -0.6700 ha        1 SOX      0.148500
     40 H21         4.4090    7.2480   -1.8940 ha        1 SOX      0.147000
     41 H22         5.4540    6.1210   -3.8630 ha        1 SOX      0.148500
     42 H23         4.6290    3.8930   -4.6090 ha        1 SOX      0.150000
     43 HO5         6.5350    1.6650    0.7100 ho        1 SOX      0.408000
     44 H142        3.8500    2.0530   -1.2180 hn        1 SOX      0.479800
@<TRIPOS>BOND
     1    1    2 2   
     2    2    3 1   
     3    2   13 1   
     4    3    4 1   
     5    3   12 1   
     6    4    5 1   
     7    4    8 1   
     8    4   25 1   
     9    5    6 1   
    10    5    7 1   
    11    8    9 1   
    12    8   10 1   
    13    8   11 1   
    14    9   26 1   
    15    9   27 1   
    16    9   28 1   
    17   10   29 1   
    18   10   30 1   
    19   10   31 1   
    20   11   12 1   
    21   11   24 1   
    22   11   32 1   
    23   12   13 1   
    24   12   33 1   
    25   13   14 1   
    26   13   34 1   
    27   14   15 1   
    28   14   35 1   
    29   14   44 1   
    30   15   16 2   
    31   15   17 1   
    32   17   18 1   
    33   17   36 1   
    34   17   37 1   
    35   18   19 ar  
    36   18   23 ar  
    37   19   20 ar  
    38   19   38 1   
    39   20   21 ar  
    40   20   39 1   
    41   21   22 ar  
    42   21   40 1   
    43   22   23 ar  
    44   22   41 1   
    45   23   42 1   
    46   24   43 1   
@<TRIPOS>SUBSTRUCTURE
     1 SOX         1 TEMP              0 ****  ****    0 ROOT
