@<TRIPOS>MOLECULE
SOX
   43    45     1     0     0
SMALL
bcc


@<TRIPOS>ATOM
      1 O8         -2.6190    1.7250    2.9480 o         1 SOX     -0.579500
      2 C7         -1.6060    1.4060    3.5590 c         1 SOX      0.643500
      3 N4         -0.2290    1.2640    3.1980 n         1 SOX     -0.328800
      4 C3          0.2310    0.4100    2.1200 c3        1 SOX     -0.067300
      5 C11         1.6960    0.8050    1.6690 c         1 SOX      0.938600
      6 O13         2.6130    0.7270    2.5300 o         1 SOX     -0.819300
      7 O12         1.8280    1.1230    0.4630 o         1 SOX     -0.819300
      8 C2          0.2260   -1.0810    2.5810 c3        1 SOX      0.064800
      9 C10         1.2390   -1.8950    1.8150 c3        1 SOX     -0.079600
     10 C9         -1.1510   -1.6830    2.4090 c3        1 SOX     -0.079600
     11 S1          0.5640   -1.0060    4.3490 s6        1 SOX     -0.272700
     12 C5          0.1440    0.7330    4.5400 cy        1 SOX      0.080500
     13 C6         -1.2900    1.0860    5.0680 cy        1 SOX      0.015700
     14 N14        -2.0380    0.0490    5.6890 n         1 SOX     -0.545900
     15 C15        -2.8550    0.2720    6.7780 c         1 SOX      0.667100
     16 O16        -3.0740    1.4150    7.2250 o         1 SOX     -0.616100
     17 C17        -3.5340   -0.9470    7.3950 c3        1 SOX     -0.106100
     18 C18        -2.7170   -1.5340    8.4910 ca        1 SOX     -0.084300
     19 C19        -1.5720   -2.2860    8.2020 ca        1 SOX     -0.119500
     20 C20        -0.8310   -2.8540    9.2380 ca        1 SOX     -0.136000
     21 C21        -1.2230   -2.6760   10.5640 ca        1 SOX     -0.135000
     22 C22        -2.3600   -1.9240   10.8560 ca        1 SOX     -0.136000
     23 C23        -3.1040   -1.3530    9.8250 ca        1 SOX     -0.119500
     24 O5         -0.1710   -2.3340    5.2820 oh        1 SOX     -0.712700
     25 H3         -0.4470    0.5370    1.2320 h1        1 SOX      0.084700
     26 H101        2.2810   -1.5590    2.0510 hc        1 SOX      0.041867
     27 H102        1.1330   -2.9800    2.0610 hc        1 SOX      0.041867
     28 H103        1.0810   -1.7580    0.7160 hc        1 SOX      0.041867
     29 H9C1       -1.2130   -2.6770    2.9180 hc        1 SOX      0.041867
     30 H9C2       -1.9370   -1.0140    2.8380 hc        1 SOX      0.041867
     31 H9C3       -1.3730   -1.8270    1.3230 hc        1 SOX      0.041867
     32 HS          1.8530   -1.0550    4.3910 hs        1 SOX      0.253800
     33 H5          0.9550    1.3350    5.0030 h2        1 SOX      0.115700
     34 H6         -1.3170    2.0170    5.6960 h1        1 SOX      0.106700
     35 H14        -1.8190   -0.8930    5.4390 hn        1 SOX      0.335500
     36 H171       -3.7340   -1.7300    6.6150 hc        1 SOX      0.069200
     37 H172       -4.5260   -0.5990    7.7910 hc        1 SOX      0.069200
     38 H19        -1.2420   -2.4220    7.1540 ha        1 SOX      0.156000
     39 H20         0.0710   -3.4380    9.0020 ha        1 SOX      0.126500
     40 H21        -0.6350   -3.1240   11.3780 ha        1 SOX      0.121000
     41 H22        -2.6690   -1.7750   11.9000 ha        1 SOX      0.126500
     42 H23        -3.9940   -0.7500   10.0590 ha        1 SOX      0.156000
     43 HO5        -0.0130   -3.1900    4.9050 ho        1 SOX      0.376000
@<TRIPOS>BOND
     1    1    2 2   
     2    2    3 1   
     3    2   13 1   
     4    3    4 1   
     5    3   12 1   
     6    4    5 1   
     7    4    8 1   
     8    4   25 1   
     9    5    6 1   
    10    5    7 1   
    11    8    9 1   
    12    8   10 1   
    13    8   11 1   
    14    9   26 1   
    15    9   27 1   
    16    9   28 1   
    17   10   29 1   
    18   10   30 1   
    19   10   31 1   
    20   11   12 1   
    21   11   24 1   
    22   11   32 1   
    23   12   13 1   
    24   12   33 1   
    25   13   14 1   
    26   13   34 1   
    27   14   15 1   
    28   14   35 1   
    29   15   16 2   
    30   15   17 1   
    31   17   18 1   
    32   17   36 1   
    33   17   37 1   
    34   18   19 ar  
    35   18   23 ar  
    36   19   20 ar  
    37   19   38 1   
    38   20   21 ar  
    39   20   39 1   
    40   21   22 ar  
    41   21   40 1   
    42   22   23 ar  
    43   22   41 1   
    44   23   42 1   
    45   24   43 1   
@<TRIPOS>SUBSTRUCTURE
     1 SOX         1 TEMP              0 ****  ****    0 ROOT
