@<TRIPOS>MOLECULE
SOX
   44    46     1     0     0
SMALL
bcc


@<TRIPOS>ATOM
      1 O8          0.7200    1.9270   -0.7700 o         1 SOX     -0.568500
      2 C7          1.5240    1.1320   -0.3020 c         1 SOX      0.675500
      3 N4          1.8010    0.4860    0.9180 n         1 SOX     -0.280800
      4 C3          2.0630    1.1310    2.1910 c3        1 SOX     -0.097300
      5 C11         1.9990    0.0180    3.3450 c         1 SOX      0.949600
      6 O13         1.1510    0.2160    4.2340 o         1 SOX     -0.788300
      7 O12         2.8410   -0.9130    3.2360 o         1 SOX     -0.788300
      8 C2          3.4970    1.7410    2.1920 c3        1 SOX      0.077800
      9 C10         4.0060    1.8990    3.6050 c3        1 SOX     -0.083600
     10 C9          3.5270    3.0790    1.4890 c3        1 SOX     -0.083600
     11 S1          4.4570    0.5720    1.2060 s6        1 SOX     -0.296700
     12 C5          3.0270   -0.1900    0.3950 cy        1 SOX      0.105500
     13 C6          2.6720    0.3120   -1.0340 cy        1 SOX     -0.033500
     14 N14         3.6970    1.1320   -1.7220 n4        1 SOX     -0.650800
     15 C15         3.3480    1.3500   -3.1680 c         1 SOX      0.559100
     16 O16         3.8010    0.5380   -3.9620 o         1 SOX     -0.440100
     17 C17         2.4740    2.5380   -3.4690 c3        1 SOX     -0.106100
     18 C18         3.0900    3.8100   -3.0070 ca        1 SOX     -0.151300
     19 C19         2.5890    4.4570   -1.8710 ca        1 SOX     -0.117000
     20 C20         3.1340    5.6750   -1.4670 ca        1 SOX     -0.122500
     21 C21         4.1800    6.2500   -2.1910 ca        1 SOX     -0.101000
     22 C22         4.6780    5.6080   -3.3250 ca        1 SOX     -0.122500
     23 C23         4.1330    4.3930   -3.7370 ca        1 SOX     -0.117000
     24 O5          5.6650    1.3650    0.1830 oh        1 SOX     -0.732700
     25 H3          1.2900    1.9150    2.4000 h1        1 SOX      0.102700
     26 H101        4.9700    2.4630    3.6090 hc        1 SOX      0.048867
     27 H102        3.2580    2.4630    4.2160 hc        1 SOX      0.048867
     28 H103        4.1560    0.9010    4.0920 hc        1 SOX      0.048867
     29 H9C1        3.0930    3.8680    2.1510 hc        1 SOX      0.048867
     30 H9C2        4.5780    3.3660    1.2340 hc        1 SOX      0.048867
     31 H9C3        2.9270    3.0590    0.5440 hc        1 SOX      0.048867
     32 HS          4.9410   -0.2340    2.0870 hs        1 SOX      0.287800
     33 H5          2.9740   -1.2920    0.5360 h2        1 SOX      0.151700
     34 H6          2.3080   -0.4880   -1.7250 hx        1 SOX      0.122700
     35 H14         3.7900    2.0440   -1.2450 hn        1 SOX      0.479800
     36 H171        2.3110    2.5610   -4.5830 hc        1 SOX      0.123200
     37 H172        1.4720    2.3770   -2.9700 hc        1 SOX      0.123200
     38 H19         1.7480    4.0140   -1.3080 ha        1 SOX      0.150000
     39 H20         2.7330    6.1840   -0.5770 ha        1 SOX      0.148500
     40 H21         4.6080    7.2120   -1.8700 ha        1 SOX      0.147000
     41 H22         5.4980    6.0630   -3.9010 ha        1 SOX      0.148500
     42 H23         4.5170    3.8970   -4.6420 ha        1 SOX      0.150000
     43 HO5         6.5310    1.4730    0.5520 ho        1 SOX      0.408000
     44 H142        4.6140    0.6590   -1.6350 hn        1 SOX      0.479800
@<TRIPOS>BOND
     1    1    2 2   
     2    2    3 1   
     3    2   13 1   
     4    3    4 1   
     5    3   12 1   
     6    4    5 1   
     7    4    8 1   
     8    4   25 1   
     9    5    6 1   
    10    5    7 1   
    11    8    9 1   
    12    8   10 1   
    13    8   11 1   
    14    9   26 1   
    15    9   27 1   
    16    9   28 1   
    17   10   29 1   
    18   10   30 1   
    19   10   31 1   
    20   11   12 1   
    21   11   24 1   
    22   11   32 1   
    23   12   13 1   
    24   12   33 1   
    25   13   14 1   
    26   13   34 1   
    27   14   15 1   
    28   14   35 1   
    29   14   44 1   
    30   15   16 2   
    31   15   17 1   
    32   17   18 1   
    33   17   36 1   
    34   17   37 1   
    35   18   19 ar  
    36   18   23 ar  
    37   19   20 ar  
    38   19   38 1   
    39   20   21 ar  
    40   20   39 1   
    41   21   22 ar  
    42   21   40 1   
    43   22   23 ar  
    44   22   41 1   
    45   23   42 1   
    46   24   43 1   
@<TRIPOS>SUBSTRUCTURE
     1 SOX         1 TEMP              0 ****  ****    0 ROOT
