@<TRIPOS>MOLECULE
SOY
   59    61     1     0     0
SMALL
bcc


@<TRIPOS>ATOM
      1 O          -4.9390   -1.7730    7.8200 o         1 SOY     -0.843300
      2 C          -3.9520   -2.4760    7.4610 c         1 SOY      0.888600
      3 CA         -2.8220   -1.7650    6.6430 c3        1 SOY      0.012500
      4 N          -1.6560   -2.5920    6.3730 n3        1 SOY     -0.878800
      5 CB         -3.4600   -1.1750    5.3820 c3        1 SOY      0.152400
      6 OG         -2.7160    0.0220    5.0600 os        1 SOY     -0.428900
      7 C1         -3.1660    0.7530    4.0080 c         1 SOY      0.622100
      8 O2         -4.0780    0.3110    3.3060 o         1 SOY     -0.555000
      9 C3         -2.4770    2.1130    3.8440 c3        1 SOY      0.063700
     10 C4         -0.9550    1.8830    3.5910 c3        1 SOY      0.277600
     11 S5         -0.7750    1.3330    1.8560 ss        1 SOY     -0.468200
     12 C6          0.1650    2.8020    1.3420 c3        1 SOY      0.075100
     13 C7         -0.4890    3.4310    0.1380 c3        1 SOY     -0.079600
     14 C8          1.5750    2.3690    1.0260 c3        1 SOY     -0.079600
     15 C9          0.1120    3.7720    2.5530 c3        1 SOY      0.029500
     16 C10         1.4300    4.6240    2.5940 c         1 SOY      0.926600
     17 O12         2.3640    4.2550    3.3570 o         1 SOY     -0.832300
     18 O11         1.4650    5.6290    1.8340 o         1 SOY     -0.832300
     19 N13        -0.1600    3.0710    3.7980 n3        1 SOY     -0.793200
     20 N14        -2.7590    2.9350    4.9970 n         1 SOY     -0.514900
     21 C15        -3.3650    4.1660    4.8730 c         1 SOY      0.713700
     22 O16        -3.9480    4.5210    3.8220 o         1 SOY     -0.631100
     23 C17        -3.3540    5.0600    6.0460 cc        1 SOY     -0.362200
     24 C18        -3.4410    6.4430    5.9790 cd        1 SOY      0.330000
     25 C19        -3.5310    7.4150    4.8910 c3        1 SOY     -0.153400
     26 O20        -3.3980    6.9400    7.2980 os        1 SOY     -0.139100
     27 N21        -3.2910    5.9420    8.1570 nd        1 SOY     -0.389300
     28 C22        -3.2510    4.7700    7.4820 cc        1 SOY      0.423800
     29 C23        -3.1100    3.4670    8.1180 ca        1 SOY     -0.169500
     30 C28        -3.9580    2.4040    7.7770 ca        1 SOY     -0.107000
     31 C24        -2.1190    3.2800    9.0930 ca        1 SOY     -0.107000
     32 C25        -1.9700    2.0360    9.7020 ca        1 SOY     -0.136500
     33 C26        -2.8050    0.9770    9.3470 ca        1 SOY     -0.109000
     34 C27        -3.8010    1.1590    8.3860 ca        1 SOY     -0.136500
     35 OXT        -3.8080   -3.6980    7.7470 o         1 SOY     -0.843300
     36 HA         -2.4650   -0.9030    7.2840 h1        1 SOY      0.065700
     37 HN1        -1.8630   -3.2100    5.6080 hn        1 SOY      0.330800
     38 HN2        -1.5100   -3.1760    7.1800 hn        1 SOY      0.330800
     39 HBC1       -4.5220   -0.8820    5.5930 h1        1 SOY      0.056200
     40 HBC2       -3.4240   -1.8630    4.4990 h1        1 SOY      0.056200
     41 H3         -2.9290    2.5980    2.9230 h1        1 SOY      0.125700
     42 H4         -0.6140    1.0410    4.2530 h2        1 SOY      0.094700
     43 H7C1       -0.3610    2.7850   -0.7640 hc        1 SOY      0.041700
     44 H7C2       -1.5810    3.5860    0.3150 hc        1 SOY      0.041700
     45 H7C3       -0.0090    4.4260   -0.0520 hc        1 SOY      0.041700
     46 H8C1        1.5760    1.5390    0.2800 hc        1 SOY      0.041700
     47 H8C2        2.1480    3.2370    0.6100 hc        1 SOY      0.041700
     48 H8C3        2.0950    2.0320    1.9560 hc        1 SOY      0.041700
     49 H9         -0.7430    4.4890    2.3880 h1        1 SOY      0.066700
     50 H13         0.7100    2.8530    4.2600 hn        1 SOY      0.396800
     51 H14        -2.2140    2.7510    5.8110 hn        1 SOY      0.331500
     52 H191       -4.2830    8.2070    5.1310 hc        1 SOY      0.074700
     53 H192       -2.5340    7.9010    4.7330 hc        1 SOY      0.074700
     54 H193       -3.8290    6.8820    3.9500 hc        1 SOY      0.074700
     55 H28        -4.7410    2.5470    7.0170 ha        1 SOY      0.137000
     56 H24        -1.4540    4.1120    9.3660 ha        1 SOY      0.137000
     57 H25        -1.1830    1.8900   10.4550 ha        1 SOY      0.165500
     58 H26        -2.6770   -0.0140    9.8090 ha        1 SOY      0.144000
     59 H27        -4.4400    0.2970    8.0930 ha        1 SOY      0.165500
@<TRIPOS>BOND
     1    1    2 1   
     2    2    3 1   
     3    2   35 1   
     4    3    4 1   
     5    3    5 1   
     6    3   36 1   
     7    4   37 1   
     8    4   38 1   
     9    5    6 1   
    10    5   39 1   
    11    5   40 1   
    12    6    7 1   
    13    7    8 2   
    14    7    9 1   
    15    9   10 1   
    16    9   20 1   
    17    9   41 1   
    18   10   11 1   
    19   10   19 1   
    20   10   42 1   
    21   11   12 1   
    22   12   13 1   
    23   12   14 1   
    24   12   15 1   
    25   13   43 1   
    26   13   44 1   
    27   13   45 1   
    28   14   46 1   
    29   14   47 1   
    30   14   48 1   
    31   15   16 1   
    32   15   19 1   
    33   15   49 1   
    34   16   17 1   
    35   16   18 1   
    36   19   50 1   
    37   20   21 1   
    38   20   51 1   
    39   21   22 2   
    40   21   23 1   
    41   23   24 2   
    42   23   28 1   
    43   24   25 1   
    44   24   26 1   
    45   25   52 1   
    46   25   53 1   
    47   25   54 1   
    48   26   27 1   
    49   27   28 2   
    50   28   29 1   
    51   29   30 ar  
    52   29   31 ar  
    53   30   34 ar  
    54   30   55 1   
    55   31   32 ar  
    56   31   56 1   
    57   32   33 ar  
    58   32   57 1   
    59   33   34 ar  
    60   33   58 1   
    61   34   59 1   
@<TRIPOS>SUBSTRUCTURE
     1 SOY         1 TEMP              0 ****  ****    0 ROOT
