@<TRIPOS>MOLECULE
SP0
   41    44     1     0     0
SMALL
bcc


@<TRIPOS>ATOM
      1 C22         2.0340   -2.1240    0.7800 ca        1 SP0     -0.048000
      2 C23         2.3490   -2.5160    2.0920 ca        1 SP0      0.103900
      3 F40         3.3770   -1.9240    2.7460 f         1 SP0     -0.130900
      4 C24         1.6000   -3.5240    2.7300 ca        1 SP0     -0.100000
      5 C25         0.5510   -4.1290    2.0440 ca        1 SP0     -0.132000
      6 C26         0.2410   -3.7370    0.7440 ca        1 SP0     -0.032000
      7 C21         0.9750   -2.7320    0.1030 ca        1 SP0     -0.364500
      8 S18         0.6080   -2.2920   -1.4840 sy        1 SP0      1.517200
      9 O19         1.7700   -1.8070   -2.1040 o         1 SP0     -0.638800
     10 O20        -0.0680   -3.3590   -2.1070 o         1 SP0     -0.638800
     11 N17        -0.4980   -1.0930   -1.2920 nh        1 SP0     -0.747500
     12 C9         -0.1990    0.2200   -0.9550 cc        1 SP0      0.129300
     13 C10         0.9500    0.9760   -1.2680 cd        1 SP0     -0.313300
     14 C6          0.7560    2.2490   -0.6010 cd        1 SP0      0.416800
     15 C4          1.6830    3.3420   -0.6290 cd        1 SP0     -0.159600
     16 C5          1.5270    4.5690   -0.0020 cc        1 SP0     -0.124000
     17 C1          2.6430    5.4260   -0.2400 cc        1 SP0     -0.161000
     18 C2          3.5910    4.8170   -1.0350 cd        1 SP0     -0.170100
     19 S3          3.1430    3.2750   -1.4700 ss        1 SP0      0.045200
     20 N7         -0.4410    2.2620    0.0590 nc        1 SP0     -0.483800
     21 N8         -1.0030    1.0530   -0.1160 na        1 SP0      0.138300
     22 C11        -2.3340    0.7520    0.2920 ca        1 SP0     -0.000200
     23 C12        -3.2930    0.3170   -0.6450 ca        1 SP0     -0.103000
     24 C13        -4.5790   -0.0060   -0.2310 ca        1 SP0     -0.158000
     25 C14        -4.9310    0.1230    1.1250 ca        1 SP0      0.130900
     26 F27        -6.1840   -0.1920    1.5300 f         1 SP0     -0.132900
     27 C15        -3.9870    0.5840    2.0600 ca        1 SP0     -0.158000
     28 C16        -2.6980    0.8980    1.6460 ca        1 SP0     -0.103000
     29 H22         2.6380   -1.3420    0.2850 ha        1 SP0      0.173000
     30 H24         1.8540   -3.8240    3.7580 ha        1 SP0      0.156000
     31 H25        -0.0340   -4.9230    2.5330 ha        1 SP0      0.149000
     32 H26        -0.5810   -4.2370    0.2010 ha        1 SP0      0.159000
     33 H17        -1.4700   -1.2900   -1.3900 hn        1 SP0      0.461800
     34 H10         1.7950    0.6660   -1.8770 ha        1 SP0      0.197000
     35 H5          0.6630    4.8560    0.6020 ha        1 SP0      0.165000
     36 H1          2.7160    6.4370    0.1660 ha        1 SP0      0.154000
     37 H2          4.5290    5.2690   -1.3550 h4        1 SP0      0.172000
     38 H12        -3.0440    0.2510   -1.7170 ha        1 SP0      0.157000
     39 H13        -5.3290   -0.3500   -0.9580 ha        1 SP0      0.158000
     40 H15        -4.2750    0.6960    3.1160 ha        1 SP0      0.158000
     41 H16        -1.9660    1.2690    2.3830 ha        1 SP0      0.157000
@<TRIPOS>BOND
     1    1    2 ar  
     2    1    7 ar  
     3    1   29 1   
     4    2    3 1   
     5    2    4 ar  
     6    4    5 ar  
     7    4   30 1   
     8    5    6 ar  
     9    5   31 1   
    10    6    7 ar  
    11    6   32 1   
    12    7    8 1   
    13    8    9 2   
    14    8   10 2   
    15    8   11 1   
    16   11   12 1   
    17   11   33 1   
    18   12   13 2   
    19   12   21 1   
    20   13   14 1   
    21   13   34 1   
    22   14   15 1   
    23   14   20 2   
    24   15   16 2   
    25   15   19 1   
    26   16   17 1   
    27   16   35 1   
    28   17   18 2   
    29   17   36 1   
    30   18   19 1   
    31   18   37 1   
    32   20   21 1   
    33   21   22 1   
    34   22   23 ar  
    35   22   28 ar  
    36   23   24 ar  
    37   23   38 1   
    38   24   25 ar  
    39   24   39 1   
    40   25   26 1   
    41   25   27 ar  
    42   27   28 ar  
    43   27   40 1   
    44   28   41 1   
@<TRIPOS>SUBSTRUCTURE
     1 SP0         1 TEMP              0 ****  ****    0 ROOT
