@<TRIPOS>MOLECULE
SP0
   41    44     1     0     0
SMALL
bcc


@<TRIPOS>ATOM
      1 C22         0.3360    0.3650    0.6050 ca        1 SP0     -0.048000
      2 C23         1.6090    0.5840    1.1570 ca        1 SP0      0.103900
      3 F40         2.6610    0.8460    0.3450 f         1 SP0     -0.130900
      4 C24         1.7960    0.5310    2.5520 ca        1 SP0     -0.100000
      5 C25         0.7070    0.2550    3.3740 ca        1 SP0     -0.132000
      6 C26        -0.5540    0.0390    2.8230 ca        1 SP0     -0.032000
      7 C21        -0.7520    0.0960    1.4380 ca        1 SP0     -0.364500
      8 S18        -2.2790   -0.2000    0.7860 sy        1 SP0      1.517200
      9 O19        -2.1300   -0.7150   -0.5120 o         1 SP0     -0.638800
     10 O20        -3.0290   -0.9590    1.7060 o         1 SP0     -0.638800
     11 N17        -2.9650    1.2910    0.7490 nh        1 SP0     -0.747500
     12 C9         -2.7020    2.2650   -0.2050 cc        1 SP0      0.129300
     13 C10        -2.3580    2.1060   -1.5630 cd        1 SP0     -0.313300
     14 C6         -2.1300    3.4510   -2.0540 cd        1 SP0      0.416800
     15 C4         -1.7440    3.7840   -3.3940 cd        1 SP0     -0.159600
     16 C5         -1.5170    5.0580   -3.8930 cc        1 SP0     -0.124000
     17 C1         -1.1490    5.0250   -5.2720 cc        1 SP0     -0.161000
     18 C2         -1.1130    3.7340   -5.7570 cd        1 SP0     -0.170100
     19 S3         -1.5090    2.6160   -4.5890 ss        1 SP0      0.045200
     20 N7         -2.3370    4.3630   -1.0560 nc        1 SP0     -0.483800
     21 N8         -2.6460    3.6710    0.0540 na        1 SP0      0.138300
     22 C11        -3.0900    4.2940    1.2560 ca        1 SP0     -0.000200
     23 C12        -4.3440    3.9730    1.8120 ca        1 SP0     -0.103000
     24 C13        -4.7510    4.5610    3.0030 ca        1 SP0     -0.158000
     25 C14        -3.9190    5.4980    3.6430 ca        1 SP0      0.130900
     26 F27        -4.3150    6.0710    4.8030 f         1 SP0     -0.132900
     27 C15        -2.6790    5.8440    3.0760 ca        1 SP0     -0.158000
     28 C16        -2.2680    5.2470    1.8900 ca        1 SP0     -0.103000
     29 H22         0.2040    0.3950   -0.4920 ha        1 SP0      0.173000
     30 H24         2.7970    0.7050    2.9740 ha        1 SP0      0.156000
     31 H25         0.8470    0.2040    4.4650 ha        1 SP0      0.149000
     32 H26        -1.4070   -0.2000    3.4830 ha        1 SP0      0.159000
     33 H17        -3.6020    1.5660    1.4640 hn        1 SP0      0.461800
     34 H10        -2.2810    1.1730   -2.1170 ha        1 SP0      0.197000
     35 H5         -1.6070    5.9790   -3.3140 ha        1 SP0      0.165000
     36 H1         -0.9280    5.9230   -5.8520 ha        1 SP0      0.154000
     37 H2         -0.8590    3.4520   -6.7780 h4        1 SP0      0.172000
     38 H12        -5.0240    3.2720    1.3020 ha        1 SP0      0.157000
     39 H13        -5.7270    4.3090    3.4440 ha        1 SP0      0.158000
     40 H15        -2.0410    6.5890    3.5740 ha        1 SP0      0.158000
     41 H16        -1.3000    5.5320    1.4460 ha        1 SP0      0.157000
@<TRIPOS>BOND
     1    1    2 ar  
     2    1    7 ar  
     3    1   29 1   
     4    2    3 1   
     5    2    4 ar  
     6    4    5 ar  
     7    4   30 1   
     8    5    6 ar  
     9    5   31 1   
    10    6    7 ar  
    11    6   32 1   
    12    7    8 1   
    13    8    9 2   
    14    8   10 2   
    15    8   11 1   
    16   11   12 1   
    17   11   33 1   
    18   12   13 2   
    19   12   21 1   
    20   13   14 1   
    21   13   34 1   
    22   14   15 1   
    23   14   20 2   
    24   15   16 2   
    25   15   19 1   
    26   16   17 1   
    27   16   35 1   
    28   17   18 2   
    29   17   36 1   
    30   18   19 1   
    31   18   37 1   
    32   20   21 1   
    33   21   22 1   
    34   22   23 ar  
    35   22   28 ar  
    36   23   24 ar  
    37   23   38 1   
    38   24   25 ar  
    39   24   39 1   
    40   25   26 1   
    41   25   27 ar  
    42   27   28 ar  
    43   27   40 1   
    44   28   41 1   
@<TRIPOS>SUBSTRUCTURE
     1 SP0         1 TEMP              0 ****  ****    0 ROOT
