@<TRIPOS>MOLECULE
SP0
   42    44     1     0     0
SMALL
bcc


@<TRIPOS>ATOM
      1 C22         0.1620    0.6420    0.4880 ca        1 SP0     -0.021000
      2 C23         1.3520    1.2110    0.9560 ca        1 SP0      0.123900
      3 F40         2.2440    1.7220    0.0810 f         1 SP0     -0.094900
      4 C24         1.6230    1.2510    2.3430 ca        1 SP0     -0.026000
      5 C25         0.6930    0.7220    3.2360 ca        1 SP0     -0.126000
      6 C26        -0.4880    0.1580    2.7740 ca        1 SP0      0.005000
      7 C21        -0.7800    0.1000    1.3910 ca        1 SP0     -0.544500
      8 S18        -2.0980   -0.5960    0.8660 s4        1 SP0      1.655300
      9 O19        -2.1670   -0.9020   -0.4570 o         1 SP0     -0.431900
     10 O20        -2.8740   -1.2060    1.8040 o         1 SP0     -0.431900
     11 N17        -3.4330    1.2310    0.7760 nh        1 SP0     -0.848200
     12 C9         -2.9580    2.1910   -0.1600 cc        1 SP0     -0.071700
     13 C10        -2.5330    1.9590   -1.4860 cd        1 SP0     -0.265300
     14 C6         -2.1340    3.2600   -1.9800 cd        1 SP0      0.434800
     15 C4         -1.6240    3.5350   -3.2880 cd        1 SP0     -0.206600
     16 C5         -1.1320    4.7560   -3.7310 cc        1 SP0     -0.094000
     17 C1         -0.7100    4.6890   -5.0920 cc        1 SP0     -0.158000
     18 C2         -0.9010    3.4300   -5.6230 cd        1 SP0     -0.137100
     19 S3         -1.5660    2.3790   -4.5170 ss        1 SP0      0.039200
     20 N7         -2.3170    4.2080   -1.0010 nc        1 SP0     -0.444800
     21 N8         -2.8250    3.5880    0.0670 na        1 SP0      0.183300
     22 C11        -3.1270    4.2400    1.3020 ca        1 SP0     -0.047200
     23 C12        -4.3790    4.0340    1.9180 ca        1 SP0     -0.101000
     24 C13        -4.6730    4.6590    3.1220 ca        1 SP0     -0.154000
     25 C14        -3.7280    5.5170    3.7170 ca        1 SP0      0.159900
     26 F27        -4.0130    6.1220    4.8900 f         1 SP0     -0.110900
     27 C15        -2.4900    5.7500    3.0870 ca        1 SP0     -0.154000
     28 C16        -2.1930    5.1180    1.8860 ca        1 SP0     -0.101000
     29 H22        -0.0360    0.6190   -0.6020 ha        1 SP0      0.191000
     30 H24         2.5670    1.6990    2.7020 ha        1 SP0      0.190000
     31 H25         0.9020    0.7480    4.3210 ha        1 SP0      0.184000
     32 H26        -1.2100   -0.2670    3.4980 ha        1 SP0      0.176000
     33 H17        -3.5140    1.6330    1.7020 hn        1 SP0      0.424300
     34 H10        -2.5210    1.0180   -2.0320 ha        1 SP0      0.196000
     35 H5         -1.0730    5.6650   -3.1270 ha        1 SP0      0.170000
     36 H1         -0.2920    5.5440   -5.6310 ha        1 SP0      0.170000
     37 H2         -0.6590    3.1340   -6.6440 h4        1 SP0      0.186000
     38 H12        -5.1530    3.4140    1.4370 ha        1 SP0      0.156500
     39 H13        -5.6510    4.5070    3.6070 ha        1 SP0      0.172500
     40 H15        -1.7680    6.4450    3.5450 ha        1 SP0      0.172500
     41 H16        -1.2310    5.3280    1.3890 ha        1 SP0      0.156500
     42 H172       -4.3530    0.9170    0.4870 hn        1 SP0      0.424300
@<TRIPOS>BOND
     1    1    2 ar  
     2    1    7 ar  
     3    1   29 1   
     4    2    3 1   
     5    2    4 ar  
     6    4    5 ar  
     7    4   30 1   
     8    5    6 ar  
     9    5   31 1   
    10    6    7 ar  
    11    6   32 1   
    12    7    8 1   
    13    8    9 1   
    14    8   10 1   
    15   11   12 1   
    16   11   33 1   
    17   11   42 1   
    18   12   13 2   
    19   12   21 1   
    20   13   14 1   
    21   13   34 1   
    22   14   15 1   
    23   14   20 2   
    24   15   16 2   
    25   15   19 1   
    26   16   17 1   
    27   16   35 1   
    28   17   18 2   
    29   17   36 1   
    30   18   19 1   
    31   18   37 1   
    32   20   21 1   
    33   21   22 1   
    34   22   23 ar  
    35   22   28 ar  
    36   23   24 ar  
    37   23   38 1   
    38   24   25 ar  
    39   24   39 1   
    40   25   26 1   
    41   25   27 ar  
    42   27   28 ar  
    43   27   40 1   
    44   28   41 1   
@<TRIPOS>SUBSTRUCTURE
     1 SP0         1 TEMP              0 ****  ****    0 ROOT
