@<TRIPOS>MOLECULE
SP1
   34    37     1     0     0
SMALL
bcc


@<TRIPOS>ATOM
      1 P          -3.7230    0.1130    0.6800 p5        1 SP1      1.232200
      2 S1P        -3.6360    1.6100    1.7860 s         1 SP1     -0.585000
      3 O2P        -4.9770   -0.8370    0.8590 oh        1 SP1     -0.696400
      4 O5'        -3.7870    0.3650   -0.9050 os        1 SP1     -0.528200
      5 C5'        -2.6040    0.6580   -1.6300 c3        1 SP1      0.167400
      6 C4'        -1.6230   -0.4720   -1.3440 c3        1 SP1      0.051100
      7 O4'        -0.3330   -0.3200   -1.9320 os        1 SP1     -0.400600
      8 C3'        -1.3690   -0.5080    0.1810 c3        1 SP1      0.048100
      9 O3'        -2.5260   -0.9770    0.8280 os        1 SP1     -0.488200
     10 C2'        -0.1240   -1.4020    0.2620 c3        1 SP1      0.135100
     11 O2'        -0.4300   -2.7680    0.1010 oh        1 SP1     -0.579800
     12 C1'         0.6370   -0.9750   -1.0570 c3        1 SP1      0.265800
     13 N9          1.7200   -0.0590   -0.8280 na        1 SP1     -0.299000
     14 C8          1.9470    1.1870   -1.4740 cc        1 SP1      0.424700
     15 N7          3.1160    1.7500   -1.1500 nd        1 SP1     -0.537100
     16 C5          3.7250    0.8500   -0.2610 ca        1 SP1     -0.232200
     17 C6          4.9810    0.8680    0.4360 ca        1 SP1      0.768200
     18 N6          5.8410    1.9200    0.2820 nh        1 SP1     -0.957500
     19 N1          5.2990   -0.1950    1.2520 nb        1 SP1     -0.793000
     20 C2          4.3970   -1.2060    1.3500 ca        1 SP1      0.692900
     21 N3          3.1860   -1.3570    0.7620 nb        1 SP1     -0.743000
     22 C4          2.8640   -0.3070   -0.0500 ca        1 SP1      0.462800
     23 HOP2       -5.6580   -0.5580    1.4770 ho        1 SP1      0.508000
     24 H5'1       -2.2090    1.6590   -1.3130 h1        1 SP1      0.091200
     25 H5'2       -2.9080    0.6880   -2.7100 h1        1 SP1      0.091200
     26 H4'        -2.0380   -1.4570   -1.7070 h1        1 SP1      0.103700
     27 H3'        -1.1150    0.5140    0.5930 h1        1 SP1      0.095700
     28 H2'         0.4690   -1.2320    1.1960 h1        1 SP1      0.104700
     29 HO2'       -1.0180   -3.0070    0.8320 ho        1 SP1      0.433000
     30 H1'         1.0030   -1.8910   -1.6090 h2        1 SP1      0.119700
     31 H8          1.2000    1.6000   -2.1650 h5        1 SP1      0.085800
     32 HN61        6.6980    1.9510    0.7750 hn        1 SP1      0.452300
     33 HN62        5.5730    2.6790   -0.2920 hn        1 SP1      0.452300
     34 H2          4.7050   -2.0380    2.0200 h5        1 SP1      0.055100
@<TRIPOS>BOND
     1    1    2 2   
     2    1    3 1   
     3    1    4 1   
     4    1    9 1   
     5    3   23 1   
     6    4    5 1   
     7    5    6 1   
     8    5   24 1   
     9    5   25 1   
    10    6    7 1   
    11    6    8 1   
    12    6   26 1   
    13    7   12 1   
    14    8    9 1   
    15    8   10 1   
    16    8   27 1   
    17   10   11 1   
    18   10   12 1   
    19   10   28 1   
    20   11   29 1   
    21   12   13 1   
    22   12   30 1   
    23   13   14 1   
    24   13   22 1   
    25   14   15 2   
    26   14   31 1   
    27   15   16 1   
    28   16   17 ar  
    29   16   22 ar  
    30   17   18 1   
    31   17   19 ar  
    32   18   32 1   
    33   18   33 1   
    34   19   20 ar  
    35   20   21 ar  
    36   20   34 1   
    37   21   22 ar  
@<TRIPOS>SUBSTRUCTURE
     1 SP1         1 TEMP              0 ****  ****    0 ROOT
