@<TRIPOS>MOLECULE
SP1
   34    37     1     0     0
SMALL
bcc


@<TRIPOS>ATOM
      1 P           0.4530    0.1860   -0.1880 p5        1 SP1      1.234200
      2 S1P        -0.0650    1.9660    0.0060 s         1 SP1     -0.590000
      3 O2P         0.4100   -0.4240   -1.6480 oh        1 SP1     -0.696400
      4 O5'         1.9450   -0.2080    0.2480 os        1 SP1     -0.528200
      5 C5'         2.2620   -0.3590    1.6240 c3        1 SP1      0.166400
      6 C4'         1.2950   -1.3930    2.1870 c3        1 SP1      0.054100
      7 O4'         1.3970   -1.6150    3.5870 os        1 SP1     -0.399600
      8 C3'        -0.1450   -0.8670    1.9760 c3        1 SP1      0.043100
      9 O3'        -0.4540   -0.9080    0.6050 os        1 SP1     -0.490200
     10 C2'        -0.9530   -1.7930    2.8930 c3        1 SP1      0.133100
     11 O2'        -1.2240   -3.0470    2.3130 oh        1 SP1     -0.578800
     12 C1'         0.0810   -2.0690    4.0590 c3        1 SP1      0.248800
     13 N9         -0.2410   -1.3970    5.2780 na        1 SP1     -0.284000
     14 C8         -0.4570   -0.0020    5.4760 cc        1 SP1      0.408700
     15 N7         -0.5330    0.3520    6.7620 nd        1 SP1     -0.525100
     16 C5         -0.3260   -0.8360    7.4850 ca        1 SP1     -0.239200
     17 C6         -0.2900   -1.1240    8.8900 ca        1 SP1      0.768200
     18 N6         -0.4960   -0.1300    9.8060 nh        1 SP1     -0.957500
     19 N1         -0.0520   -2.4220    9.2920 nb        1 SP1     -0.791000
     20 C2          0.1290   -3.3560    8.3250 ca        1 SP1      0.694900
     21 N3          0.1170   -3.2310    6.9740 nb        1 SP1     -0.736000
     22 C4         -0.1140   -1.9490    6.5700 ca        1 SP1      0.480800
     23 HOP2        0.1840    0.1690   -2.3690 ho        1 SP1      0.509000
     24 H5'1        3.3250   -0.7180    1.6550 h1        1 SP1      0.094200
     25 H5'2        2.1750    0.6350    2.1380 h1        1 SP1      0.094200
     26 H4'         1.4380   -2.3870    1.6710 h1        1 SP1      0.099700
     27 H3'        -0.2590    0.1990    2.3380 h1        1 SP1      0.087700
     28 H2'        -1.9020   -1.3150    3.2480 h1        1 SP1      0.087700
     29 HO2'       -1.6200   -2.8760    1.4460 ho        1 SP1      0.435000
     30 H1'         0.1740   -3.1800    4.2430 h2        1 SP1      0.143700
     31 H8         -0.5660    0.6790    4.6230 h5        1 SP1      0.072800
     32 HN61       -0.4570   -0.3190   10.7770 hn        1 SP1      0.452300
     33 HN62       -0.6380    0.7950    9.4870 hn        1 SP1      0.452300
     34 H2          0.3180   -4.3850    8.7020 h5        1 SP1      0.056100
@<TRIPOS>BOND
     1    1    2 2   
     2    1    3 1   
     3    1    4 1   
     4    1    9 1   
     5    3   23 1   
     6    4    5 1   
     7    5    6 1   
     8    5   24 1   
     9    5   25 1   
    10    6    7 1   
    11    6    8 1   
    12    6   26 1   
    13    7   12 1   
    14    8    9 1   
    15    8   10 1   
    16    8   27 1   
    17   10   11 1   
    18   10   12 1   
    19   10   28 1   
    20   11   29 1   
    21   12   13 1   
    22   12   30 1   
    23   13   14 1   
    24   13   22 1   
    25   14   15 2   
    26   14   31 1   
    27   15   16 1   
    28   16   17 ar  
    29   16   22 ar  
    30   17   18 1   
    31   17   19 ar  
    32   18   32 1   
    33   18   33 1   
    34   19   20 ar  
    35   20   21 ar  
    36   20   34 1   
    37   21   22 ar  
@<TRIPOS>SUBSTRUCTURE
     1 SP1         1 TEMP              0 ****  ****    0 ROOT
