@<TRIPOS>MOLECULE
SP1
   34    37     1     0     0
SMALL
bcc


@<TRIPOS>ATOM
      1 P           0.4480    0.1870   -0.1850 p5        1 SP1      1.234200
      2 S1P        -0.0350    1.9770    0.0160 s         1 SP1     -0.590000
      3 O2P         0.3840   -0.4180   -1.6460 oh        1 SP1     -0.696400
      4 O5'         1.9360   -0.2360    0.2400 os        1 SP1     -0.528200
      5 C5'         2.2580   -0.3960    1.6130 c3        1 SP1      0.166400
      6 C4'         1.2760   -1.4120    2.1810 c3        1 SP1      0.054100
      7 O4'         1.3830   -1.6400    3.5800 os        1 SP1     -0.399600
      8 C3'        -0.1550   -0.8580    1.9810 c3        1 SP1      0.043100
      9 O3'        -0.4740   -0.8910    0.6120 os        1 SP1     -0.490200
     10 C2'        -0.9750   -1.7710    2.9010 c3        1 SP1      0.133100
     11 O2'        -1.2740   -3.0180    2.3200 oh        1 SP1     -0.578800
     12 C1'         0.0610   -2.0690    4.0590 c3        1 SP1      0.248800
     13 N9         -0.2390   -1.3940    5.2820 na        1 SP1     -0.284000
     14 C8         -0.4300    0.0040    5.4840 cc        1 SP1      0.408700
     15 N7         -0.4900    0.3570    6.7710 nd        1 SP1     -0.525100
     16 C5         -0.2970   -0.8350    7.4910 ca        1 SP1     -0.239200
     17 C6         -0.2540   -1.1260    8.8950 ca        1 SP1      0.768200
     18 N6         -0.4360   -0.1300    9.8140 nv        1 SP1     -0.957500
     19 N1         -0.0350   -2.4280    9.2930 nb        1 SP1     -0.791000
     20 C2          0.1210   -3.3630    8.3230 ca        1 SP1      0.694900
     21 N3          0.1010   -3.2360    6.9720 nb        1 SP1     -0.736000
     22 C4         -0.1120   -1.9500    6.5720 ca        1 SP1      0.480800
     23 HOP2        0.1650    0.1800   -2.3640 ho        1 SP1      0.509000
     24 H5'1        2.1940    0.5980    2.1300 h1        1 SP1      0.094700
     25 H5'2        3.3150   -0.7750    1.6370 h1        1 SP1      0.094700
     26 H4'         1.3960   -2.4080    1.6620 h1        1 SP1      0.099700
     27 H3'        -0.2460    0.2090    2.3450 h1        1 SP1      0.087700
     28 H2'        -1.9130   -1.2750    3.2630 h1        1 SP1      0.087700
     29 HO2'       -1.6720   -2.8380    1.4560 ho        1 SP1      0.435000
     30 H1'         0.1340   -3.1820    4.2410 h2        1 SP1      0.143700
     31 H8         -0.5350    0.6880    4.6330 h5        1 SP1      0.072800
     32 HN61       -0.3920   -0.3200   10.7840 hn        1 SP1      0.452300
     33 HN62       -0.5640    0.7980    9.4980 hn        1 SP1      0.452300
     34 H2          0.2960   -4.3960    8.6970 h5        1 SP1      0.056100
@<TRIPOS>BOND
     1    1    2 2   
     2    1    3 1   
     3    1    4 1   
     4    1    9 1   
     5    3   23 1   
     6    4    5 1   
     7    5    6 1   
     8    5   24 1   
     9    5   25 1   
    10    6    7 1   
    11    6    8 1   
    12    6   26 1   
    13    7   12 1   
    14    8    9 1   
    15    8   10 1   
    16    8   27 1   
    17   10   11 1   
    18   10   12 1   
    19   10   28 1   
    20   11   29 1   
    21   12   13 1   
    22   12   30 1   
    23   13   14 1   
    24   13   22 1   
    25   14   15 2   
    26   14   31 1   
    27   15   16 1   
    28   16   17 ar  
    29   16   22 ar  
    30   17   18 1   
    31   17   19 ar  
    32   18   32 1   
    33   18   33 1   
    34   19   20 ar  
    35   20   21 ar  
    36   20   34 1   
    37   21   22 ar  
@<TRIPOS>SUBSTRUCTURE
     1 SP1         1 TEMP              0 ****  ****    0 ROOT
