@<TRIPOS>MOLECULE
SP1
   34    32     1     0     0
SMALL
bcc


@<TRIPOS>ATOM
      1 P          -0.5740    1.3290   -4.1840 p4        1 SP1      1.467800
      2 S1P        -1.3320    3.0320   -3.6570 s         1 SP1     -0.590000
      3 O2P        -1.1540    1.1690   -5.6460 o         1 SP1     -0.729000
      4 O5'         1.1670    1.3740   -4.1860 os        1 SP1     -0.528200
      5 C5'         1.7830    1.3820   -2.7570 c3        1 SP1      0.166400
      6 C4'         1.2570    0.2490   -1.9200 c3        1 SP1      0.054100
      7 O4'         1.6790    0.1750   -0.7010 os        1 SP1     -0.399600
      8 C3'        -0.4790    0.1540   -1.8680 c3        1 SP1      0.043100
      9 O3'        -1.0880    0.0720   -3.1660 os        1 SP1     -0.490200
     10 C2'        -0.7560   -0.7160   -1.0770 c3        1 SP1      0.133100
     11 O2'        -0.8420   -2.0070   -1.7450 oh        1 SP1     -0.578800
     12 C1'         0.5620   -0.6910    0.0200 c3        1 SP1      0.248800
     13 N9          0.2430   -0.1880    1.0420 n3        1 SP1     -0.127400
     14 C8          0.3140    1.1180    1.3860 c1        1 SP1      0.173400
     15 N7          0.1560    1.2070    2.7250 ne        1 SP1     -0.370400
     16 C5         -0.0150   -0.0500    3.2140 cg        1 SP1     -0.196000
     17 C6         -0.2160   -0.5290    4.4990 c1        1 SP1      0.628600
     18 N6         -0.5950    0.2470    5.6250 n3        1 SP1     -0.820400
     19 N1         -0.3570   -1.8470    4.7100 n1        1 SP1     -0.590800
     20 C2         -0.3030   -2.7170    3.6590 c1        1 SP1      0.415300
     21 N3         -0.1050   -2.2490    2.3940 n1        1 SP1     -0.535800
     22 C4          0.0390   -0.9110    2.1770 c1        1 SP1      0.034700
     23 HOP2       -0.7890    1.7790   -6.1780 ho        1 SP1      0.308000
     24 H5'1        1.5650    2.2290   -2.3200 h1        1 SP1      0.094700
     25 H5'2        2.7550    1.3000   -2.8280 h1        1 SP1      0.094700
     26 H4'         1.5600   -0.5690   -2.3610 h1        1 SP1      0.099700
     27 H3'        -0.7920    0.9950   -1.4730 h1        1 SP1      0.087700
     28 H2'        -1.5940   -0.5080   -0.6150 h1        1 SP1      0.087700
     29 HO2'       -1.5990   -2.4110   -1.5120 ho        1 SP1      0.435000
     30 H1'         0.8890   -1.6000    0.1770 h2        1 SP1      0.143700
     31 H8          0.4580    1.8640    0.7740 DU        1 SP1      0.202000
     32 HN61       -0.7590    1.1410    5.5300 hn        1 SP1      0.452300
     33 HN62       -0.6720   -0.1470    6.4470 hn        1 SP1      0.452300
     34 H2         -0.4060   -3.6760    3.8130 ha        1 SP1      0.135500
@<TRIPOS>BOND
     1    1    2 2   
     2    1    4 1   
     3    1    9 1   
     4    3   23 1   
     5    4    5 1   
     6    5    6 1   
     7    5   24 1   
     8    5   25 1   
     9    6    7 1   
    10    6    8 1   
    11    6   26 1   
    12    7   12 1   
    13    8    9 1   
    14    8   10 1   
    15    8   27 1   
    16   10   11 1   
    17   10   12 1   
    18   10   28 1   
    19   11   29 1   
    20   12   13 1   
    21   12   30 1   
    22   13   14 2   
    23   13   22 1   
    24   14   15 2   
    25   15   16 1   
    26   16   22 3   
    27   17   18 1   
    28   17   19 3   
    29   18   32 1   
    30   18   33 1   
    31   20   21 3   
    32   20   34 1   
@<TRIPOS>SUBSTRUCTURE
     1 SP1         1 TEMP              0 ****  ****    0 ROOT
