@<TRIPOS>MOLECULE
SP1
   35    38     1     0     0
SMALL
bcc


@<TRIPOS>ATOM
      1 P           0.3920    0.2380   -0.1150 p5        1 SP1      1.224200
      2 S1P        -0.1400    1.9240    0.4870 s         1 SP1     -0.584000
      3 O2P         0.2720   -0.1470   -1.6370 oh        1 SP1     -0.688400
      4 O5'         1.9000   -0.2050    0.2210 os        1 SP1     -0.511200
      5 C5'         2.2580   -0.3520    1.5870 c3        1 SP1      0.162400
      6 C4'         1.3420   -1.4320    2.1570 c3        1 SP1      0.050100
      7 O4'         1.4620   -1.6620    3.5620 os        1 SP1     -0.392600
      8 C3'        -0.1230   -0.9700    1.9660 c3        1 SP1      0.036100
      9 O3'        -0.4330   -0.9880    0.5970 os        1 SP1     -0.476200
     10 C2'        -0.8840   -1.9370    2.8760 c3        1 SP1      0.141100
     11 O2'        -1.0890   -3.2120    2.3210 oh        1 SP1     -0.576800
     12 C1'         0.1740   -2.1460    4.0380 c3        1 SP1      0.229800
     13 N9         -0.1610   -1.4310    5.2500 na        1 SP1     -0.261000
     14 C8         -0.3880   -0.0430    5.4100 cc        1 SP1      0.514700
     15 N7         -0.5270    0.3500    6.6890 nd        1 SP1     -0.577100
     16 C5         -0.3610   -0.8170    7.4430 ca        1 SP1     -0.135200
     17 C6         -0.3830   -1.1080    8.8170 ca        1 SP1      0.521200
     18 N6         -0.6330   -0.0060    9.7650 n4        1 SP1     -0.815300
     19 N1         -0.1820   -2.3640    9.2900 nb        1 SP1     -0.676000
     20 C2          0.0430   -3.3380    8.3620 ca        1 SP1      0.677900
     21 N3          0.0930   -3.2280    7.0080 nb        1 SP1     -0.613000
     22 C4         -0.1070   -1.9700    6.5480 ca        1 SP1      0.470800
     23 HOP2        0.0040    0.5320   -2.2650 ho        1 SP1      0.522000
     24 H5'1        3.3350   -0.6670    1.5930 h1        1 SP1      0.101200
     25 H5'2        2.1320    0.6340    2.1090 h1        1 SP1      0.101200
     26 H4'         1.5280   -2.4160    1.6360 h1        1 SP1      0.112700
     27 H3'        -0.2790    0.0870    2.3530 h1        1 SP1      0.095700
     28 H2'        -1.8570   -1.5130    3.2340 h1        1 SP1      0.087700
     29 HO2'       -1.3890   -3.0830    1.4070 ho        1 SP1      0.451000
     30 H1'         0.2970   -3.2450    4.2710 h2        1 SP1      0.152700
     31 H8         -0.4530    0.6350    4.5400 h5        1 SP1      0.112800
     32 HN61        0.1020    0.7030    9.6410 hn        1 SP1      0.479800
     33 HN62       -1.5460    0.4130    9.5450 hn        1 SP1      0.479800
     34 H2          0.2080   -4.3620    8.7760 h5        1 SP1      0.104100
     35 H63        -0.6300   -0.3420   10.7370 hn        1 SP1      0.479800
@<TRIPOS>BOND
     1    1    2 2   
     2    1    3 1   
     3    1    4 1   
     4    1    9 1   
     5    3   23 1   
     6    4    5 1   
     7    5    6 1   
     8    5   24 1   
     9    5   25 1   
    10    6    7 1   
    11    6    8 1   
    12    6   26 1   
    13    7   12 1   
    14    8    9 1   
    15    8   10 1   
    16    8   27 1   
    17   10   11 1   
    18   10   12 1   
    19   10   28 1   
    20   11   29 1   
    21   12   13 1   
    22   12   30 1   
    23   13   14 1   
    24   13   22 1   
    25   14   15 2   
    26   14   31 1   
    27   15   16 1   
    28   16   17 ar  
    29   16   22 ar  
    30   17   18 1   
    31   17   19 ar  
    32   18   32 1   
    33   18   33 1   
    34   18   35 1   
    35   19   20 ar  
    36   20   21 ar  
    37   20   34 1   
    38   21   22 ar  
@<TRIPOS>SUBSTRUCTURE
     1 SP1         1 TEMP              0 ****  ****    0 ROOT
