@<TRIPOS>MOLECULE
SP2
  104   103     1     0     0
SMALL
bcc


@<TRIPOS>ATOM
      1 CMA        -4.1730    1.9750  -13.6400 c3        1 SP2      0.116700
      2 O1         -3.8830    1.0420  -12.6180 os        1 SP2     -0.421600
      3 C1         -4.6610    1.1860  -11.4170 c3        1 SP2      0.149800
      4 CM1        -4.4140    2.5410  -10.7680 c3        1 SP2     -0.119100
      5 CM2        -6.1460    1.0030  -11.7110 c3        1 SP2     -0.119100
      6 C2         -4.1840    0.0410  -10.5110 c3        1 SP2     -0.066400
      7 C3         -2.7250    0.1620  -10.1290 c3        1 SP2     -0.075400
      8 C4         -2.2640   -1.0670   -9.3670 c3        1 SP2     -0.046200
      9 C5         -0.8240   -0.9730   -8.9910 c2        1 SP2     -0.091400
     10 CM3         0.1520   -1.1150  -10.0970 c3        1 SP2     -0.064900
     11 C6         -0.4580   -0.7850   -7.7070 ce        1 SP2     -0.154000
     12 C7          0.9110   -0.6950   -7.2520 ce        1 SP2     -0.118000
     13 C8          1.2320   -0.5140   -5.9580 cf        1 SP2     -0.134000
     14 C9          2.5910   -0.4210   -5.4430 cf        1 SP2     -0.062200
     15 CM4         3.6860   -0.3540   -6.4410 c3        1 SP2     -0.061900
     16 C10         2.7840   -0.4040   -4.1040 ce        1 SP2     -0.134000
     17 C11         4.0540   -0.3360   -3.4240 ce        1 SP2     -0.122000
     18 C12         4.1460   -0.2980   -2.0800 cf        1 SP2     -0.127000
     19 C13         5.3930   -0.2380   -1.3330 cf        1 SP2     -0.066200
     20 CM5         6.6400   -0.0370   -2.1100 c3        1 SP2     -0.062900
     21 C14         5.3580   -0.3660    0.0140 ce        1 SP2     -0.131000
     22 C15         6.5030   -0.3710    0.8900 ce        1 SP2     -0.124000
     23 C16         6.4640   -0.2090    2.2270 cf        1 SP2     -0.122000
     24 C17         5.2780    0.0580    3.0010 cf        1 SP2     -0.133000
     25 C18         5.1660   -0.0630    4.3450 ce        1 SP2     -0.064200
     26 CM6         6.2610   -0.5410    5.2230 c3        1 SP2     -0.062900
     27 C19         3.9070    0.2890    4.9840 ce        1 SP2     -0.130000
     28 C20         3.7130    0.3610    6.3140 cf        1 SP2     -0.122000
     29 C21         2.4410    0.7230    6.8950 cf        1 SP2     -0.148000
     30 C22         2.2040    0.8100    8.2190 c2        1 SP2     -0.098400
     31 CM7         3.2400    0.5420    9.2440 c3        1 SP2     -0.063900
     32 C23         0.8600    1.2060    8.7280 c3        1 SP2     -0.044200
     33 C24         0.1240    0.0270    9.3410 c3        1 SP2     -0.043200
     34 C25        -1.1940    0.4220    9.8890 c2        1 SP2     -0.176200
     35 C26        -2.0980   -0.4600   10.3450 c2        1 SP2     -0.121400
     36 CM8        -1.8510   -1.9220   10.3280 c3        1 SP2     -0.059900
     37 C27        -3.4050   -0.0130   10.9060 c3        1 SP2     -0.039200
     38 C28        -4.5640   -0.4110   10.0100 c3        1 SP2     -0.043200
     39 C29        -5.8710   -0.0190   10.5860 c2        1 SP2     -0.178200
     40 C30        -7.0360   -0.1520    9.9320 c2        1 SP2     -0.123400
     41 CMB        -8.3260    0.2470   10.5430 c3        1 SP2     -0.057900
     42 CM9        -7.1120   -0.7000    8.5560 c3        1 SP2     -0.057900
     43 HMA1       -3.4380    1.7300  -14.4480 h1        1 SP2      0.031367
     44 HMA2       -5.2170    1.8440  -14.0170 h1        1 SP2      0.031367
     45 HMA3       -4.0230    3.0240  -13.2860 h1        1 SP2      0.031367
     46 HM11       -3.3260    2.7900  -10.8050 hc        1 SP2      0.043033
     47 HM12       -4.9820    3.3430  -11.2970 hc        1 SP2      0.043033
     48 HM13       -4.7450    2.5140   -9.7030 hc        1 SP2      0.043033
     49 HM21       -6.3030    0.0800  -12.3190 hc        1 SP2      0.043033
     50 HM22       -6.7110    0.9100  -10.7540 hc        1 SP2      0.043033
     51 HM23       -6.5470    1.8770  -12.2770 hc        1 SP2      0.043033
     52 H21A       -4.8220    0.0350   -9.5910 hc        1 SP2      0.047200
     53 H22        -4.3490   -0.9270  -11.0550 hc        1 SP2      0.047200
     54 H31        -2.1080    0.2910  -11.0570 hc        1 SP2      0.052200
     55 H32        -2.5730    1.0740   -9.4950 hc        1 SP2      0.052200
     56 H41        -2.9010   -1.1940   -8.4510 hc        1 SP2      0.045700
     57 H42        -2.4140   -1.9800  -10.0050 hc        1 SP2      0.045700
     58 HM31        0.8080   -2.0050   -9.9270 hc        1 SP2      0.045033
     59 HM32       -0.3640   -1.2430  -11.0800 hc        1 SP2      0.045033
     60 HM33        0.8060   -0.2090  -10.1620 hc        1 SP2      0.045033
     61 H6         -1.2330   -0.6890   -6.9260 ha        1 SP2      0.122000
     62 H7          1.6930   -0.7870   -8.0250 ha        1 SP2      0.125000
     63 H8          0.4320   -0.4320   -5.2000 ha        1 SP2      0.122000
     64 HM41        3.7890   -1.3410   -6.9600 hc        1 SP2      0.044367
     65 HM42        3.4570    0.4250   -7.2120 hc        1 SP2      0.044367
     66 HM43        4.6680   -0.0970   -5.9790 hc        1 SP2      0.044367
     67 H10         1.8990   -0.4520   -3.4400 ha        1 SP2      0.121000
     68 H11         4.9640   -0.3250   -4.0460 ha        1 SP2      0.126000
     69 H12         3.2270   -0.3210   -1.4660 ha        1 SP2      0.122000
     70 HM51        6.5120    0.8100   -2.8310 hc        1 SP2      0.045033
     71 HM52        7.5110    0.2030   -1.4550 hc        1 SP2      0.045033
     72 HM53        6.8800   -0.9610   -2.6940 hc        1 SP2      0.045033
     73 H14         4.3780   -0.4940    0.5100 ha        1 SP2      0.125000
     74 H15         7.4860   -0.5450    0.4130 ha        1 SP2      0.123000
     75 H16         7.4150   -0.2610    2.7880 ha        1 SP2      0.123000
     76 H17         4.4000    0.4050    2.4250 ha        1 SP2      0.125000
     77 HM61        6.6590    0.3080    5.8340 hc        1 SP2      0.044700
     78 HM62        5.8790   -1.3280    5.9220 hc        1 SP2      0.044700
     79 HM63        7.1060   -0.9840    4.6420 hc        1 SP2      0.044700
     80 H19         3.0730    0.5170    4.2950 ha        1 SP2      0.122000
     81 H20         4.5340    0.1460    7.0200 ha        1 SP2      0.125000
     82 H21         1.6270    0.9380    6.1790 ha        1 SP2      0.124000
     83 HM71        3.6430   -0.4960    9.1340 hc        1 SP2      0.044033
     84 HM72        4.0920    1.2590    9.1330 hc        1 SP2      0.044033
     85 HM73        2.8260    0.6490   10.2770 hc        1 SP2      0.044033
     86 H231        0.9850    2.0120    9.5020 hc        1 SP2      0.048700
     87 H232        0.2370    1.6370    7.8990 hc        1 SP2      0.048700
     88 H241       -0.0120   -0.7740    8.5630 hc        1 SP2      0.050700
     89 H242        0.7510   -0.4210   10.1610 hc        1 SP2      0.050700
     90 H25        -1.4060    1.5030    9.9120 ha        1 SP2      0.123000
     91 HM81       -1.8710   -2.3030    9.2750 hc        1 SP2      0.041367
     92 HM82       -0.8450   -2.1550   10.7600 hc        1 SP2      0.041367
     93 HM83       -2.6250   -2.4740   10.9160 hc        1 SP2      0.041367
     94 H271       -3.5430   -0.4730   11.9220 hc        1 SP2      0.046200
     95 H272       -3.4110    1.1010   11.0430 hc        1 SP2      0.046200
     96 H281       -4.4380    0.0660    8.9990 hc        1 SP2      0.050200
     97 H282       -4.5450   -1.5240    9.8460 hc        1 SP2      0.050200
     98 H29        -5.8470    0.3950   11.6070 ha        1 SP2      0.122000
     99 HMB1       -9.0020   -0.6410   10.6270 hc        1 SP2      0.040533
    100 HMB2       -8.1840    0.6790   11.5640 hc        1 SP2      0.040533
    101 HMB3       -8.8340    1.0120    9.9030 hc        1 SP2      0.040533
    102 HM91       -6.6210    0.0010    7.8340 hc        1 SP2      0.040533
    103 HM92       -6.5790   -1.6820    8.4960 hc        1 SP2      0.040533
    104 HM93       -8.1710   -0.8520    8.2360 hc        1 SP2      0.040533
@<TRIPOS>BOND
     1    1    2 1   
     2    1   43 1   
     3    1   44 1   
     4    1   45 1   
     5    2    3 1   
     6    3    4 1   
     7    3    5 1   
     8    3    6 1   
     9    4   46 1   
    10    4   47 1   
    11    4   48 1   
    12    5   49 1   
    13    5   50 1   
    14    5   51 1   
    15    6    7 1   
    16    6   52 1   
    17    6   53 1   
    18    7    8 1   
    19    7   54 1   
    20    7   55 1   
    21    8    9 1   
    22    8   56 1   
    23    8   57 1   
    24    9   10 1   
    25    9   11 2   
    26   10   58 1   
    27   10   59 1   
    28   10   60 1   
    29   11   12 1   
    30   11   61 1   
    31   12   13 2   
    32   12   62 1   
    33   13   14 1   
    34   13   63 1   
    35   14   15 1   
    36   14   16 2   
    37   15   64 1   
    38   15   65 1   
    39   15   66 1   
    40   16   17 1   
    41   16   67 1   
    42   17   18 2   
    43   17   68 1   
    44   18   19 1   
    45   18   69 1   
    46   19   20 1   
    47   19   21 2   
    48   20   70 1   
    49   20   71 1   
    50   20   72 1   
    51   21   22 1   
    52   21   73 1   
    53   22   23 2   
    54   22   74 1   
    55   23   24 1   
    56   23   75 1   
    57   24   25 2   
    58   24   76 1   
    59   25   26 1   
    60   25   27 1   
    61   26   77 1   
    62   26   78 1   
    63   26   79 1   
    64   27   28 2   
    65   27   80 1   
    66   28   29 1   
    67   28   81 1   
    68   29   30 2   
    69   29   82 1   
    70   30   31 1   
    71   30   32 1   
    72   31   83 1   
    73   31   84 1   
    74   31   85 1   
    75   32   33 1   
    76   32   86 1   
    77   32   87 1   
    78   33   34 1   
    79   33   88 1   
    80   33   89 1   
    81   34   35 2   
    82   34   90 1   
    83   35   36 1   
    84   35   37 1   
    85   36   91 1   
    86   36   92 1   
    87   36   93 1   
    88   37   38 1   
    89   37   94 1   
    90   37   95 1   
    91   38   39 1   
    92   38   96 1   
    93   38   97 1   
    94   39   40 2   
    95   39   98 1   
    96   40   41 1   
    97   40   42 1   
    98   41   99 1   
    99   41  100 1   
   100   41  101 1   
   101   42  102 1   
   102   42  103 1   
   103   42  104 1   
@<TRIPOS>SUBSTRUCTURE
     1 SP2         1 TEMP              0 ****  ****    0 ROOT
