@<TRIPOS>MOLECULE
SP2
  104   113     1     0     0
SMALL
bcc


@<TRIPOS>ATOM
      1 CMA         0.0000    0.0000    0.0000 c3        1 SP2      0.021000
      2 O1          1.4290    0.0000    0.0000 os        1 SP2     -0.249000
      3 C1          1.8420    0.0000    1.3680 c3        1 SP2      0.075000
      4 CM1         1.3320    1.2670    2.0550 c3        1 SP2     -0.157000
      5 CM2         1.2680   -1.2300    2.0740 c3        1 SP2     -0.157000
      6 C2          3.3700   -0.0390    1.4400 c3        1 SP2     -0.100000
      7 C3          3.9440    1.1910    0.7330 c3        1 SP2     -0.117000
      8 C4          5.4720    1.1520    0.8060 c3        1 SP2     -0.019000
      9 C5          6.0390    2.3630    0.1100 c2        1 SP2     -0.273000
     10 CM3         6.3570    2.3060   -1.3620 c3        1 SP2     -0.056000
     11 C6          6.2580    3.4870    0.7990 c3        1 SP2     -0.168000
     12 C7          6.6840    4.6590    0.1260 c3        1 SP2     -0.273000
     13 C8          7.0080    5.7710    0.8360 c2        1 SP2     -0.036000
     14 C9          7.4300    6.9340    0.1670 c3        1 SP2      0.015000
     15 CM4         7.5260    6.9460   -1.3370 c3        1 SP2     -0.098000
     16 C10         7.7540    8.0510    0.8810 c3        1 SP2     -0.496000
     17 C11         8.0560    9.2470    0.2120 c3        1 SP2     -0.175000
     18 C12         8.4890   10.3430    0.9240 c2        1 SP2     -0.029000
     19 C13         8.7900   11.5360    0.2570 c3        1 SP2      0.162000
     20 CM5         8.6410   11.6220   -1.2400 c3        1 SP2     -0.154000
     21 C14         9.2220   12.6320    0.9680 c2        1 SP2     -0.498000
     22 C15         9.6500   13.7820    0.2920 c3        1 SP2     -0.077000
     23 C16        10.1800   14.8380    0.9980 c2        1 SP2     -0.171000
     24 C17        10.2930   14.7630    2.3930 c2        1 SP2     -0.119000
     25 C18        10.8190   15.8100    3.0930 c3        1 SP2     -0.134000
     26 CM6        11.2780   17.0460    2.3660 c3        1 SP2     -0.067000
     27 C19        10.9300   15.7350    4.4920 c2        1 SP2     -0.034000
     28 C20        11.5490   16.7310    5.1790 c2        1 SP2     -0.139000
     29 C21        11.5480   16.7210    6.5970 c3        1 SP2     -0.013000
     30 C22        12.0660   17.7520    7.2720 c2        1 SP2     -0.290000
     31 CM7        12.5050   18.9910    6.5360 c3        1 SP2     -0.030000
     32 C23        12.2080   17.6760    8.7710 c3        1 SP2     -0.022000
     33 C24        13.5760   17.0890    9.1240 c3        1 SP2     -0.082000
     34 C25        13.7190   17.0130   10.6210 c2        1 SP2     -0.152000
     35 C26        13.8600   15.8500   11.2060 c2        1 SP2     -0.143000
     36 CM8        13.6950   14.5810   10.4110 c3        1 SP2     -0.065000
     37 C27        14.1880   15.7810   12.6750 c3        1 SP2     -0.074000
     38 C28        12.8920   15.7460   13.4870 c3        1 SP2     -0.138000
     39 C29        13.2200   15.6770   14.9570 c2        1 SP2     -0.519000
     40 C30        12.8580   16.6500   15.7550 c2        1 SP2      0.047000
     41 CMB        13.0180   16.5000   17.2460 c3        1 SP2     -0.109500
     42 CM9        12.2810   17.9190   15.1820 c3        1 SP2     -0.109500
     43 HMA1       -0.3610   -0.9560    0.3600 h1        1 SP2      0.036000
     44 HMA2       -0.3610    0.1660   -1.0080 h1        1 SP2      0.036000
     45 HMA3       -0.3610    0.7900    0.6480 h1        1 SP2      0.036000
     46 HM11        1.2550    2.0660    1.3290 hc        1 SP2      0.055500
     47 HM12        0.3560    1.0760    2.4860 hc        1 SP2      0.055500
     48 HM13        2.0220    1.5560    2.8390 hc        1 SP2      0.055500
     49 HM21        1.8300   -1.4220    2.9800 hc        1 SP2      0.055500
     50 HM22        1.3370   -2.0880    1.4170 hc        1 SP2      0.055500
     51 HM23        0.2300   -1.0500    2.3250 hc        1 SP2      0.055500
     52 H21A        3.6830   -0.0390    2.4770 hc        1 SP2      0.064000
     53 H22         3.7320   -0.9370    0.9540 hc        1 SP2      0.064000
     54 H31         3.5830    2.0890    1.2200 hc        1 SP2      0.064500
     55 H32         3.6320    1.1910   -0.3040 hc        1 SP2      0.064500
     56 H41         5.8340    0.2540    0.3200 hc        1 SP2      0.064000
     57 H42         5.7850    1.1520    1.8430 hc        1 SP2      0.064000
     58 HM31        7.3830    2.6150   -1.5210 hc        1 SP2      0.053333
     59 HM32        6.2250    1.2930   -1.7210 hc        1 SP2      0.053333
     60 HM33        5.6930    2.9700   -1.9010 hc        1 SP2      0.053333
     61 H6          5.6640    4.1130    0.1440 DU        1 SP2      0.305000
     62 H7          7.3480    3.9680    0.6300 DU        1 SP2      0.305000
     63 H8          6.3430    6.4640    0.3320 DU        1 SP2      0.056000
     64 HM41        7.6620    5.9340   -1.6980 hc        1 SP2      0.066667
     65 HM42        6.6150    7.3590   -1.7540 hc        1 SP2      0.066667
     66 HM43        8.3700    7.5550   -1.6400 hc        1 SP2      0.066667
     67 H10         7.0650    8.6940    0.3480 DU        1 SP2      0.288500
     68 H11         7.1400    9.0690    0.7640 DU        1 SP2      0.288500
     69 H12         7.7480   11.0500    0.5710 DU        1 SP2      0.060000
     70 HM51        8.3370   10.6570   -1.6290 hc        1 SP2      0.066000
     71 HM52        7.8900   12.3630   -1.4870 hc        1 SP2      0.066000
     72 HM53        9.5880   11.9070   -1.6820 hc        1 SP2      0.066000
     73 H14         8.5190   13.3760    0.6140 DU        1 SP2      0.192000
     74 H15         9.5630   13.8410   -0.7860 hc        1 SP2      0.066000
     75 H16        10.5110   15.7270    0.4750 ha        1 SP2      0.103000
     76 H17         9.9620   13.8730    2.9160 ha        1 SP2      0.155000
     77 HM61       11.6040   17.7880    3.0850 hc        1 SP2      0.054000
     78 HM62       12.1020   16.7940    1.7090 hc        1 SP2      0.054000
     79 HM63       10.4590   17.4460    1.7810 hc        1 SP2      0.054000
     80 H19        11.7390   15.4250    3.8410 DU        1 SP2      0.131000
     81 H20        12.2690   16.1510    5.7430 DU        1 SP2      0.063000
     82 H21        11.2320   15.8320    7.1280 hc        1 SP2      0.118000
     83 HM71       11.6780   19.3760    5.9510 hc        1 SP2      0.038667
     84 HM72       13.3300   18.7460    5.8770 hc        1 SP2      0.038667
     85 HM73       12.8230   19.7420    7.2490 hc        1 SP2      0.038667
     86 H231       11.4280   17.0430    9.1760 hc        1 SP2      0.051000
     87 H232       12.1220   18.6700    9.1930 hc        1 SP2      0.051000
     88 H241       14.3560   17.7220    8.7180 hc        1 SP2      0.063000
     89 H242       13.6620   16.0950    8.7010 hc        1 SP2      0.063000
     90 H25        13.8380   17.9230   11.1960 ha        1 SP2      0.099000
     91 HM81       14.4590   14.5330    9.6450 hc        1 SP2      0.051000
     92 HM82       12.7160   14.5710    9.9470 hc        1 SP2      0.051000
     93 HM83       13.7900   13.7270   11.0710 hc        1 SP2      0.051000
     94 H271       14.7640   14.8850   12.8750 hc        1 SP2      0.066000
     95 H272       14.7670   16.6520   12.9570 hc        1 SP2      0.066000
     96 H281       12.3140   14.8740   13.2050 hc        1 SP2      0.075500
     97 H282       12.3160   16.6410   13.2870 hc        1 SP2      0.075500
     98 H29        13.8660   16.2120   14.2710 ha        1 SP2      0.321000
     99 HMB1       12.1770   16.9640   17.7470 hc        1 SP2      0.057167
    100 HMB2       13.0550   15.4480   17.5010 hc        1 SP2      0.057167
    101 HMB3       13.9360   16.9810   17.5610 hc        1 SP2      0.057167
    102 HM91       12.0900   18.6220   15.9830 hc        1 SP2      0.057167
    103 HM92       11.3540   17.6940   14.6700 hc        1 SP2      0.057167
    104 HM93       12.9850   18.3520   14.4820 hc        1 SP2      0.057167
@<TRIPOS>BOND
     1    1    2 1   
     2    1   43 1   
     3    1   44 1   
     4    1   45 1   
     5    2    3 1   
     6    3    4 1   
     7    3    5 1   
     8    3    6 1   
     9    4   46 1   
    10    4   47 1   
    11    4   48 1   
    12    5   49 1   
    13    5   50 1   
    14    5   51 1   
    15    6    7 1   
    16    6   52 1   
    17    6   53 1   
    18    7    8 1   
    19    7   54 1   
    20    7   55 1   
    21    8    9 1   
    22    8   56 1   
    23    8   57 1   
    24    9   10 1   
    25    9   11 1   
    26   10   58 1   
    27   10   59 1   
    28   10   60 1   
    29   11   12 1   
    30   11   61 1   
    31   11   62 1   
    32   12   13 1   
    33   12   61 1   
    34   12   62 1   
    35   13   14 1   
    36   13   63 1   
    37   14   15 1   
    38   14   16 1   
    39   14   63 1   
    40   15   64 1   
    41   15   65 1   
    42   15   66 1   
    43   16   17 1   
    44   16   67 1   
    45   16   68 1   
    46   17   18 1   
    47   17   67 1   
    48   17   68 1   
    49   18   19 1   
    50   18   69 1   
    51   19   20 1   
    52   19   21 1   
    53   19   69 1   
    54   20   70 1   
    55   20   71 1   
    56   20   72 1   
    57   21   22 1   
    58   21   73 1   
    59   22   23 1   
    60   22   73 1   
    61   22   74 1   
    62   23   24 1   
    63   23   75 1   
    64   24   25 1   
    65   24   76 1   
    66   25   26 1   
    67   25   27 1   
    68   25   80 1   
    69   26   77 1   
    70   26   78 1   
    71   26   79 1   
    72   27   28 1   
    73   27   80 1   
    74   28   29 1   
    75   28   81 1   
    76   29   30 1   
    77   29   81 1   
    78   29   82 1   
    79   30   31 1   
    80   30   32 1   
    81   31   83 1   
    82   31   84 1   
    83   31   85 1   
    84   32   33 1   
    85   32   86 1   
    86   32   87 1   
    87   33   34 1   
    88   33   88 1   
    89   33   89 1   
    90   34   35 1   
    91   34   90 1   
    92   35   36 1   
    93   35   37 1   
    94   36   91 1   
    95   36   92 1   
    96   36   93 1   
    97   37   38 1   
    98   37   94 1   
    99   37   95 1   
   100   38   39 1   
   101   38   96 1   
   102   38   97 1   
   103   39   40 1   
   104   39   98 1   
   105   40   41 1   
   106   40   42 1   
   107   41   99 1   
   108   41  100 1   
   109   41  101 1   
   110   42  102 1   
   111   42  103 1   
   112   42  104 1   
   113   67   68 1   
@<TRIPOS>SUBSTRUCTURE
     1 SP2         1 TEMP              0 ****  ****    0 ROOT
