@<TRIPOS>MOLECULE
SP3
   47    50     1     0     0
SMALL
bcc


@<TRIPOS>ATOM
      1 C30        -0.3800    0.1680    0.3470 ca        1 SP3     -0.102000
      2 C31         0.9490    0.5480    0.4840 ca        1 SP3     -0.157500
      3 C32         1.3880    1.1420    1.6820 ca        1 SP3      0.135900
      4 F35         2.6830    1.5120    1.8160 f         1 SP3     -0.129900
      5 C33         0.4860    1.3440    2.7430 ca        1 SP3     -0.157500
      6 C34        -0.8450    0.9720    2.6010 ca        1 SP3     -0.102000
      7 C29        -1.2930    0.3950    1.3960 ca        1 SP3     -0.006200
      8 N8         -2.6670    0.0400    1.2540 na        1 SP3      0.143300
      9 N7         -3.2830   -0.8360    2.0640 nc        1 SP3     -0.478800
     10 C6         -4.5220   -1.0740    1.5340 cd        1 SP3      0.416800
     11 C3         -5.5090   -1.9290    2.1250 cd        1 SP3     -0.164600
     12 C2         -5.3820   -2.6320    3.3140 cc        1 SP3     -0.121000
     13 C1         -6.5570   -3.3880    3.6060 cc        1 SP3     -0.161000
     14 C5         -7.5200   -3.2270    2.6310 cd        1 SP3     -0.167100
     15 S4         -7.0150   -2.2050    1.4180 ss        1 SP3      0.045200
     16 C10        -4.6880   -0.3410    0.2940 cd        1 SP3     -0.306300
     17 C9         -3.4780    0.3630    0.1220 cc        1 SP3      0.113300
     18 N11        -3.1270    1.2640   -0.8770 nh        1 SP3     -0.750500
     19 S12        -4.1580    2.3070   -1.5950 sy        1 SP3      1.517200
     20 O13        -5.4150    1.7210   -1.8030 o         1 SP3     -0.632800
     21 O14        -3.4840    2.8490   -2.7050 o         1 SP3     -0.632800
     22 C15        -4.3350    3.5350   -0.4350 ca        1 SP3     -0.384500
     23 C16        -3.4580    4.6250   -0.4220 ca        1 SP3      0.056000
     24 C20        -5.3790    3.4940    0.4960 ca        1 SP3      0.056000
     25 C19        -5.5330    4.5190    1.4310 ca        1 SP3     -0.199300
     26 C25        -6.6620    4.4550    2.4560 c3        1 SP3      0.692200
     27 F28        -7.1600    5.6820    2.8190 f         1 SP3     -0.228133
     28 F26        -7.7610    3.7440    2.0440 f         1 SP3     -0.228133
     29 F27        -6.3000    3.8690    3.6440 f         1 SP3     -0.228133
     30 C18        -4.6520    5.6020    1.4470 ca        1 SP3      0.023000
     31 C17        -3.6150    5.6490    0.5130 ca        1 SP3     -0.199300
     32 C21        -2.6570    6.8370    0.5050 c3        1 SP3      0.692200
     33 F24        -3.0520    7.8670   -0.3120 f         1 SP3     -0.228133
     34 F22        -2.4790    7.4240    1.7340 f         1 SP3     -0.228133
     35 F23        -1.3870    6.5320    0.0830 f         1 SP3     -0.228133
     36 H30        -0.7000   -0.3330   -0.5810 ha        1 SP3      0.156500
     37 H31         1.6650    0.3780   -0.3340 ha        1 SP3      0.159500
     38 H33         0.8420    1.7950    3.6820 ha        1 SP3      0.159500
     39 H34        -1.5430    1.1220    3.4410 ha        1 SP3      0.156500
     40 H2         -4.4980   -2.6180    3.9560 ha        1 SP3      0.166000
     41 H1         -6.6610   -4.0100    4.4970 ha        1 SP3      0.156000
     42 H5         -8.5010   -3.7010    2.6300 h4        1 SP3      0.173000
     43 H10        -5.5550   -0.3310   -0.3600 ha        1 SP3      0.197000
     44 H11        -2.1600    1.2540   -1.1260 hn        1 SP3      0.466800
     45 H16        -2.6410    4.6840   -1.1680 ha        1 SP3      0.181000
     46 H20        -6.0980    2.6510    0.4800 ha        1 SP3      0.181000
     47 H18        -4.7750    6.4120    2.1880 ha        1 SP3      0.176000
@<TRIPOS>BOND
     1    1    2 ar  
     2    1    7 ar  
     3    1   36 1   
     4    2    3 ar  
     5    2   37 1   
     6    3    4 1   
     7    3    5 ar  
     8    5    6 ar  
     9    5   38 1   
    10    6    7 ar  
    11    6   39 1   
    12    7    8 1   
    13    8    9 1   
    14    8   17 1   
    15    9   10 2   
    16   10   11 1   
    17   10   16 1   
    18   11   12 2   
    19   11   15 1   
    20   12   13 1   
    21   12   40 1   
    22   13   14 2   
    23   13   41 1   
    24   14   15 1   
    25   14   42 1   
    26   16   17 2   
    27   16   43 1   
    28   17   18 1   
    29   18   19 1   
    30   18   44 1   
    31   19   20 2   
    32   19   21 2   
    33   19   22 1   
    34   22   23 ar  
    35   22   24 ar  
    36   23   31 ar  
    37   23   45 1   
    38   24   25 ar  
    39   24   46 1   
    40   25   26 1   
    41   25   30 ar  
    42   26   27 1   
    43   26   28 1   
    44   26   29 1   
    45   30   31 ar  
    46   30   47 1   
    47   31   32 1   
    48   32   33 1   
    49   32   34 1   
    50   32   35 1   
@<TRIPOS>SUBSTRUCTURE
     1 SP3         1 TEMP              0 ****  ****    0 ROOT
