@<TRIPOS>MOLECULE
SP3
   48    51     1     0     0
SMALL
bcc


@<TRIPOS>ATOM
      1 C30        -0.4000    0.3780    0.4110 ca        1 SP3     -0.100000
      2 C31         0.8720    0.8780    0.6550 ca        1 SP3     -0.153000
      3 C32         1.1370    1.5700    1.8550 ca        1 SP3      0.169900
      4 F35         2.3730    2.0560    2.0900 f         1 SP3     -0.103900
      5 C33         0.1170    1.7450    2.8090 ca        1 SP3     -0.153000
      6 C34        -1.1590    1.2510    2.5620 ca        1 SP3     -0.100000
      7 C29        -1.4300    0.5830    1.3520 ca        1 SP3     -0.065200
      8 N8         -2.7410    0.0700    1.0960 na        1 SP3      0.203300
      9 N7         -3.4360   -0.6780    1.9480 nc        1 SP3     -0.427800
     10 C6         -4.6480   -0.9680    1.3590 cd        1 SP3      0.441800
     11 C3         -5.6700   -1.7660    1.9630 cd        1 SP3     -0.222600
     12 C2         -5.6300   -2.3010    3.2460 cc        1 SP3     -0.086000
     13 C1         -6.8050   -3.0530    3.5380 cc        1 SP3     -0.159000
     14 C5         -7.6820   -3.0590    2.4710 cd        1 SP3     -0.132100
     15 S4         -7.1000   -2.1930    1.1770 ss        1 SP3      0.053200
     16 C10        -4.7210   -0.3480    0.0560 cd        1 SP3     -0.228300
     17 C9         -3.4900    0.3350   -0.0830 cc        1 SP3     -0.132700
     18 N11        -3.0350    1.1050   -1.2020 n4        1 SP3     -0.527300
     19 S12        -4.3130    2.4460   -1.7730 sy        1 SP3      1.483200
     20 O13        -5.4680    1.7160   -1.9140 o         1 SP3     -0.556800
     21 O14        -3.6170    2.9250   -2.8630 o         1 SP3     -0.556800
     22 C15        -4.2720    3.4300   -0.4930 ca        1 SP3     -0.517500
     23 C16        -3.3820    4.5250   -0.4550 ca        1 SP3      0.075500
     24 C20        -5.1750    3.2720    0.5790 ca        1 SP3      0.075500
     25 C19        -5.1810    4.1660    1.6440 ca        1 SP3     -0.195300
     26 C25        -6.1580    3.9600    2.8080 c3        1 SP3      0.695200
     27 F28        -6.5590    5.1260    3.4030 f         1 SP3     -0.211633
     28 F26        -7.3140    3.3180    2.4480 f         1 SP3     -0.211633
     29 F27        -5.6300    3.2010    3.8220 f         1 SP3     -0.211633
     30 C18        -4.2940    5.2480    1.6710 ca        1 SP3      0.077000
     31 C17        -3.3930    5.4150    0.6120 ca        1 SP3     -0.195300
     32 C21        -2.4180    6.6000    0.6180 c3        1 SP3      0.695200
     33 F24        -2.8880    7.6950   -0.0580 f         1 SP3     -0.211633
     34 F22        -2.1100    7.0510    1.8740 f         1 SP3     -0.211633
     35 F23        -1.2110    6.3090    0.0340 f         1 SP3     -0.211633
     36 H30        -0.5710   -0.2200   -0.4990 ha        1 SP3      0.158500
     37 H31         1.6850    0.7180   -0.0710 ha        1 SP3      0.177500
     38 H33         0.3400    2.2620    3.7570 ha        1 SP3      0.177500
     39 H34        -1.9420    1.3700    3.3290 ha        1 SP3      0.158500
     40 H2         -4.8070   -2.1740    3.9540 ha        1 SP3      0.171000
     41 H1         -6.9730   -3.5560    4.4930 ha        1 SP3      0.173000
     42 H5         -8.6480   -3.5670    2.4540 h4        1 SP3      0.189000
     43 H10        -5.5460   -0.3950   -0.6530 ha        1 SP3      0.208000
     44 H11        -2.1370    1.5450   -0.9810 hn        1 SP3      0.456300
     45 H16        -2.6730    4.6900   -1.2930 ha        1 SP3      0.191500
     46 H20        -5.9010    2.4310    0.5690 ha        1 SP3      0.191500
     47 H18        -4.3060    5.9650    2.5170 ha        1 SP3      0.204000
     48 H112       -2.8620    0.4590   -1.9780 hn        1 SP3      0.456300
@<TRIPOS>BOND
     1    1    2 ar  
     2    1    7 ar  
     3    1   36 1   
     4    2    3 ar  
     5    2   37 1   
     6    3    4 1   
     7    3    5 ar  
     8    5    6 ar  
     9    5   38 1   
    10    6    7 ar  
    11    6   39 1   
    12    7    8 1   
    13    8    9 1   
    14    8   17 1   
    15    9   10 2   
    16   10   11 1   
    17   10   16 1   
    18   11   12 2   
    19   11   15 1   
    20   12   13 1   
    21   12   40 1   
    22   13   14 2   
    23   13   41 1   
    24   14   15 1   
    25   14   42 1   
    26   16   17 2   
    27   16   43 1   
    28   17   18 1   
    29   18   19 1   
    30   18   44 1   
    31   18   48 1   
    32   19   20 2   
    33   19   21 2   
    34   19   22 1   
    35   22   23 ar  
    36   22   24 ar  
    37   23   31 ar  
    38   23   45 1   
    39   24   25 ar  
    40   24   46 1   
    41   25   26 1   
    42   25   30 ar  
    43   26   27 1   
    44   26   28 1   
    45   26   29 1   
    46   30   31 ar  
    47   30   47 1   
    48   31   32 1   
    49   32   33 1   
    50   32   34 1   
    51   32   35 1   
@<TRIPOS>SUBSTRUCTURE
     1 SP3         1 TEMP              0 ****  ****    0 ROOT
