@<TRIPOS>MOLECULE
SP3
   47    50     1     0     0
SMALL
bcc


@<TRIPOS>ATOM
      1 C30        -0.3990    0.1730    0.2760 ca        1 SP3     -0.102000
      2 C31         0.9340    0.5460    0.4030 ca        1 SP3     -0.157500
      3 C32         1.3910    1.1150    1.6060 ca        1 SP3      0.135900
      4 F35         2.6880    1.4780    1.7300 f         1 SP3     -0.129900
      5 C33         0.5040    1.3000    2.6820 ca        1 SP3     -0.157500
      6 C34        -0.8310    0.9340    2.5510 ca        1 SP3     -0.102000
      7 C29        -1.2970    0.3830    1.3410 ca        1 SP3     -0.006200
      8 N8         -2.6740    0.0350    1.2100 na        1 SP3      0.143300
      9 N7         -3.2820   -0.8550    2.0110 nc        1 SP3     -0.478800
     10 C6         -4.5280   -1.0790    1.4930 cd        1 SP3      0.416800
     11 C3         -5.5110   -1.9420    2.0790 cd        1 SP3     -0.164600
     12 C2         -5.3700   -2.6700    3.2520 cc        1 SP3     -0.121000
     13 C1         -6.5440   -3.4270    3.5440 cc        1 SP3     -0.161000
     14 C5         -7.5190   -3.2430    2.5860 cd        1 SP3     -0.167100
     15 S4         -7.0270   -2.1980    1.3880 ss        1 SP3      0.045200
     16 C10        -4.7080   -0.3200    0.2700 cd        1 SP3     -0.306300
     17 C9         -3.4980    0.3830    0.0950 cc        1 SP3      0.113300
     18 N11        -3.1570    1.3020   -0.8900 nu        1 SP3     -0.750500
     19 S12        -4.1940    2.3630   -1.5740 sy        1 SP3      1.517200
     20 O13        -5.4560    1.7860   -1.7750 o         1 SP3     -0.632800
     21 O14        -3.5330    2.9220   -2.6830 o         1 SP3     -0.632800
     22 C15        -4.3490    3.5690   -0.3890 ca        1 SP3     -0.384500
     23 C16        -3.4670    4.6550   -0.3670 ca        1 SP3      0.056000
     24 C20        -5.3810    3.5150    0.5560 ca        1 SP3      0.056000
     25 C19        -5.5180    4.5230    1.5120 ca        1 SP3     -0.199300
     26 C25        -6.6330    4.4440    2.5500 c3        1 SP3      0.692200
     27 F28        -7.1200    5.6670    2.9440 f         1 SP3     -0.228133
     28 F26        -7.7410    3.7470    2.1400 f         1 SP3     -0.228133
     29 F27        -6.2580    3.8350    3.7220 f         1 SP3     -0.228133
     30 C18        -4.6310    5.6020    1.5360 ca        1 SP3      0.023000
     31 C17        -3.6070    5.6620    0.5880 ca        1 SP3     -0.199300
     32 C21        -2.6440    6.8460    0.5900 c3        1 SP3      0.692200
     33 F24        -3.0460    7.8930   -0.2020 f         1 SP3     -0.228133
     34 F22        -2.4460    7.4090    1.8260 f         1 SP3     -0.228133
     35 F23        -1.3810    6.5440    0.1440 f         1 SP3     -0.228133
     36 H30        -0.7320   -0.3090   -0.6570 ha        1 SP3      0.156500
     37 H31         1.6380    0.3890   -0.4280 ha        1 SP3      0.159500
     38 H33         0.8730    1.7310    3.6240 ha        1 SP3      0.159500
     39 H34        -1.5170    1.0710    3.4030 ha        1 SP3      0.156500
     40 H2         -4.4780   -2.6720    3.8820 ha        1 SP3      0.166000
     41 H1         -6.6380   -4.0670    4.4240 ha        1 SP3      0.156000
     42 H5         -8.5020   -3.7130    2.5890 h4        1 SP3      0.173000
     43 H10        -5.5840   -0.2940   -0.3730 ha        1 SP3      0.197000
     44 H11        -2.1940    1.2940   -1.1520 hn        1 SP3      0.466800
     45 H16        -2.6600    4.7250   -1.1230 ha        1 SP3      0.181000
     46 H20        -6.1040    2.6760    0.5340 ha        1 SP3      0.181000
     47 H18        -4.7410    6.3990    2.2930 ha        1 SP3      0.176000
@<TRIPOS>BOND
     1    1    2 ar  
     2    1    7 ar  
     3    1   36 1   
     4    2    3 ar  
     5    2   37 1   
     6    3    4 1   
     7    3    5 ar  
     8    5    6 ar  
     9    5   38 1   
    10    6    7 ar  
    11    6   39 1   
    12    7    8 1   
    13    8    9 1   
    14    8   17 1   
    15    9   10 2   
    16   10   11 1   
    17   10   16 1   
    18   11   12 2   
    19   11   15 1   
    20   12   13 1   
    21   12   40 1   
    22   13   14 2   
    23   13   41 1   
    24   14   15 1   
    25   14   42 1   
    26   16   17 2   
    27   16   43 1   
    28   17   18 1   
    29   18   19 1   
    30   18   44 1   
    31   19   20 2   
    32   19   21 2   
    33   19   22 1   
    34   22   23 ar  
    35   22   24 ar  
    36   23   31 ar  
    37   23   45 1   
    38   24   25 ar  
    39   24   46 1   
    40   25   26 1   
    41   25   30 ar  
    42   26   27 1   
    43   26   28 1   
    44   26   29 1   
    45   30   31 ar  
    46   30   47 1   
    47   31   32 1   
    48   32   33 1   
    49   32   34 1   
    50   32   35 1   
@<TRIPOS>SUBSTRUCTURE
     1 SP3         1 TEMP              0 ****  ****    0 ROOT
