@<TRIPOS>MOLECULE
SP3
   47    50     1     0     0
SMALL
bcc


@<TRIPOS>ATOM
      1 C30        -4.0030   -0.6650   -0.3590 ca        1 SP3     -0.102000
      2 C31        -4.8250   -1.6740    0.1270 ca        1 SP3     -0.157500
      3 C32        -4.7740   -2.0250    1.4880 ca        1 SP3      0.135900
      4 F35        -5.5740   -3.0080    1.9620 f         1 SP3     -0.129900
      5 C33        -3.8970   -1.3520    2.3590 ca        1 SP3     -0.157500
      6 C34        -3.0690   -0.3490    1.8700 ca        1 SP3     -0.102000
      7 C29        -3.1030   -0.0080    0.5030 ca        1 SP3     -0.006200
      8 N8         -2.2310    1.0060    0.0080 na        1 SP3      0.143300
      9 N7         -2.2440    2.2680    0.4670 nc        1 SP3     -0.478800
     10 C6         -1.4210    3.0010   -0.3450 cd        1 SP3      0.416800
     11 C3         -1.1340    4.3940   -0.1690 cd        1 SP3     -0.164600
     12 C2         -1.6200    5.2120    0.8400 cc        1 SP3     -0.121000
     13 C1         -1.1330    6.5480    0.7140 cc        1 SP3     -0.161000
     14 C5         -0.3030    6.6850   -0.3790 cd        1 SP3     -0.167100
     15 S4         -0.1260    5.2550   -1.2120 ss        1 SP3      0.045200
     16 C10        -0.8880    2.1670   -1.4050 cd        1 SP3     -0.306300
     17 C9         -1.4300    0.8860   -1.1690 cc        1 SP3      0.113300
     18 N11        -1.1990   -0.2990   -1.8560 nh        1 SP3     -0.750500
     19 S12         0.2290   -0.7240   -2.5280 sy        1 SP3      1.517200
     20 O13         0.8690    0.3810   -3.1080 o         1 SP3     -0.632800
     21 O14        -0.0180   -1.8500   -3.3350 o         1 SP3     -0.632800
     22 C15         1.1500   -1.2250   -1.1920 ca        1 SP3     -0.384500
     23 C16         1.1100   -2.5570   -0.7660 ca        1 SP3      0.056000
     24 C20         1.9890   -0.3250   -0.5230 ca        1 SP3      0.056000
     25 C19         2.7610   -0.7490    0.5580 ca        1 SP3     -0.199300
     26 C25         3.6570    0.2440    1.2940 c3        1 SP3      0.692200
     27 F28         4.8060   -0.3070    1.8040 f         1 SP3     -0.228133
     28 F26         4.0900    1.2940    0.5240 f         1 SP3     -0.228133
     29 F27         3.0550    0.8380    2.3770 f         1 SP3     -0.228133
     30 C18         2.7140   -2.0780    0.9860 ca        1 SP3      0.023000
     31 C17         1.8850   -2.9790    0.3150 ca        1 SP3     -0.199300
     32 C21         1.8390   -4.4380    0.7570 c3        1 SP3      0.692200
     33 F24         2.7480   -5.2440    0.1180 f         1 SP3     -0.228133
     34 F22         2.0920   -4.6300    2.0930 f         1 SP3     -0.228133
     35 F23         0.6290   -5.0520    0.5460 f         1 SP3     -0.228133
     36 H30        -4.0850   -0.3720   -1.4190 ha        1 SP3      0.156500
     37 H31        -5.5260   -2.1940   -0.5440 ha        1 SP3      0.159500
     38 H33        -3.8740   -1.6230    3.4250 ha        1 SP3      0.159500
     39 H34        -2.3930    0.1820    2.5610 ha        1 SP3      0.156500
     40 H2         -2.2930    4.8880    1.6370 ha        1 SP3      0.166000
     41 H1         -1.3970    7.3470    1.4090 ha        1 SP3      0.156000
     42 H5          0.1910    7.6070   -0.6830 h4        1 SP3      0.173000
     43 H10        -0.2140    2.4600   -2.2060 ha        1 SP3      0.197000
     44 H11        -1.9820   -0.9170   -1.8990 hn        1 SP3      0.466800
     45 H16         0.4700   -3.2870   -1.3000 ha        1 SP3      0.181000
     46 H20         2.0520    0.7270   -0.8660 ha        1 SP3      0.181000
     47 H18         3.3260   -2.4120    1.8430 ha        1 SP3      0.176000
@<TRIPOS>BOND
     1    1    2 ar  
     2    1    7 ar  
     3    1   36 1   
     4    2    3 ar  
     5    2   37 1   
     6    3    4 1   
     7    3    5 ar  
     8    5    6 ar  
     9    5   38 1   
    10    6    7 ar  
    11    6   39 1   
    12    7    8 1   
    13    8    9 1   
    14    8   17 1   
    15    9   10 2   
    16   10   11 1   
    17   10   16 1   
    18   11   12 2   
    19   11   15 1   
    20   12   13 1   
    21   12   40 1   
    22   13   14 2   
    23   13   41 1   
    24   14   15 1   
    25   14   42 1   
    26   16   17 2   
    27   16   43 1   
    28   17   18 1   
    29   18   19 1   
    30   18   44 1   
    31   19   20 2   
    32   19   21 2   
    33   19   22 1   
    34   22   23 ar  
    35   22   24 ar  
    36   23   31 ar  
    37   23   45 1   
    38   24   25 ar  
    39   24   46 1   
    40   25   26 1   
    41   25   30 ar  
    42   26   27 1   
    43   26   28 1   
    44   26   29 1   
    45   30   31 ar  
    46   30   47 1   
    47   31   32 1   
    48   32   33 1   
    49   32   34 1   
    50   32   35 1   
@<TRIPOS>SUBSTRUCTURE
     1 SP3         1 TEMP              0 ****  ****    0 ROOT
