@<TRIPOS>MOLECULE
SP5
   49    48     1     0     0
SMALL
bcc


@<TRIPOS>ATOM
      1 CAB         0.1130   -0.0070    0.5950 c3        1 SP5     -0.193100
      2 CAC         1.5780   -0.0090    0.3600 c         1 SP5      0.581100
      3 OAA         2.5180   -0.0170    1.1240 o         1 SP5     -0.372100
      4 NAD         1.9760    0.0000   -1.1530 n4        1 SP5     -0.707800
      5 CAE         3.4480   -0.0050   -1.3530 c3        1 SP5      0.102800
      6 CAF         3.8880    0.0030   -2.8190 c3        1 SP5     -0.133400
      7 CAG         5.4190   -0.0010   -2.8540 c3        1 SP5      0.108800
      8 NAH         5.9790    0.0050   -4.2450 n4        1 SP5     -0.764000
      9 CAI         7.4790    0.0020   -4.2400 c3        1 SP5      0.106800
     10 CAJ         8.0870    0.0060   -5.6460 c3        1 SP5     -0.105400
     11 CAK         9.6070    0.0040   -5.5470 c3        1 SP5     -0.106400
     12 CAL        10.2180    0.0060   -6.9510 c3        1 SP5      0.107800
     13 NAM        11.7190    0.0060   -6.9390 n4        1 SP5     -0.764000
     14 CAN        12.2880    0.0060   -8.3270 c3        1 SP5      0.108800
     15 CAO        13.8190    0.0070   -8.3490 c3        1 SP5     -0.138400
     16 CAP        14.2860    0.0050   -9.8080 c3        1 SP5      0.105800
     17 NAQ        15.7670    0.0060   -9.9640 n4        1 SP5     -0.837600
     18 HAB        -0.0620    0.0080    1.7100 hc        1 SP5      0.138700
     19 HABA       -0.3690   -0.9310    0.1780 hc        1 SP5      0.138700
     20 HABB       -0.3750    0.8990    0.1510 hc        1 SP5      0.138700
     21 HNAD        1.5550   -0.8250   -1.5940 hn        1 SP5      0.461800
     22 HAE         3.8640    0.9020   -0.8190 hx        1 SP5      0.127700
     23 HAEA        3.8550   -0.9240   -0.8320 hx        1 SP5      0.127700
     24 HAF         3.4890    0.9170   -3.3370 hc        1 SP5      0.092700
     25 HAFA        3.4830   -0.9010   -3.3490 hc        1 SP5      0.092700
     26 HAG         5.8120   -0.9230   -2.3300 hx        1 SP5      0.126700
     27 HAGA        5.8180    0.9120   -2.3200 hx        1 SP5      0.126700
     28 HNAH        5.6380   -0.8230   -4.7530 hn        1 SP5      0.463800
     29 HAI         7.8200    0.9170   -3.6720 hx        1 SP5      0.122700
     30 HAIA        7.8170   -0.9180   -3.6780 hx        1 SP5      0.122700
     31 HAJ         7.7480   -0.9000   -6.2170 hc        1 SP5      0.087700
     32 HAJA        7.7500    0.9160   -6.2120 hc        1 SP5      0.087700
     33 HAK         9.9460    0.9110   -4.9760 hc        1 SP5      0.087700
     34 HAKA        9.9440   -0.9060   -4.9790 hc        1 SP5      0.087700
     35 HAL         9.8800   -0.9110   -7.5180 hx        1 SP5      0.122700
     36 HALA        9.8800    0.9240   -7.5160 hx        1 SP5      0.122700
     37 HNAM       12.0550    0.8370   -6.4340 hn        1 SP5      0.464800
     38 HAN        11.8960   -0.9120   -8.8580 hx        1 SP5      0.126700
     39 HANA       11.8950    0.9230   -8.8580 hx        1 SP5      0.126700
     40 HAO        14.2150    0.9170   -7.8190 hc        1 SP5      0.098700
     41 HAOA       14.2160   -0.9020   -7.8170 hc        1 SP5      0.098700
     42 HAP        13.8890    0.9220  -10.3400 hx        1 SP5      0.131700
     43 HAPA       13.8910   -0.9140  -10.3380 hx        1 SP5      0.131700
     44 HNAQ       16.0040    0.0050  -10.9700 hn        1 SP5      0.485467
     45 HNAA       16.1840    0.8430   -9.5350 hn        1 SP5      0.485467
     46 HAD2        1.5630    0.8350   -1.5820 hn        1 SP5      0.461800
     47 HAH2        5.6410    0.8400   -4.7440 hn        1 SP5      0.463800
     48 HAM2       12.0540   -0.8260   -6.4340 hn        1 SP5      0.464800
     49 HAQ3       16.1860   -0.8280   -9.5320 hn        1 SP5      0.485467
@<TRIPOS>BOND
     1    1    2 1   
     2    1   18 1   
     3    1   19 1   
     4    1   20 1   
     5    2    3 2   
     6    2    4 1   
     7    4    5 1   
     8    4   21 1   
     9    4   46 1   
    10    5    6 1   
    11    5   22 1   
    12    5   23 1   
    13    6    7 1   
    14    6   24 1   
    15    6   25 1   
    16    7    8 1   
    17    7   26 1   
    18    7   27 1   
    19    8    9 1   
    20    8   28 1   
    21    8   47 1   
    22    9   10 1   
    23    9   29 1   
    24    9   30 1   
    25   10   11 1   
    26   10   31 1   
    27   10   32 1   
    28   11   12 1   
    29   11   33 1   
    30   11   34 1   
    31   12   13 1   
    32   12   35 1   
    33   12   36 1   
    34   13   14 1   
    35   13   37 1   
    36   13   48 1   
    37   14   15 1   
    38   14   38 1   
    39   14   39 1   
    40   15   16 1   
    41   15   40 1   
    42   15   41 1   
    43   16   17 1   
    44   16   42 1   
    45   16   43 1   
    46   17   44 1   
    47   17   45 1   
    48   17   49 1   
@<TRIPOS>SUBSTRUCTURE
     1 SP5         1 TEMP              0 ****  ****    0 ROOT
