@<TRIPOS>MOLECULE
SP5
   49    48     1     0     0
SMALL
bcc


@<TRIPOS>ATOM
      1 CAB         0.1070   -0.0040    0.5880 c3        1 SP5     -0.193100
      2 CAC         1.5730   -0.0030    0.3550 c         1 SP5      0.581100
      3 OAA         2.5130   -0.0040    1.1190 o         1 SP5     -0.372100
      4 NAD         1.9730   -0.0000   -1.1590 ny        1 SP5     -0.707800
      5 CAE         3.4450   -0.0000   -1.3560 c3        1 SP5      0.102800
      6 CAF         3.8870    0.0020   -2.8220 c3        1 SP5     -0.133400
      7 CAG         5.4180    0.0020   -2.8560 c3        1 SP5      0.108800
      8 NAH         5.9780    0.0040   -4.2470 ny        1 SP5     -0.764000
      9 CAI         7.4790    0.0030   -4.2400 c3        1 SP5      0.106800
     10 CAJ         8.0880    0.0040   -5.6450 c3        1 SP5     -0.105400
     11 CAK         9.6080    0.0040   -5.5450 c3        1 SP5     -0.106400
     12 CAL        10.2200    0.0050   -6.9490 c3        1 SP5      0.107800
     13 NAM        11.7210    0.0040   -6.9360 ny        1 SP5     -0.764000
     14 CAN        12.2910    0.0040   -8.3230 c3        1 SP5      0.108800
     15 CAO        13.8220    0.0030   -8.3440 c3        1 SP5     -0.138400
     16 CAP        14.2900    0.0040   -9.8020 c3        1 SP5      0.105800
     17 NAQ        15.7710    0.0030   -9.9570 nz        1 SP5     -0.837600
     18 HAB        -0.0680   -0.0040    1.7030 hc        1 SP5      0.138700
     19 HABA       -0.3760   -0.9200    0.1570 hc        1 SP5      0.138700
     20 HABB       -0.3780    0.9100    0.1570 hc        1 SP5      0.138700
     21 HNAD        1.5560   -0.8290   -1.5960 hn        1 SP5      0.461800
     22 HAE         3.8560   -0.9140   -0.8310 hx        1 SP5      0.127700
     23 HAEA        3.8560    0.9110   -0.8280 hx        1 SP5      0.127700
     24 HAF         3.4850   -0.9060   -3.3480 hc        1 SP5      0.092700
     25 HAFA        3.4850    0.9120   -3.3450 hc        1 SP5      0.092700
     26 HAG         5.8120   -0.9170   -2.3280 hx        1 SP5      0.126700
     27 HAGA        5.8130    0.9180   -2.3250 hx        1 SP5      0.126700
     28 HNAH        5.6390   -0.8270   -4.7510 hn        1 SP5      0.463800
     29 HAI         7.8180    0.9190   -3.6740 hx        1 SP5      0.122700
     30 HAIA        7.8170   -0.9150   -3.6760 hx        1 SP5      0.122700
     31 HAJ         7.7500   -0.9030   -6.2150 hc        1 SP5      0.087700
     32 HAJA        7.7500    0.9130   -6.2130 hc        1 SP5      0.087700
     33 HAK         9.9450   -0.9060   -4.9760 hc        1 SP5      0.087700
     34 HAKA        9.9460    0.9110   -4.9750 hc        1 SP5      0.087700
     35 HAL         9.8830    0.9230   -7.5140 hx        1 SP5      0.122700
     36 HALA        9.8820   -0.9120   -7.5160 hx        1 SP5      0.122700
     37 HNAM       12.0560   -0.8280   -6.4310 hn        1 SP5      0.464800
     38 HAN        11.8980   -0.9120   -8.8550 hx        1 SP5      0.126700
     39 HANA       11.9000    0.9230   -8.8540 hx        1 SP5      0.126700
     40 HAO        14.2170   -0.9070   -7.8140 hc        1 SP5      0.098700
     41 HAOA       14.2190    0.9120   -7.8120 hc        1 SP5      0.098700
     42 HAP        13.8950    0.9230  -10.3330 hx        1 SP5      0.131700
     43 HAPA       13.8930   -0.9130  -10.3340 hx        1 SP5      0.131700
     44 HNAQ       16.0090    0.0040  -10.9630 hn        1 SP5      0.485467
     45 HNAA       16.1900    0.8380   -9.5260 hn        1 SP5      0.485467
     46 HAD2        1.5560    0.8300   -1.5930 hn        1 SP5      0.461800
     47 HAH2        5.6400    0.8360   -4.7490 hn        1 SP5      0.463800
     48 HAM2       12.0560    0.8350   -6.4290 hn        1 SP5      0.464800
     49 HAQ3       16.1890   -0.8330   -9.5270 hn        1 SP5      0.485467
@<TRIPOS>BOND
     1    1    2 1   
     2    1   18 1   
     3    1   19 1   
     4    1   20 1   
     5    2    3 2   
     6    2    4 1   
     7    4    5 1   
     8    4   21 1   
     9    4   46 1   
    10    5    6 1   
    11    5   22 1   
    12    5   23 1   
    13    6    7 1   
    14    6   24 1   
    15    6   25 1   
    16    7    8 1   
    17    7   26 1   
    18    7   27 1   
    19    8    9 1   
    20    8   28 1   
    21    8   47 1   
    22    9   10 1   
    23    9   29 1   
    24    9   30 1   
    25   10   11 1   
    26   10   31 1   
    27   10   32 1   
    28   11   12 1   
    29   11   33 1   
    30   11   34 1   
    31   12   13 1   
    32   12   35 1   
    33   12   36 1   
    34   13   14 1   
    35   13   37 1   
    36   13   48 1   
    37   14   15 1   
    38   14   38 1   
    39   14   39 1   
    40   15   16 1   
    41   15   40 1   
    42   15   41 1   
    43   16   17 1   
    44   16   42 1   
    45   16   43 1   
    46   17   44 1   
    47   17   45 1   
    48   17   49 1   
@<TRIPOS>SUBSTRUCTURE
     1 SP5         1 TEMP              0 ****  ****    0 ROOT
