@<TRIPOS>MOLECULE
SP5
   45    44     1     0     0
SMALL
bcc


@<TRIPOS>ATOM
      1 CAB         8.4860   -0.9960   -0.6390 c3        1 SP5     -0.176100
      2 CAC         7.2360   -0.1510   -0.6930 c         1 SP5      0.653100
      3 OAA         6.9810    0.5710   -1.6770 o         1 SP5     -0.607100
      4 NAD         6.4090   -0.1750    0.4170 n         1 SP5     -0.570900
      5 CAE         5.1390    0.4940    0.4490 c3        1 SP5      0.085000
      6 CAF         3.9290   -0.4370    0.3380 c3        1 SP5     -0.111400
      7 CAG         2.6530    0.3970    0.4420 c3        1 SP5      0.166800
      8 NAH         1.4490   -0.4080    0.4040 n3        1 SP5     -0.825200
      9 CAI         0.2390    0.3890    0.3420 c3        1 SP5      0.163800
     10 CAJ        -1.0160   -0.4470    0.1020 c3        1 SP5     -0.083400
     11 CAK        -2.2390    0.4440    0.1110 c3        1 SP5     -0.083400
     12 CAL        -3.4950   -0.3920   -0.1280 c3        1 SP5      0.164800
     13 NAM        -4.7050    0.4050   -0.1890 n3        1 SP5     -0.825200
     14 CAN        -5.9100   -0.4000   -0.2360 c3        1 SP5      0.164800
     15 CAO        -7.1840    0.4280   -0.0860 c3        1 SP5     -0.088400
     16 CAP        -8.3960   -0.4920   -0.2260 c3        1 SP5      0.159800
     17 NAQ        -9.6540    0.1900   -0.0300 n3        1 SP5     -0.916800
     18 HAB         9.1310   -0.6850    0.2170 hc        1 SP5      0.065367
     19 HABA        8.2250   -2.0760   -0.5270 hc        1 SP5      0.065367
     20 HABB        9.0540   -0.8570   -1.5910 hc        1 SP5      0.065367
     21 HNAD        6.5700   -0.8650    1.1110 hn        1 SP5      0.303500
     22 HAE         5.0710    1.0570    1.4250 h1        1 SP5      0.063200
     23 HAEA        5.1060    1.2450   -0.3920 h1        1 SP5      0.063200
     24 HAF         3.9540   -0.9810   -0.6410 hc        1 SP5      0.050700
     25 HAFA        3.9510   -1.2040    1.1540 hc        1 SP5      0.050700
     26 HAG         2.6540    0.9500    1.4250 h1        1 SP5      0.031700
     27 HAGA        2.6710    1.1780   -0.3770 h1        1 SP5      0.031700
     28 HNAH        1.4830   -1.0590   -0.3580 hn        1 SP5      0.355800
     29 HAI         0.1410    0.9230    1.3300 h1        1 SP5      0.030700
     30 HAIA        0.2950    1.1850   -0.4600 h1        1 SP5      0.030700
     31 HAJ        -0.9430   -0.9770   -0.8840 hc        1 SP5      0.047700
     32 HAJA       -1.1110   -1.2320    0.8980 hc        1 SP5      0.047700
     33 HAK        -2.3120    0.9740    1.0970 hc        1 SP5      0.048200
     34 HAKA       -2.1450    1.2290   -0.6850 hc        1 SP5      0.048200
     35 HAL        -3.3980   -0.9250   -1.1170 h1        1 SP5      0.028700
     36 HALA       -3.5490   -1.1890    0.6730 h1        1 SP5      0.028700
     37 HNAM       -4.7410    1.0520    0.5770 hn        1 SP5      0.356800
     38 HAN        -5.9220   -0.9200   -1.2360 h1        1 SP5      0.028700
     39 HANA       -5.9140   -1.2070    0.5570 h1        1 SP5      0.028700
     40 HAO        -7.2020    0.9330    0.9140 hc        1 SP5      0.053200
     41 HAOA       -7.2160    1.2280   -0.8710 hc        1 SP5      0.053200
     42 HAP        -8.3340   -1.0010   -1.2350 h1        1 SP5      0.025200
     43 HAPA       -8.3330   -1.3030    0.5550 h1        1 SP5      0.025200
     44 HNAQ       -9.7070    1.0170   -0.5900 hn        1 SP5      0.349800
     45 HNAA      -10.4160   -0.4140   -0.2610 hn        1 SP5      0.349800
@<TRIPOS>BOND
     1    1    2 1   
     2    1   18 1   
     3    1   19 1   
     4    1   20 1   
     5    2    3 2   
     6    2    4 1   
     7    4    5 1   
     8    4   21 1   
     9    5    6 1   
    10    5   22 1   
    11    5   23 1   
    12    6    7 1   
    13    6   24 1   
    14    6   25 1   
    15    7    8 1   
    16    7   26 1   
    17    7   27 1   
    18    8    9 1   
    19    8   28 1   
    20    9   10 1   
    21    9   29 1   
    22    9   30 1   
    23   10   11 1   
    24   10   31 1   
    25   10   32 1   
    26   11   12 1   
    27   11   33 1   
    28   11   34 1   
    29   12   13 1   
    30   12   35 1   
    31   12   36 1   
    32   13   14 1   
    33   13   37 1   
    34   14   15 1   
    35   14   38 1   
    36   14   39 1   
    37   15   16 1   
    38   15   40 1   
    39   15   41 1   
    40   16   17 1   
    41   16   42 1   
    42   16   43 1   
    43   17   44 1   
    44   17   45 1   
@<TRIPOS>SUBSTRUCTURE
     1 SP5         1 TEMP              0 ****  ****    0 ROOT
