@<TRIPOS>MOLECULE
SP5
   45    44     1     0     0
SMALL
bcc


@<TRIPOS>ATOM
      1 CAB        -6.5020   -0.7980    6.4860 c3        1 SP5     -0.176100
      2 CAC        -5.2120   -0.2210    5.9080 c         1 SP5      0.653100
      3 OAA        -4.4400    0.3860    6.6290 o         1 SP5     -0.607100
      4 NAD        -4.8790   -0.4470    4.5270 n         1 SP5     -0.570900
      5 CAE        -3.7380    0.1980    3.9520 c3        1 SP5      0.085000
      6 CAF        -3.4390   -0.4180    2.5710 c3        1 SP5     -0.111400
      7 CAG        -2.3620    0.4310    1.8520 c3        1 SP5      0.166800
      8 NAH        -1.7710   -0.3440    0.7760 n3        1 SP5     -0.825200
      9 CAI        -0.9820    0.5480   -0.1030 c3        1 SP5      0.163800
     10 CAJ        -0.1710   -0.3150   -1.1220 c3        1 SP5     -0.083400
     11 CAK         0.7460    0.5920   -1.9540 c3        1 SP5     -0.083400
     12 CAL         1.7160   -0.2700   -2.7550 c3        1 SP5      0.164800
     13 NAM         2.7300    0.5600   -3.3320 n3        1 SP5     -0.825200
     14 CAN         3.8650   -0.2420   -3.6760 c3        1 SP5      0.164800
     15 CAO         5.0530    0.6780   -4.0420 c3        1 SP5     -0.088400
     16 CAP         6.3240   -0.1730   -4.2360 c3        1 SP5      0.159800
     17 NAQ         7.4460    0.6870   -4.4280 n3        1 SP5     -0.916800
     18 HAB        -6.5330   -1.7740    6.3160 hc        1 SP5      0.065367
     19 HABA       -7.2710   -0.3690    6.0610 hc        1 SP5      0.065367
     20 HABB       -6.5290   -0.6340    7.4520 hc        1 SP5      0.065367
     21 HNAD       -5.3770   -1.0120    4.0290 hn        1 SP5      0.303500
     22 HAE        -2.9610    0.0730    4.5410 h1        1 SP5      0.063200
     23 HAEA       -3.9220    1.1610    3.8490 h1        1 SP5      0.063200
     24 HAF        -4.2560   -0.4290    2.0350 hc        1 SP5      0.050700
     25 HAFA       -3.1100   -1.3370    2.6860 hc        1 SP5      0.050700
     26 HAG        -2.7700    1.2290    1.4880 h1        1 SP5      0.031700
     27 HAGA       -1.6690    0.6820    2.4890 h1        1 SP5      0.031700
     28 HNAH       -1.2250   -0.9870    1.1270 hn        1 SP5      0.355800
     29 HAI        -0.3610    1.0820    0.4430 h1        1 SP5      0.030700
     30 HAIA       -1.5880    1.1470   -0.5920 h1        1 SP5      0.030700
     31 HAJ         0.3680   -0.9650   -0.6390 hc        1 SP5      0.047700
     32 HAJA       -0.7870   -0.7810   -1.7130 hc        1 SP5      0.047700
     33 HAK         1.2470    1.1780   -1.3620 hc        1 SP5      0.048200
     34 HAKA        0.2090    1.1260   -2.5610 hc        1 SP5      0.048200
     35 HAL         2.1350   -0.9340   -2.1590 h1        1 SP5      0.028700
     36 HALA        1.2280   -0.7320   -3.4680 h1        1 SP5      0.028700
     37 HNAM        2.4040    0.9620   -4.0800 hn        1 SP5      0.356800
     38 HAN         4.1090   -0.8030   -2.9160 h1        1 SP5      0.028700
     39 HANA        3.6440   -0.8080   -4.4390 h1        1 SP5      0.028700
     40 HAO         5.2010    1.3300   -3.3140 hc        1 SP5      0.053200
     41 HAOA        4.8500    1.1600   -4.8780 hc        1 SP5      0.053200
     42 HAP         6.2170   -0.7460   -5.0170 h1        1 SP5      0.025200
     43 HAPA        6.4700   -0.7260   -3.4430 h1        1 SP5      0.025200
     44 HNAQ        7.8370    0.5030   -5.2340 hn        1 SP5      0.349800
     45 HNAA        8.0570    0.5510   -3.7530 hn        1 SP5      0.349800
@<TRIPOS>BOND
     1    1    2 1   
     2    1   18 1   
     3    1   19 1   
     4    1   20 1   
     5    2    3 2   
     6    2    4 1   
     7    4    5 1   
     8    4   21 1   
     9    5    6 1   
    10    5   22 1   
    11    5   23 1   
    12    6    7 1   
    13    6   24 1   
    14    6   25 1   
    15    7    8 1   
    16    7   26 1   
    17    7   27 1   
    18    8    9 1   
    19    8   28 1   
    20    9   10 1   
    21    9   29 1   
    22    9   30 1   
    23   10   11 1   
    24   10   31 1   
    25   10   32 1   
    26   11   12 1   
    27   11   33 1   
    28   11   34 1   
    29   12   13 1   
    30   12   35 1   
    31   12   36 1   
    32   13   14 1   
    33   13   37 1   
    34   14   15 1   
    35   14   38 1   
    36   14   39 1   
    37   15   16 1   
    38   15   40 1   
    39   15   41 1   
    40   16   17 1   
    41   16   42 1   
    42   16   43 1   
    43   17   44 1   
    44   17   45 1   
@<TRIPOS>SUBSTRUCTURE
     1 SP5         1 TEMP              0 ****  ****    0 ROOT
