@<TRIPOS>MOLECULE
SP5
   49    48     1     0     0
SMALL
bcc


@<TRIPOS>ATOM
      1 CAB         0.1100   -0.0000    0.5920 c3        1 SP5     -0.193100
      2 CAC         1.5750   -0.0000    0.3580 c         1 SP5      0.581100
      3 OAA         2.5160   -0.0010    1.1220 o         1 SP5     -0.372100
      4 NAD         1.9740    0.0010   -1.1560 n4        1 SP5     -0.707800
      5 CAE         3.4460    0.0010   -1.3540 c3        1 SP5      0.102800
      6 CAF         3.8880    0.0020   -2.8200 c3        1 SP5     -0.133400
      7 CAG         5.4190    0.0010   -2.8540 c3        1 SP5      0.108800
      8 NAH         5.9790    0.0020   -4.2460 n4        1 SP5     -0.764000
      9 CAI         7.4790    0.0020   -4.2400 c3        1 SP5      0.106800
     10 CAJ         8.0880    0.0030   -5.6450 c3        1 SP5     -0.105400
     11 CAK         9.6070    0.0020   -5.5460 c3        1 SP5     -0.106400
     12 CAL        10.2180    0.0030   -6.9500 c3        1 SP5      0.107800
     13 NAM        11.7200    0.0030   -6.9380 n4        1 SP5     -0.764000
     14 CAN        12.2890    0.0030   -8.3250 c3        1 SP5      0.108800
     15 CAO        13.8210    0.0030   -8.3470 c3        1 SP5     -0.138400
     16 CAP        14.2880    0.0040   -9.8050 c3        1 SP5      0.105800
     17 NAQ        15.7690    0.0040   -9.9610 n4        1 SP5     -0.837600
     18 HAB        -0.0650   -0.0010    1.7070 hc        1 SP5      0.138700
     19 HABA       -0.3740   -0.9150    0.1610 hc        1 SP5      0.138700
     20 HABB       -0.3740    0.9150    0.1620 hc        1 SP5      0.138700
     21 HNAD        1.5570   -0.8280   -1.5920 hn        1 SP5      0.461800
     22 HAE         3.8580   -0.9120   -0.8280 hx        1 SP5      0.127700
     23 HAEA        3.8580    0.9130   -0.8270 hx        1 SP5      0.127700
     24 HAF         3.4860   -0.9070   -3.3450 hc        1 SP5      0.092700
     25 HAFA        3.4860    0.9110   -3.3440 hc        1 SP5      0.092700
     26 HAG         5.8140   -0.9170   -2.3260 hx        1 SP5      0.126700
     27 HAGA        5.8140    0.9180   -2.3250 hx        1 SP5      0.126700
     28 HNAH        5.6390   -0.8290   -4.7500 hn        1 SP5      0.463800
     29 HAI         7.8180    0.9190   -3.6740 hx        1 SP5      0.122700
     30 HAIA        7.8180   -0.9160   -3.6750 hx        1 SP5      0.122700
     31 HAJ         7.7490   -0.9050   -6.2150 hc        1 SP5      0.087700
     32 HAJA        7.7490    0.9110   -6.2140 hc        1 SP5      0.087700
     33 HAK         9.9450   -0.9060   -4.9770 hc        1 SP5      0.087700
     34 HAKA        9.9450    0.9100   -4.9760 hc        1 SP5      0.087700
     35 HAL         9.8820    0.9210   -7.5160 hx        1 SP5      0.122700
     36 HALA        9.8810   -0.9140   -7.5170 hx        1 SP5      0.122700
     37 HNAM       12.0550   -0.8290   -6.4320 hn        1 SP5      0.464800
     38 HAN        11.8970   -0.9140   -8.8570 hx        1 SP5      0.126700
     39 HANA       11.8970    0.9210   -8.8560 hx        1 SP5      0.126700
     40 HAO        14.2160   -0.9060   -7.8160 hc        1 SP5      0.098700
     41 HAOA       14.2170    0.9120   -7.8160 hc        1 SP5      0.098700
     42 HAP        13.8920    0.9220  -10.3360 hx        1 SP5      0.131700
     43 HAPA       13.8920   -0.9140  -10.3370 hx        1 SP5      0.131700
     44 HNAQ       16.0060    0.0040  -10.9670 hn        1 SP5      0.485467
     45 HNAA       16.1870    0.8390   -9.5300 hn        1 SP5      0.485467
     46 HAD2        1.5580    0.8310   -1.5900 hn        1 SP5      0.461800
     47 HAH2        5.6400    0.8340   -4.7480 hn        1 SP5      0.463800
     48 HAM2       12.0550    0.8340   -6.4320 hn        1 SP5      0.464800
     49 HAQ3       16.1870   -0.8320   -9.5300 hn        1 SP5      0.485467
@<TRIPOS>BOND
     1    1    2 1   
     2    1   18 1   
     3    1   19 1   
     4    1   20 1   
     5    2    3 2   
     6    2    4 1   
     7    4    5 1   
     8    4   21 1   
     9    4   46 1   
    10    5    6 1   
    11    5   22 1   
    12    5   23 1   
    13    6    7 1   
    14    6   24 1   
    15    6   25 1   
    16    7    8 1   
    17    7   26 1   
    18    7   27 1   
    19    8    9 1   
    20    8   28 1   
    21    8   47 1   
    22    9   10 1   
    23    9   29 1   
    24    9   30 1   
    25   10   11 1   
    26   10   31 1   
    27   10   32 1   
    28   11   12 1   
    29   11   33 1   
    30   11   34 1   
    31   12   13 1   
    32   12   35 1   
    33   12   36 1   
    34   13   14 1   
    35   13   37 1   
    36   13   48 1   
    37   14   15 1   
    38   14   38 1   
    39   14   39 1   
    40   15   16 1   
    41   15   40 1   
    42   15   41 1   
    43   16   17 1   
    44   16   42 1   
    45   16   43 1   
    46   17   44 1   
    47   17   45 1   
    48   17   49 1   
@<TRIPOS>SUBSTRUCTURE
     1 SP5         1 TEMP              0 ****  ****    0 ROOT
