@<TRIPOS>MOLECULE
SP6
   44    47     1     0     0
SMALL
bcc


@<TRIPOS>ATOM
      1 N1          0.0380    0.0650    0.0560 n         1 SP6     -0.127200
      2 C4          3.4800   -0.1430    1.5200 c3        1 SP6      0.139300
      3 C5          1.4610   -0.0070    0.1410 c         1 SP6      0.721300
      4 C6         -0.7070    0.0860   -1.1220 cc        1 SP6      0.050700
      5 C7         -3.0710    0.1820   -1.9360 c         1 SP6      0.685700
      6 C8         -2.0610    0.1450   -0.8950 cd        1 SP6     -0.177700
      7 C10         4.9520   -4.1720    1.6180 ca        1 SP6     -0.118000
      8 C13         4.8440   -3.4990    0.4010 ca        1 SP6     -0.137500
      9 C15         4.3490   -2.1960    0.3640 ca        1 SP6     -0.106000
     10 C17         4.0660   -2.2400    2.7690 ca        1 SP6     -0.106000
     11 C20        -2.7280    0.1240   -5.5580 ca        1 SP6     -0.099300
     12 C21         3.9680   -1.5610    1.5500 ca        1 SP6     -0.128300
     13 O3         -4.2960    0.2680   -1.8140 o         1 SP6     -0.531000
     14 O4         -2.5440    0.1070   -3.2000 os        1 SP6     -0.436900
     15 C11        -3.4970    0.1600   -4.2820 c3        1 SP6      0.188700
     16 C16        -3.1440    0.9220   -6.6300 ca        1 SP6     -0.110500
     17 C18        -2.4630    0.8680   -7.8450 ca        1 SP6     -0.130500
     18 C14        -1.6220   -0.7190   -5.7090 ca        1 SP6     -0.110500
     19 C12        -0.9390   -0.7640   -6.9240 ca        1 SP6     -0.130500
     20 C9         -1.3600    0.0260   -7.9930 ca        1 SP6     -0.121000
     21 C3         -0.7720    0.1070    1.2150 cc        1 SP6      0.121600
     22 S1         -2.4350    0.1750    0.7830 ss        1 SP6     -0.010800
     23 C2         -0.2120    0.0910    2.4530 cd        1 SP6     -0.301200
     24 C1          1.2440    0.0180    2.6080 c         1 SP6      0.723700
     25 O1          1.8110   -0.0080    3.7130 o         1 SP6     -0.602500
     26 O2          2.1270   -0.0410   -0.9120 o         1 SP6     -0.617500
     27 N6          2.0330   -0.0090    1.4240 n         1 SP6     -0.479400
     28 C19         4.5610   -3.5430    2.8010 ca        1 SP6     -0.137500
     29 H41         3.7960    0.3810    2.4700 h1        1 SP6      0.085200
     30 H42         3.9380    0.3940    0.6380 h1        1 SP6      0.085200
     31 H61        -0.1830    0.0580   -2.0920 h4        1 SP6      0.226000
     32 H10         5.3450   -5.1990    1.6460 ha        1 SP6      0.132000
     33 H13         5.1470   -3.9970   -0.5320 ha        1 SP6      0.133500
     34 H15         4.2490   -1.6650   -0.5960 ha        1 SP6      0.149000
     35 H17         3.7440   -1.7400    3.6970 ha        1 SP6      0.149000
     36 H111       -4.1030    1.0990   -4.1810 h1        1 SP6      0.065200
     37 H112       -4.1780   -0.7300   -4.1940 h1        1 SP6      0.065200
     38 H16        -4.0090    1.5920   -6.5140 ha        1 SP6      0.137000
     39 H18        -2.7950    1.4930   -8.6860 ha        1 SP6      0.134500
     40 H14        -1.2920   -1.3370   -4.8610 ha        1 SP6      0.137000
     41 H12        -0.0680   -1.4260   -7.0370 ha        1 SP6      0.134500
     42 H9         -0.8230   -0.0120   -8.9520 ha        1 SP6      0.134000
     43 H2         -0.8000    0.1240    3.3780 ha        1 SP6      0.189000
     44 H19         4.6410   -4.0750    3.7600 ha        1 SP6      0.133500
@<TRIPOS>BOND
     1    1    3 1   
     2    1    4 1   
     3    1   21 1   
     4    2   12 1   
     5    2   27 1   
     6    2   29 1   
     7    2   30 1   
     8    3   26 2   
     9    3   27 1   
    10    4    6 2   
    11    4   31 1   
    12    5    6 1   
    13    5   13 2   
    14    5   14 1   
    15    6   22 1   
    16    7    8 ar  
    17    7   28 ar  
    18    7   32 1   
    19    8    9 ar  
    20    8   33 1   
    21    9   12 ar  
    22    9   34 1   
    23   10   12 ar  
    24   10   28 ar  
    25   10   35 1   
    26   11   15 1   
    27   11   16 ar  
    28   11   18 ar  
    29   14   15 1   
    30   15   36 1   
    31   15   37 1   
    32   16   17 ar  
    33   16   38 1   
    34   17   20 ar  
    35   17   39 1   
    36   18   19 ar  
    37   18   40 1   
    38   19   20 ar  
    39   19   41 1   
    40   20   42 1   
    41   21   22 1   
    42   21   23 2   
    43   23   24 1   
    44   23   43 1   
    45   24   25 2   
    46   24   27 1   
    47   28   44 1   
@<TRIPOS>SUBSTRUCTURE
     1 SP6         1 TEMP              0 ****  ****    0 ROOT
