@<TRIPOS>MOLECULE
SP6
   44    47     1     0     0
SMALL
bcc


@<TRIPOS>ATOM
      1 N1         -0.0290    0.0170    0.0570 n         1 SP6     -0.127200
      2 C4          3.4100    0.0780    1.5430 c3        1 SP6      0.139300
      3 C5          1.3950    0.0620    0.1520 c         1 SP6      0.721300
      4 C6         -0.7660   -0.0200   -1.1250 cc        1 SP6      0.050700
      5 C7         -3.1250   -0.1120   -1.9540 c         1 SP6      0.685700
      6 C8         -2.1220   -0.0680   -0.9060 cd        1 SP6     -0.177700
      7 C10         5.1920   -3.8240    1.6290 ca        1 SP6     -0.118000
      8 C13         5.0340   -3.1560    0.4130 ca        1 SP6     -0.137500
      9 C15         4.4390   -1.8960    0.3800 ca        1 SP6     -0.106000
     10 C17         4.1560   -1.9720    2.7840 ca        1 SP6     -0.106000
     11 C20        -2.7570   -0.1130   -5.5740 ca        1 SP6     -0.099300
     12 C21         4.0070   -1.2980    1.5680 ca        1 SP6     -0.128300
     13 O3         -4.3510   -0.1870   -1.8400 o         1 SP6     -0.531000
     14 O4         -2.5890   -0.0600   -3.2150 os        1 SP6     -0.436900
     15 C11        -3.5350   -0.1210   -4.3030 c3        1 SP6      0.188700
     16 C16        -1.6390    0.7130   -5.7290 ca        1 SP6     -0.111000
     17 C18        -0.9480    0.7330   -6.9400 ca        1 SP6     -0.130500
     18 C14        -3.1770   -0.9200   -6.6380 ca        1 SP6     -0.111000
     19 C12        -2.4870   -0.8910   -7.8480 ca        1 SP6     -0.130500
     20 C9         -1.3720   -0.0660   -8.0010 ca        1 SP6     -0.122000
     21 C3         -0.8470   -0.0100    1.2120 cc        1 SP6      0.121600
     22 S1         -2.5070   -0.0740    0.7690 ss        1 SP6     -0.010800
     23 C2         -0.2950    0.0150    2.4530 cd        1 SP6     -0.301200
     24 C1          1.1610    0.0570    2.6170 c         1 SP6      0.723700
     25 O1          1.7220    0.0700    3.7260 o         1 SP6     -0.602500
     26 O2          2.0670    0.0920   -0.8970 o         1 SP6     -0.617500
     27 N6          1.9570    0.0990    1.4380 n         1 SP6     -0.479400
     28 C19         4.7510   -3.2320    2.8120 ca        1 SP6     -0.137500
     29 H41         3.6780    0.6200    2.4980 h1        1 SP6      0.085200
     30 H42         3.8290    0.6540    0.6670 h1        1 SP6      0.085200
     31 H61        -0.2350   -0.0100   -2.0920 h4        1 SP6      0.226000
     32 H10         5.6630   -4.8170    1.6530 ha        1 SP6      0.132000
     33 H13         5.3770   -3.6250   -0.5210 ha        1 SP6      0.134000
     34 H15         4.3000   -1.3700   -0.5780 ha        1 SP6      0.149500
     35 H17         3.7930   -1.5020    3.7140 ha        1 SP6      0.149500
     36 H111       -4.2080    0.7760   -4.2340 h1        1 SP6      0.065200
     37 H112       -4.1500   -1.0540   -4.1910 h1        1 SP6      0.065200
     38 H16        -1.3060    1.3390   -4.8880 ha        1 SP6      0.137000
     39 H18        -0.0670    1.3820   -7.0570 ha        1 SP6      0.134500
     40 H14        -4.0510   -1.5770   -6.5190 ha        1 SP6      0.137000
     41 H12        -2.8220   -1.5240   -8.6840 ha        1 SP6      0.134500
     42 H9         -0.8280   -0.0480   -8.9570 ha        1 SP6      0.134000
     43 H2         -0.8900   -0.0020    3.3750 ha        1 SP6      0.189000
     44 H19         4.8700   -3.7600    3.7700 ha        1 SP6      0.134000
@<TRIPOS>BOND
     1    1    3 1   
     2    1    4 1   
     3    1   21 1   
     4    2   12 1   
     5    2   27 1   
     6    2   29 1   
     7    2   30 1   
     8    3   26 2   
     9    3   27 1   
    10    4    6 2   
    11    4   31 1   
    12    5    6 1   
    13    5   13 2   
    14    5   14 1   
    15    6   22 1   
    16    7    8 ar  
    17    7   28 ar  
    18    7   32 1   
    19    8    9 ar  
    20    8   33 1   
    21    9   12 ar  
    22    9   34 1   
    23   10   12 ar  
    24   10   28 ar  
    25   10   35 1   
    26   11   15 1   
    27   11   16 ar  
    28   11   18 ar  
    29   14   15 1   
    30   15   36 1   
    31   15   37 1   
    32   16   17 ar  
    33   16   38 1   
    34   17   20 ar  
    35   17   39 1   
    36   18   19 ar  
    37   18   40 1   
    38   19   20 ar  
    39   19   41 1   
    40   20   42 1   
    41   21   22 1   
    42   21   23 2   
    43   23   24 1   
    44   23   43 1   
    45   24   25 2   
    46   24   27 1   
    47   28   44 1   
@<TRIPOS>SUBSTRUCTURE
     1 SP6         1 TEMP              0 ****  ****    0 ROOT
