@<TRIPOS>MOLECULE
SP6
   44    47     1     0     0
SMALL
bcc


@<TRIPOS>ATOM
      1 N1          0.7290   -0.6180    1.9660 n         1 SP6     -0.127200
      2 C4         -0.3760    1.1030    5.1050 c3        1 SP6      0.139300
      3 C5          0.0410    0.2790    2.8370 c         1 SP6      0.721300
      4 C6          0.6270   -0.6430    0.5760 cc        1 SP6      0.050700
      5 C7          1.5020   -1.8650   -1.4250 c         1 SP6      0.685700
      6 C8          1.4150   -1.6120    0.0020 cd        1 SP6     -0.177700
      7 C10         1.7920    4.7410    5.7910 ca        1 SP6     -0.118000
      8 C13         0.8530    4.6740    4.7620 ca        1 SP6     -0.137500
      9 C15         0.1600    3.4880    4.5250 ca        1 SP6     -0.106000
     10 C17         1.3520    2.4320    6.3490 ca        1 SP6     -0.106000
     11 C20        -0.1770   -0.2420   -4.2150 ca        1 SP6     -0.099300
     12 C21         0.4020    2.3670    5.3250 ca        1 SP6     -0.128300
     13 O3          2.2040   -2.6890   -2.0160 o         1 SP6     -0.531000
     14 O4          0.6780   -1.0570   -2.1660 os        1 SP6     -0.436900
     15 C11         0.7350   -1.2450   -3.5960 c3        1 SP6      0.188700
     16 C16        -1.4210    0.0500   -3.6460 ca        1 SP6     -0.111000
     17 C18        -2.2750    0.9630   -4.2630 ca        1 SP6     -0.130500
     18 C14         0.2070    0.3890   -5.4040 ca        1 SP6     -0.111000
     19 C12        -0.6520    1.2960   -6.0210 ca        1 SP6     -0.130500
     20 C9         -1.8930    1.5850   -5.4520 ca        1 SP6     -0.122000
     21 C3          1.6270   -1.5920    2.4650 cc        1 SP6      0.121600
     22 S1          2.3010   -2.5040    1.1730 ss        1 SP6     -0.010800
     23 C2          1.8540   -1.7050    3.8000 cd        1 SP6     -0.301200
     24 C1          1.1810   -0.8100    4.7460 c         1 SP6      0.723700
     25 O1          1.3570   -0.8610    5.9750 o         1 SP6     -0.602500
     26 O2         -0.7440    1.1130    2.3440 o         1 SP6     -0.617500
     27 N6          0.2730    0.1480    4.2160 n         1 SP6     -0.479400
     28 C19         2.0430    3.6200    6.5820 ca        1 SP6     -0.137500
     29 H41        -0.5260    0.5790    6.0950 h1        1 SP6      0.085200
     30 H42        -1.3860    1.3550    4.6680 h1        1 SP6      0.085200
     31 H61        -0.0410    0.0750    0.0710 h4        1 SP6      0.226000
     32 H10         2.3370    5.6790    5.9770 ha        1 SP6      0.132000
     33 H13         0.6590    5.5560    4.1340 ha        1 SP6      0.134000
     34 H15        -0.5740    3.4240    3.7050 ha        1 SP6      0.149500
     35 H17         1.5530    1.5370    6.9620 ha        1 SP6      0.149500
     36 H111        0.4020   -2.2930   -3.8260 h1        1 SP6      0.065200
     37 H112        1.7980   -1.1130   -3.9320 h1        1 SP6      0.065200
     38 H16        -1.7150   -0.4410   -2.7060 ha        1 SP6      0.137000
     39 H18        -3.2510    1.1920   -3.8100 ha        1 SP6      0.134500
     40 H14         1.1880    0.1680   -5.8530 ha        1 SP6      0.137000
     41 H12        -0.3490    1.7860   -6.9580 ha        1 SP6      0.134500
     42 H9         -2.5680    2.3030   -5.9390 ha        1 SP6      0.134000
     43 H2          2.5380   -2.4460    4.2310 ha        1 SP6      0.189000
     44 H19         2.7880    3.6710    7.3900 ha        1 SP6      0.134000
@<TRIPOS>BOND
     1    1    3 1   
     2    1    4 1   
     3    1   21 1   
     4    2   12 1   
     5    2   27 1   
     6    2   29 1   
     7    2   30 1   
     8    3   26 2   
     9    3   27 1   
    10    4    6 2   
    11    4   31 1   
    12    5    6 1   
    13    5   13 2   
    14    5   14 1   
    15    6   22 1   
    16    7    8 ar  
    17    7   28 ar  
    18    7   32 1   
    19    8    9 ar  
    20    8   33 1   
    21    9   12 ar  
    22    9   34 1   
    23   10   12 ar  
    24   10   28 ar  
    25   10   35 1   
    26   11   15 1   
    27   11   16 ar  
    28   11   18 ar  
    29   14   15 1   
    30   15   36 1   
    31   15   37 1   
    32   16   17 ar  
    33   16   38 1   
    34   17   20 ar  
    35   17   39 1   
    36   18   19 ar  
    37   18   40 1   
    38   19   20 ar  
    39   19   41 1   
    40   20   42 1   
    41   21   22 1   
    42   21   23 2   
    43   23   24 1   
    44   23   43 1   
    45   24   25 2   
    46   24   27 1   
    47   28   44 1   
@<TRIPOS>SUBSTRUCTURE
     1 SP6         1 TEMP              0 ****  ****    0 ROOT
