@<TRIPOS>MOLECULE
SP7
   40    39     1     0     0
SMALL
bcc


@<TRIPOS>ATOM
      1 CAC        -0.0710   -1.4670    0.0560 c3        1 SP7     -0.197100
      2 CAD         0.7720   -0.4890   -0.6810 c         1 SP7      0.581100
      3 OAA         0.4640    0.5630   -1.2130 o         1 SP7     -0.431100
      4 NAE         2.2600   -0.8570   -0.7790 n4        1 SP7     -0.703800
      5 CAF         3.1810    0.3160   -1.0040 c3        1 SP7      0.144500
      6 CAB         4.6000   -0.0360   -0.5660 c3        1 SP7     -0.148100
      7 CAG         3.1700    0.7890   -2.4710 c3        1 SP7     -0.132400
      8 CAH         3.6450    2.2420   -2.5420 c3        1 SP7      0.110800
      9 NAI         3.6290    2.7890   -3.9360 n4        1 SP7     -0.764000
     10 CAJ         4.1170    4.2070   -3.9840 c3        1 SP7      0.106800
     11 CAK         4.1140    4.7870   -5.3990 c3        1 SP7     -0.107400
     12 CAL         4.6250    6.2190   -5.3640 c3        1 SP7     -0.106400
     13 CAM         4.6220    6.7920   -6.7820 c3        1 SP7      0.100800
     14 NAN         5.1090    8.1990   -6.8560 n4        1 SP7     -0.837600
     15 HAC        -1.1480   -1.2920   -0.2260 hc        1 SP7      0.137367
     16 HACA        0.0290   -1.2970    1.1630 hc        1 SP7      0.137367
     17 HACB        0.1910   -2.5310   -0.1760 hc        1 SP7      0.137367
     18 HNAE        2.3760   -1.5390   -1.5380 hn        1 SP7      0.472300
     19 HAF         2.7800    1.1480   -0.3450 hx        1 SP7      0.118700
     20 HAB         5.2490    0.8690   -0.6720 hc        1 SP7      0.092033
     21 HABA        5.0350   -0.8580   -1.1860 hc        1 SP7      0.092033
     22 HABB        4.6330   -0.3410    0.5110 hc        1 SP7      0.092033
     23 HAG         2.1300    0.7170   -2.8950 hc        1 SP7      0.095200
     24 HAGA        3.8440    0.1260   -3.0780 hc        1 SP7      0.095200
     25 HAH         4.7030    2.3250   -2.1540 hx        1 SP7      0.123200
     26 HAHA        2.9750    2.8980   -1.9100 hx        1 SP7      0.123200
     27 HNAI        4.2250    2.2060   -4.5390 hn        1 SP7      0.462800
     28 HAJ         3.4470    4.8230   -3.3140 hx        1 SP7      0.120200
     29 HAJA        5.1640    4.2250   -3.5620 hx        1 SP7      0.120200
     30 HAK         3.0740    4.7710   -5.8240 hc        1 SP7      0.086700
     31 HAKA        4.7710    4.1720   -6.0720 hc        1 SP7      0.086700
     32 HAL         3.9690    6.8380   -4.6940 hc        1 SP7      0.085700
     33 HALA        5.6650    6.2390   -4.9400 hc        1 SP7      0.085700
     34 HAM         5.2850    6.1680   -7.4510 hx        1 SP7      0.124700
     35 HAMA        3.5720    6.7740   -7.2020 hx        1 SP7      0.124700
     36 HNAN        5.0810    8.5220   -7.8350 hn        1 SP7      0.477800
     37 HNAA        4.5190    8.8200   -6.2900 hn        1 SP7      0.477800
     38 HAE2        2.5370   -1.3190    0.1000 hn        1 SP7      0.472300
     39 HAI2        2.6710    2.7480   -4.3080 hn        1 SP7      0.462800
     40 HAN3        6.0770    8.2680   -6.5170 hn        1 SP7      0.477800
@<TRIPOS>BOND
     1    1    2 1   
     2    1   15 1   
     3    1   16 1   
     4    1   17 1   
     5    2    3 2   
     6    2    4 1   
     7    4    5 1   
     8    4   18 1   
     9    4   38 1   
    10    5    6 1   
    11    5    7 1   
    12    5   19 1   
    13    6   20 1   
    14    6   21 1   
    15    6   22 1   
    16    7    8 1   
    17    7   23 1   
    18    7   24 1   
    19    8    9 1   
    20    8   25 1   
    21    8   26 1   
    22    9   10 1   
    23    9   27 1   
    24    9   39 1   
    25   10   11 1   
    26   10   28 1   
    27   10   29 1   
    28   11   12 1   
    29   11   30 1   
    30   11   31 1   
    31   12   13 1   
    32   12   32 1   
    33   12   33 1   
    34   13   14 1   
    35   13   34 1   
    36   13   35 1   
    37   14   36 1   
    38   14   37 1   
    39   14   40 1   
@<TRIPOS>SUBSTRUCTURE
     1 SP7         1 TEMP              0 ****  ****    0 ROOT
