@<TRIPOS>MOLECULE
SP7
   40    39     1     0     0
SMALL
bcc


@<TRIPOS>ATOM
      1 CAC        -0.1420   -1.3640    0.1080 c3        1 SP7     -0.197100
      2 CAD         0.7190   -0.4130   -0.6420 c         1 SP7      0.581100
      3 OAA         0.4460    0.6700   -1.1310 o         1 SP7     -0.431100
      4 NAE         2.1770   -0.8590   -0.8230 ny        1 SP7     -0.703800
      5 CAF         3.1510    0.2690   -1.0610 c3        1 SP7      0.144500
      6 CAB         4.5670   -0.1730   -0.7030 c3        1 SP7     -0.148100
      7 CAG         3.0980    0.7860   -2.5120 c3        1 SP7     -0.132400
      8 CAH         3.6480    2.2130   -2.5660 c3        1 SP7      0.110800
      9 NAI         3.5990    2.8010   -3.9430 ny        1 SP7     -0.764000
     10 CAJ         4.1600    4.1920   -3.9740 c3        1 SP7      0.106800
     11 CAK         4.1260    4.8120   -5.3710 c3        1 SP7     -0.107400
     12 CAL         4.7130    6.2140   -5.3220 c3        1 SP7     -0.106400
     13 CAM         4.6790    6.8280   -6.7220 c3        1 SP7      0.100800
     14 NAN         5.2370    8.2090   -6.7800 nz        1 SP7     -0.837600
     15 HAC         0.0210   -1.2330    1.2130 hc        1 SP7      0.137367
     16 HACA       -1.2190   -1.1220   -0.1160 hc        1 SP7      0.137367
     17 HACB        0.0480   -2.4330   -0.1660 hc        1 SP7      0.137367
     18 HNAE        2.2190   -1.5220   -1.6060 hn        1 SP7      0.472300
     19 HAF         2.8290    1.1010   -0.3610 hx        1 SP7      0.118700
     20 HAB         4.6350   -0.5120    0.3630 hc        1 SP7      0.092033
     21 HABA        4.9250   -1.0000   -1.3650 hc        1 SP7      0.092033
     22 HABB        5.2610    0.6970   -0.8160 hc        1 SP7      0.092033
     23 HAG         2.0370    0.7820   -2.8870 hc        1 SP7      0.095200
     24 HAGA        3.7050    0.1050   -3.1690 hc        1 SP7      0.095200
     25 HAH         3.0440    2.8840   -1.8860 hx        1 SP7      0.123200
     26 HAHA        4.7250    2.2270   -2.2250 hx        1 SP7      0.123200
     27 HNAI        2.6240    2.8210   -4.2700 hn        1 SP7      0.462800
     28 HAJ         5.2240    4.1420   -3.6000 hx        1 SP7      0.120200
     29 HAJA        3.5550    4.8220   -3.2580 hx        1 SP7      0.120200
     30 HAK         3.0680    4.8620   -5.7490 hc        1 SP7      0.086700
     31 HAKA        4.7180    4.1840   -6.0910 hc        1 SP7      0.086700
     32 HAL         5.7710    6.1670   -4.9440 hc        1 SP7      0.085700
     33 HALA        4.1210    6.8470   -4.6060 hc        1 SP7      0.085700
     34 HAM         3.6120    6.8770   -7.0950 hx        1 SP7      0.124700
     35 HAMA        5.2780    6.1890   -7.4370 hx        1 SP7      0.124700
     36 HNAN        4.7050    8.8430   -6.1710 hn        1 SP7      0.477800
     37 HNAA        6.2200    8.2180   -6.4820 hn        1 SP7      0.477800
     38 HAE2        2.4690   -1.3610    0.0280 hn        1 SP7      0.472300
     39 HAI2        4.1350    2.2050   -4.5880 hn        1 SP7      0.462800
     40 HAN3        5.1840    8.5610   -7.7470 hn        1 SP7      0.477800
@<TRIPOS>BOND
     1    1    2 1   
     2    1   15 1   
     3    1   16 1   
     4    1   17 1   
     5    2    3 2   
     6    2    4 1   
     7    4    5 1   
     8    4   18 1   
     9    4   38 1   
    10    5    6 1   
    11    5    7 1   
    12    5   19 1   
    13    6   20 1   
    14    6   21 1   
    15    6   22 1   
    16    7    8 1   
    17    7   23 1   
    18    7   24 1   
    19    8    9 1   
    20    8   25 1   
    21    8   26 1   
    22    9   10 1   
    23    9   27 1   
    24    9   39 1   
    25   10   11 1   
    26   10   28 1   
    27   10   29 1   
    28   11   12 1   
    29   11   30 1   
    30   11   31 1   
    31   12   13 1   
    32   12   32 1   
    33   12   33 1   
    34   13   14 1   
    35   13   34 1   
    36   13   35 1   
    37   14   36 1   
    38   14   37 1   
    39   14   40 1   
@<TRIPOS>SUBSTRUCTURE
     1 SP7         1 TEMP              0 ****  ****    0 ROOT
