@<TRIPOS>MOLECULE
SP7
   37    36     1     0     0
SMALL
bcc


@<TRIPOS>ATOM
      1 CAC        -4.2490    2.4440   -0.5940 c3        1 SP7     -0.175100
      2 CAD        -3.7460    1.2610    0.1990 c         1 SP7      0.660100
      3 OAA        -3.7410    1.2700    1.4470 o         1 SP7     -0.613100
      4 NAE        -3.2860    0.1740   -0.5160 n         1 SP7     -0.576900
      5 CAF        -2.7990   -1.0340    0.1090 c3        1 SP7      0.099700
      6 CAB        -3.7550   -2.2170   -0.0810 c3        1 SP7     -0.112100
      7 CAG        -1.4130   -1.4540   -0.4110 c3        1 SP7     -0.096400
      8 CAH        -0.3420   -0.4430   -0.0090 c3        1 SP7      0.162800
      9 NAI         0.9870   -0.8300   -0.4460 n3        1 SP7     -0.826200
     10 CAJ         2.0210    0.0590    0.0450 c3        1 SP7      0.163800
     11 CAK         3.4330   -0.4520   -0.2370 c3        1 SP7     -0.083400
     12 CAL         4.4530    0.5540    0.2510 c3        1 SP7     -0.082400
     13 CAM         5.8670    0.0440   -0.0280 c3        1 SP7      0.159800
     14 NAN         6.8970    0.9760    0.3630 n3        1 SP7     -0.916800
     15 HAC        -3.4400    2.8500   -1.2470 hc        1 SP7      0.065367
     16 HACA       -5.1180    2.1480   -1.2290 hc        1 SP7      0.065367
     17 HACB       -4.5740    3.2400    0.1190 hc        1 SP7      0.065367
     18 HNAE       -3.3180    0.1920   -1.5050 hn        1 SP7      0.307500
     19 HAF        -2.7160   -0.8270    1.2210 h1        1 SP7      0.089700
     20 HAB        -3.3690   -3.0940    0.4920 hc        1 SP7      0.041033
     21 HABA       -4.7740   -1.9670    0.2990 hc        1 SP7      0.041033
     22 HABB       -3.8330   -2.5010   -1.1570 hc        1 SP7      0.041033
     23 HAG        -1.1750   -2.4580    0.0290 hc        1 SP7      0.050200
     24 HAGA       -1.4350   -1.5710   -1.5250 hc        1 SP7      0.050200
     25 HAH        -0.5680    0.5520   -0.4870 h1        1 SP7      0.035200
     26 HAHA       -0.3960   -0.2930    1.1110 h1        1 SP7      0.035200
     27 HNAI        1.1820   -1.7780   -0.1820 hn        1 SP7      0.352800
     28 HAJ         1.8810    1.0510   -0.4710 h1        1 SP7      0.030700
     29 HAJA        1.9270    0.2480    1.1570 h1        1 SP7      0.030700
     30 HAK         3.5960   -1.4360    0.2760 hc        1 SP7      0.046700
     31 HAKA        3.5650   -0.6220   -1.3370 hc        1 SP7      0.046700
     32 HAL         4.2940    1.5370   -0.2650 hc        1 SP7      0.048200
     33 HALA        4.3180    0.7280    1.3510 hc        1 SP7      0.048200
     34 HAM         5.9800   -0.9620    0.4770 h1        1 SP7      0.024700
     35 HAMA        5.9770   -0.1300   -1.1370 h1        1 SP7      0.024700
     36 HNAN        6.7690    1.2830    1.3060 hn        1 SP7      0.348300
     37 HNAA        7.8000    0.5540    0.2730 hn        1 SP7      0.348300
@<TRIPOS>BOND
     1    1    2 1   
     2    1   15 1   
     3    1   16 1   
     4    1   17 1   
     5    2    3 2   
     6    2    4 1   
     7    4    5 1   
     8    4   18 1   
     9    5    6 1   
    10    5    7 1   
    11    5   19 1   
    12    6   20 1   
    13    6   21 1   
    14    6   22 1   
    15    7    8 1   
    16    7   23 1   
    17    7   24 1   
    18    8    9 1   
    19    8   25 1   
    20    8   26 1   
    21    9   10 1   
    22    9   27 1   
    23   10   11 1   
    24   10   28 1   
    25   10   29 1   
    26   11   12 1   
    27   11   30 1   
    28   11   31 1   
    29   12   13 1   
    30   12   32 1   
    31   12   33 1   
    32   13   14 1   
    33   13   34 1   
    34   13   35 1   
    35   14   36 1   
    36   14   37 1   
@<TRIPOS>SUBSTRUCTURE
     1 SP7         1 TEMP              0 ****  ****    0 ROOT
