@<TRIPOS>MOLECULE
SP7
   37    36     1     0     0
SMALL
bcc


@<TRIPOS>ATOM
      1 CAC        -0.1390   -3.7310    5.1850 c3        1 SP7     -0.175100
      2 CAD        -0.6910   -3.1840    3.8870 c         1 SP7      0.660100
      3 OAA        -1.3350   -3.9100    3.1440 o         1 SP7     -0.612100
      4 NAE        -0.5110   -1.8080    3.5580 n         1 SP7     -0.578900
      5 CAF        -1.1300   -1.2750    2.4180 c3        1 SP7      0.100700
      6 CAB        -2.4170   -0.5700    2.8220 c3        1 SP7     -0.108100
      7 CAG        -0.1870   -0.2760    1.7440 c3        1 SP7     -0.101400
      8 CAH        -0.3310   -0.3870    0.2200 c3        1 SP7      0.164800
      9 NAI         0.5990    0.5160   -0.4230 n3        1 SP7     -0.824200
     10 CAJ         0.2390    0.6610   -1.8180 c3        1 SP7      0.163800
     11 CAK         1.1530    1.6970   -2.4770 c3        1 SP7     -0.083400
     12 CAL         0.7000    1.9300   -3.9420 c3        1 SP7     -0.082400
     13 CAM         1.6430    2.9330   -4.6150 c3        1 SP7      0.159800
     14 NAN         1.1550    3.2360   -5.9410 n3        1 SP7     -0.916800
     15 HAC        -0.7560   -3.5220    5.9150 hc        1 SP7      0.065033
     16 HACA       -0.0370   -4.6950    5.1130 hc        1 SP7      0.065033
     17 HACB        0.7310   -3.3230    5.3670 hc        1 SP7      0.065033
     18 HNAE       -0.0540   -1.2650    4.1190 hn        1 SP7      0.305500
     19 HAF        -1.3380   -1.9990    1.7930 h1        1 SP7      0.089700
     20 HAB        -2.9130   -0.3090    2.0180 hc        1 SP7      0.042367
     21 HABA       -2.9680   -1.1800    3.3650 hc        1 SP7      0.042367
     22 HABB       -2.2010    0.2290    3.3470 hc        1 SP7      0.042367
     23 HAG        -0.4160    0.6270    2.0260 hc        1 SP7      0.050700
     24 HAGA        0.7430   -0.4760    2.0020 hc        1 SP7      0.050700
     25 HAH        -1.2410   -0.1530   -0.0370 h1        1 SP7      0.033200
     26 HAHA       -0.1390   -1.3040   -0.0580 h1        1 SP7      0.033200
     27 HNAI        1.4480    0.1750   -0.3600 hn        1 SP7      0.354800
     28 HAJ        -0.6990    0.9590   -1.8860 h1        1 SP7      0.030700
     29 HAJA        0.3410   -0.2000   -2.2720 h1        1 SP7      0.030700
     30 HAK         1.1000    2.5380   -1.9830 hc        1 SP7      0.046700
     31 HAKA        2.0700    1.3730   -2.4690 hc        1 SP7      0.046700
     32 HAL         0.7250    1.0790   -4.4330 hc        1 SP7      0.048200
     33 HALA       -0.2080    2.2830   -3.9500 hc        1 SP7      0.048200
     34 HAM         2.5450    2.5450   -4.6770 h1        1 SP7      0.024700
     35 HAMA        1.6770    3.7620   -4.0790 h1        1 SP7      0.024700
     36 HNAN        1.7280    2.8760   -6.5700 hn        1 SP7      0.348300
     37 HNAA        1.1130    4.1480   -6.0520 hn        1 SP7      0.348300
@<TRIPOS>BOND
     1    1    2 1   
     2    1   15 1   
     3    1   16 1   
     4    1   17 1   
     5    2    3 2   
     6    2    4 1   
     7    4    5 1   
     8    4   18 1   
     9    5    6 1   
    10    5    7 1   
    11    5   19 1   
    12    6   20 1   
    13    6   21 1   
    14    6   22 1   
    15    7    8 1   
    16    7   23 1   
    17    7   24 1   
    18    8    9 1   
    19    8   25 1   
    20    8   26 1   
    21    9   10 1   
    22    9   27 1   
    23   10   11 1   
    24   10   28 1   
    25   10   29 1   
    26   11   12 1   
    27   11   30 1   
    28   11   31 1   
    29   12   13 1   
    30   12   32 1   
    31   12   33 1   
    32   13   14 1   
    33   13   34 1   
    34   13   35 1   
    35   14   36 1   
    36   14   37 1   
@<TRIPOS>SUBSTRUCTURE
     1 SP7         1 TEMP              0 ****  ****    0 ROOT
