@<TRIPOS>MOLECULE
SP7
   40    39     1     0     0
SMALL
bcc


@<TRIPOS>ATOM
      1 CAC        -0.1120   -1.3700    0.1320 c3        1 SP7     -0.197100
      2 CAD         0.7420   -0.4180   -0.6240 c         1 SP7      0.581100
      3 OAA         0.4700    0.6730   -1.0950 o         1 SP7     -0.431100
      4 NAE         2.1930   -0.8740   -0.8380 n4        1 SP7     -0.703800
      5 CAF         3.1720    0.2470   -1.0820 c3        1 SP7      0.144500
      6 CAB         4.5910   -0.2100   -0.7570 c3        1 SP7     -0.148100
      7 CAG         3.0950    0.7810   -2.5260 c3        1 SP7     -0.132400
      8 CAH         3.6550    2.2040   -2.5750 c3        1 SP7      0.110800
      9 NAI         3.5860    2.8080   -3.9450 n4        1 SP7     -0.764000
     10 CAJ         4.1550    4.1950   -3.9710 c3        1 SP7      0.106800
     11 CAK         4.1010    4.8300   -5.3620 c3        1 SP7     -0.107400
     12 CAL         4.6990    6.2280   -5.3080 c3        1 SP7     -0.106400
     13 CAM         4.6450    6.8560   -6.7000 c3        1 SP7      0.100800
     14 NAN         5.2110    8.2340   -6.7540 n4        1 SP7     -0.837600
     15 HAC        -1.1910   -1.1160   -0.0680 hc        1 SP7      0.137367
     16 HACA        0.0730   -1.2540    1.2350 hc        1 SP7      0.137367
     17 HACB        0.0640   -2.4380   -0.1580 hc        1 SP7      0.137367
     18 HNAE        2.4970   -1.3880    0.0020 hn        1 SP7      0.472300
     19 HAF         2.8710    1.0750   -0.3670 hx        1 SP7      0.118700
     20 HAB         4.6760   -0.5610    0.3040 hc        1 SP7      0.092033
     21 HABA        4.9290   -1.0330   -1.4350 hc        1 SP7      0.092033
     22 HABB        5.2900    0.6550   -0.8750 hc        1 SP7      0.092033
     23 HAG         2.0270    0.7900   -2.8810 hc        1 SP7      0.095200
     24 HAGA        3.6840    0.1040   -3.2020 hc        1 SP7      0.095200
     25 HAH         3.0690    2.8730   -1.8770 hx        1 SP7      0.123200
     26 HAHA        4.7380    2.2080   -2.2540 hx        1 SP7      0.123200
     27 HNAI        4.1060    2.2150   -4.6060 hn        1 SP7      0.462800
     28 HAJ         5.2260    4.1340   -3.6170 hx        1 SP7      0.120200
     29 HAJA        3.5670    4.8220   -3.2380 hx        1 SP7      0.120200
     30 HAK         3.0380    4.8920   -5.7200 hc        1 SP7      0.086700
     31 HAKA        4.6770    4.2050   -6.0980 hc        1 SP7      0.086700
     32 HAL         4.1240    6.8560   -4.5750 hc        1 SP7      0.085700
     33 HALA        5.7630    6.1700   -4.9490 hc        1 SP7      0.085700
     34 HAM         3.5720    6.9160   -7.0540 hx        1 SP7      0.124700
     35 HAMA        5.2280    6.2210   -7.4320 hx        1 SP7      0.124700
     36 HNAN        5.1430    8.5960   -7.7160 hn        1 SP7      0.477800
     37 HNAA        4.6940    8.8650   -6.1300 hn        1 SP7      0.477800
     38 HAE2        2.2150   -1.5290   -1.6280 hn        1 SP7      0.472300
     39 HAI2        2.6050    2.8380   -4.2550 hn        1 SP7      0.462800
     40 HAN3        6.1990    8.2330   -6.4740 hn        1 SP7      0.477800
@<TRIPOS>BOND
     1    1    2 1   
     2    1   15 1   
     3    1   16 1   
     4    1   17 1   
     5    2    3 2   
     6    2    4 1   
     7    4    5 1   
     8    4   18 1   
     9    4   38 1   
    10    5    6 1   
    11    5    7 1   
    12    5   19 1   
    13    6   20 1   
    14    6   21 1   
    15    6   22 1   
    16    7    8 1   
    17    7   23 1   
    18    7   24 1   
    19    8    9 1   
    20    8   25 1   
    21    8   26 1   
    22    9   10 1   
    23    9   27 1   
    24    9   39 1   
    25   10   11 1   
    26   10   28 1   
    27   10   29 1   
    28   11   12 1   
    29   11   30 1   
    30   11   31 1   
    31   12   13 1   
    32   12   32 1   
    33   12   33 1   
    34   13   14 1   
    35   13   34 1   
    36   13   35 1   
    37   14   36 1   
    38   14   37 1   
    39   14   40 1   
@<TRIPOS>SUBSTRUCTURE
     1 SP7         1 TEMP              0 ****  ****    0 ROOT
