@<TRIPOS>MOLECULE
SP8
   47    47     1     0     0
SMALL
bcc


@<TRIPOS>ATOM
      1 CAE         0.9730    0.3740    0.7000 ca        1 SP8     -0.054000
      2 CAD         2.0320   -0.2450    0.0410 ca        1 SP8     -0.119500
      3 CAC         2.1500   -1.6350    0.0520 ca        1 SP8     -0.011000
      4 CAR         1.2010   -2.4140    0.7310 ca        1 SP8     -0.119500
      5 CAS         0.1380   -1.8110    1.3890 ca        1 SP8     -0.054000
      6 CAF         0.0100   -0.4070    1.3770 ca        1 SP8     -0.233600
      7 CAG        -1.0580    0.3180    2.0330 c         1 SP8      0.601700
      8 OAA        -1.1780    1.5200    2.2460 o         1 SP8     -0.491100
      9 NAH        -2.2420   -0.5250    2.5360 n4        1 SP8     -0.692800
     10 CAI        -3.4830    0.2700    2.8390 c3        1 SP8      0.145500
     11 CAB        -4.7050   -0.6430    2.8760 c3        1 SP8     -0.145100
     12 CAJ        -3.3650    1.0580    4.1590 c3        1 SP8     -0.128400
     13 CAK        -4.2570    2.2990    4.0830 c3        1 SP8      0.109800
     14 NAL        -4.1990    3.1290    5.3290 n4        1 SP8     -0.764000
     15 CAM        -5.1010    4.3230    5.2450 c3        1 SP8      0.105800
     16 CAN        -5.0690    5.1810    6.5090 c3        1 SP8     -0.107400
     17 CAO        -6.0140    6.3620    6.3490 c3        1 SP8     -0.106400
     18 CAP        -5.9800    7.2150    7.6170 c3        1 SP8      0.100800
     19 NAQ        -6.8800    8.4010    7.5600 n4        1 SP8     -0.837600
     20 HAE         0.8820    1.4740    0.6930 ha        1 SP8      0.146500
     21 HAD         2.7800    0.3710   -0.4900 ha        1 SP8      0.185500
     22 HAC         2.9910   -2.1260   -0.4720 ha        1 SP8      0.189000
     23 HAR         1.3050   -3.5130    0.7420 ha        1 SP8      0.185500
     24 HAS        -0.5730   -2.4580    1.9240 ha        1 SP8      0.146500
     25 HNAH       -1.9430   -1.0400    3.3710 hn        1 SP8      0.468800
     26 HAI        -3.5900    1.0030    1.9800 hx        1 SP8      0.119700
     27 HAB        -4.8520   -1.1680    1.8980 hc        1 SP8      0.088700
     28 HABA       -4.6290   -1.4090    3.6870 hc        1 SP8      0.088700
     29 HABB       -5.6160   -0.0220    3.0620 hc        1 SP8      0.088700
     30 HAJ        -3.6760    0.3980    5.0130 hc        1 SP8      0.094200
     31 HAJA       -2.3000    1.3770    4.3320 hc        1 SP8      0.094200
     32 HAK        -3.9290    2.9530    3.2210 hx        1 SP8      0.123200
     33 HAKA       -5.3330    1.9950    3.9220 hx        1 SP8      0.123200
     34 HNAL       -3.2320    3.4440    5.4820 hn        1 SP8      0.462300
     35 HAM        -4.7760    4.9360    4.3540 hx        1 SP8      0.119700
     36 HAMA       -6.1510    3.9490    5.0600 hx        1 SP8      0.119700
     37 HAN        -5.3790    4.5720    7.4020 hc        1 SP8      0.086200
     38 HANA       -4.0270    5.5590    6.6970 hc        1 SP8      0.086200
     39 HAO        -7.0570    5.9880    6.1600 hc        1 SP8      0.085700
     40 HAOA       -5.7040    6.9760    5.4600 hc        1 SP8      0.085700
     41 HAP        -6.2940    6.5930    8.5080 hx        1 SP8      0.124700
     42 HAPA       -4.9300    7.5930    7.7980 hx        1 SP8      0.124700
     43 HNAQ       -7.8570    8.1120    7.4290 hn        1 SP8      0.477467
     44 HNAA       -6.8090    8.9300    8.4420 hn        1 SP8      0.477467
     45 HAH2       -2.4730   -1.2140    1.8050 hn        1 SP8      0.468800
     46 HAL2       -4.4730    2.5530    6.1360 hn        1 SP8      0.462300
     47 HAQ3       -6.6160    9.0220    6.7840 hn        1 SP8      0.477467
@<TRIPOS>BOND
     1    1    2 ar  
     2    1    6 ar  
     3    1   20 1   
     4    2    3 ar  
     5    2   21 1   
     6    3    4 ar  
     7    3   22 1   
     8    4    5 ar  
     9    4   23 1   
    10    5    6 ar  
    11    5   24 1   
    12    6    7 1   
    13    7    8 2   
    14    7    9 1   
    15    9   10 1   
    16    9   25 1   
    17    9   45 1   
    18   10   11 1   
    19   10   12 1   
    20   10   26 1   
    21   11   27 1   
    22   11   28 1   
    23   11   29 1   
    24   12   13 1   
    25   12   30 1   
    26   12   31 1   
    27   13   14 1   
    28   13   32 1   
    29   13   33 1   
    30   14   15 1   
    31   14   34 1   
    32   14   46 1   
    33   15   16 1   
    34   15   35 1   
    35   15   36 1   
    36   16   17 1   
    37   16   37 1   
    38   16   38 1   
    39   17   18 1   
    40   17   39 1   
    41   17   40 1   
    42   18   19 1   
    43   18   41 1   
    44   18   42 1   
    45   19   43 1   
    46   19   44 1   
    47   19   47 1   
@<TRIPOS>SUBSTRUCTURE
     1 SP8         1 TEMP              0 ****  ****    0 ROOT
