@<TRIPOS>MOLECULE
SP8
   44    41     1     0     0
SMALL
bcc


@<TRIPOS>ATOM
      1 CAE         3.9800    4.9540    0.0380 c1        1 SP8     -0.021500
      2 CAD         5.3160    5.3970   -0.1000 c1        1 SP8     -0.065500
      3 CAC         6.2820    4.5510   -0.6820 c1        1 SP8     -0.065500
      4 CAR         5.9140    3.2620   -1.1260 c1        1 SP8     -0.065500
      5 CAS         4.5760    2.8190   -0.9870 c1        1 SP8     -0.065500
      6 CAF         3.6150    3.6620   -0.4080 cg        1 SP8     -0.089200
      7 CAG         2.1900    3.1710   -0.2250 c         1 SP8      0.624300
      8 OAA         1.3460    3.9020    0.3160 o         1 SP8     -0.606100
      9 NAH         1.8200    1.8730   -0.6750 n         1 SP8     -0.571900
     10 CAI         0.4460    1.4920   -0.6830 c3        1 SP8      0.099700
     11 CAB        -0.1380    1.7540   -2.0400 c3        1 SP8     -0.112100
     12 CAJ         0.3210    0.0170   -0.3580 c3        1 SP8     -0.098400
     13 CAK        -1.1020   -0.2890    0.0170 c3        1 SP8      0.165800
     14 NAL        -1.2520   -1.7430    0.2460 n3        1 SP8     -0.824200
     15 CAM        -2.5950   -2.0260    0.7400 c3        1 SP8      0.164800
     16 CAN        -2.7730   -3.5150    0.8780 c3        1 SP8     -0.083400
     17 CAO        -4.1920   -3.8160    1.2940 c3        1 SP8     -0.082400
     18 CAP        -4.3600   -5.3710    1.5050 c3        1 SP8      0.159800
     19 NAQ        -5.7220   -5.6630    1.7880 n3        1 SP8     -0.916800
     20 HAE         3.3280    5.5240    0.4300 ha        1 SP8      0.097500
     21 HAD         5.5670    6.2850    0.2060 ha        1 SP8      0.078500
     22 HAC         7.2230    4.8620   -0.7800 ha        1 SP8      0.078500
     23 HAR         6.5670    2.6890   -1.5180 ha        1 SP8      0.078500
     24 HAS         4.3210    1.9230   -1.2960 ha        1 SP8      0.078500
     25 HNAH        2.4650    1.3140   -1.0780 hn        1 SP8      0.309500
     26 HAI        -0.0360    2.0110   -0.0180 h1        1 SP8      0.092700
     27 HAB         0.0500    0.9840   -2.6350 hc        1 SP8      0.041367
     28 HABA        0.2610    2.5590   -2.4140 hc        1 SP8      0.041367
     29 HABB       -1.0970    1.8760   -1.9610 hc        1 SP8      0.041367
     30 HAJ         0.5780   -0.5190   -1.1500 hc        1 SP8      0.050700
     31 HAJA        0.9170   -0.2060    0.3990 hc        1 SP8      0.050700
     32 HAK        -1.7040   -0.0070   -0.7200 h1        1 SP8      0.032700
     33 HAKA       -1.3440    0.2150    0.8650 h1        1 SP8      0.032700
     34 HNAL       -1.1120   -2.2040   -0.5610 hn        1 SP8      0.353800
     35 HAM        -2.7200   -1.5990    1.6230 h1        1 SP8      0.030700
     36 HAMA       -3.2610   -1.6740    0.1050 h1        1 SP8      0.030700
     37 HAN        -2.5880   -3.9420    0.0300 hc        1 SP8      0.046700
     38 HANA       -2.1620   -3.8510    1.5490 hc        1 SP8      0.046700
     39 HAO        -4.8060   -3.5130    0.5980 hc        1 SP8      0.048200
     40 HAOA       -4.3920   -3.3510    2.1300 hc        1 SP8      0.048200
     41 HAP        -3.8040   -5.6590    2.2530 h1        1 SP8      0.024700
     42 HAPA       -4.0810   -5.8550    0.6770 h1        1 SP8      0.024700
     43 HNAQ       -5.7820   -6.1020    2.5990 hn        1 SP8      0.348300
     44 HNAA       -6.0620   -6.1910    1.1300 hn        1 SP8      0.348300
@<TRIPOS>BOND
     1    1    6 3   
     2    1   20 1   
     3    2    3 3   
     4    2   21 1   
     5    3   22 1   
     6    4    5 3   
     7    4   23 1   
     8    5   24 1   
     9    6    7 1   
    10    7    8 2   
    11    7    9 1   
    12    9   10 1   
    13    9   25 1   
    14   10   11 1   
    15   10   12 1   
    16   10   26 1   
    17   11   27 1   
    18   11   28 1   
    19   11   29 1   
    20   12   13 1   
    21   12   30 1   
    22   12   31 1   
    23   13   14 1   
    24   13   32 1   
    25   13   33 1   
    26   14   15 1   
    27   14   34 1   
    28   15   16 1   
    29   15   35 1   
    30   15   36 1   
    31   16   17 1   
    32   16   37 1   
    33   16   38 1   
    34   17   18 1   
    35   17   39 1   
    36   17   40 1   
    37   18   19 1   
    38   18   41 1   
    39   18   42 1   
    40   19   43 1   
    41   19   44 1   
@<TRIPOS>SUBSTRUCTURE
     1 SP8         1 TEMP              0 ****  ****    0 ROOT
