@<TRIPOS>MOLECULE
SP8
   44    44     1     0     0
SMALL
bcc


@<TRIPOS>ATOM
      1 CAE        -4.6440   -0.8970   -0.8740 ca        1 SP8     -0.092000
      2 CAD        -5.4500   -1.9730   -0.5070 ca        1 SP8     -0.138500
      3 CAC        -5.0310   -2.8520    0.4930 ca        1 SP8     -0.110000
      4 CAR        -3.8030   -2.6560    1.1240 ca        1 SP8     -0.138500
      5 CAS        -2.9940   -1.5780    0.7650 ca        1 SP8     -0.092000
      6 CAF        -3.4170   -0.6930   -0.2300 ca        1 SP8     -0.141600
      7 CAG        -2.5820    0.4670   -0.6630 c         1 SP8      0.673700
      8 OAA        -2.5170    0.8090   -1.8620 o         1 SP8     -0.608100
      9 NAH        -1.8920    1.1470    0.3190 n         1 SP8     -0.569900
     10 CAI        -1.0810    2.3120    0.0460 c3        1 SP8      0.099700
     11 CAB        -1.7370    3.6100    0.5280 c3        1 SP8     -0.113100
     12 CAJ         0.3170    2.2170    0.6810 c3        1 SP8     -0.095400
     13 CAK         1.1440    1.1080    0.0370 c3        1 SP8      0.162800
     14 NAL         2.4800    1.0090    0.5950 n3        1 SP8     -0.826200
     15 CAM         3.3160    0.0590   -0.1150 c3        1 SP8      0.163800
     16 CAN         4.7740    0.0910    0.3390 c3        1 SP8     -0.083400
     17 CAO         5.5690   -0.9610   -0.4040 c3        1 SP8     -0.083400
     18 CAP         7.0270   -0.9370    0.0540 c3        1 SP8      0.158800
     19 NAQ         7.8640   -1.8760   -0.6540 n3        1 SP8     -0.916800
     20 HAE        -4.9540   -0.2080   -1.6750 ha        1 SP8      0.145500
     21 HAD        -6.4150   -2.1310   -1.0110 ha        1 SP8      0.137000
     22 HAC        -5.6680   -3.7020    0.7800 ha        1 SP8      0.135000
     23 HAR        -3.4680   -3.3550    1.9040 ha        1 SP8      0.137000
     24 HAS        -2.0190   -1.4460    1.2590 ha        1 SP8      0.145500
     25 HNAH       -2.0190    0.8940    1.2690 hn        1 SP8      0.310500
     26 HAI        -0.9580    2.3790   -1.0800 h1        1 SP8      0.089700
     27 HAB        -1.1060    4.4760    0.2160 hc        1 SP8      0.042033
     28 HABA       -2.7510    3.7310    0.0790 hc        1 SP8      0.042033
     29 HABB       -1.8330    3.6210    1.6400 hc        1 SP8      0.042033
     30 HAJ         0.8240    3.2070    0.5340 hc        1 SP8      0.050700
     31 HAJA        0.2310    2.0450    1.7850 hc        1 SP8      0.050700
     32 HAK         0.6410    0.1150    0.2110 h1        1 SP8      0.035700
     33 HAKA        1.1600    1.2800   -1.0810 h1        1 SP8      0.035700
     34 HNAL        2.9190    1.9110    0.6230 hn        1 SP8      0.352800
     35 HAM         2.8930   -0.9670    0.0800 h1        1 SP8      0.031200
     36 HAMA        3.2880    0.2210   -1.2340 h1        1 SP8      0.031200
     37 HAN         5.2160    1.1030    0.1450 hc        1 SP8      0.046200
     38 HANA        4.8350   -0.0950    1.4430 hc        1 SP8      0.046200
     39 HAO         5.1250   -1.9730   -0.2150 hc        1 SP8      0.048200
     40 HAOA        5.5130   -0.7720   -1.5080 hc        1 SP8      0.048200
     41 HAP         7.4490    0.0920   -0.1320 h1        1 SP8      0.024200
     42 HAPA        7.0420   -1.1010    1.1730 h1        1 SP8      0.024200
     43 HNAQ        8.7720   -1.9150   -0.2360 hn        1 SP8      0.348300
     44 HNAA        7.4620   -2.7920   -0.6520 hn        1 SP8      0.348300
@<TRIPOS>BOND
     1    1    2 ar  
     2    1    6 ar  
     3    1   20 1   
     4    2    3 ar  
     5    2   21 1   
     6    3    4 ar  
     7    3   22 1   
     8    4    5 ar  
     9    4   23 1   
    10    5    6 ar  
    11    5   24 1   
    12    6    7 1   
    13    7    8 2   
    14    7    9 1   
    15    9   10 1   
    16    9   25 1   
    17   10   11 1   
    18   10   12 1   
    19   10   26 1   
    20   11   27 1   
    21   11   28 1   
    22   11   29 1   
    23   12   13 1   
    24   12   30 1   
    25   12   31 1   
    26   13   14 1   
    27   13   32 1   
    28   13   33 1   
    29   14   15 1   
    30   14   34 1   
    31   15   16 1   
    32   15   35 1   
    33   15   36 1   
    34   16   17 1   
    35   16   37 1   
    36   16   38 1   
    37   17   18 1   
    38   17   39 1   
    39   17   40 1   
    40   18   19 1   
    41   18   41 1   
    42   18   42 1   
    43   19   43 1   
    44   19   44 1   
@<TRIPOS>SUBSTRUCTURE
     1 SP8         1 TEMP              0 ****  ****    0 ROOT
