@<TRIPOS>MOLECULE
SP8
   47    47     1     0     0
SMALL
bcc


@<TRIPOS>ATOM
      1 CAE         1.0140    0.3370    0.7710 ca        1 SP8     -0.054000
      2 CAD         2.0740   -0.2960    0.1270 ca        1 SP8     -0.119500
      3 CAC         2.1470   -1.6890    0.0980 ca        1 SP8     -0.011000
      4 CAR         1.1520   -2.4570    0.7220 ca        1 SP8     -0.119500
      5 CAS         0.0890   -1.8400    1.3650 ca        1 SP8     -0.054000
      6 CAF         0.0050   -0.4330    1.3930 ca        1 SP8     -0.233600
      7 CAG        -1.0600    0.3060    2.0380 c         1 SP8      0.601700
      8 OAA        -1.1490    1.5040    2.2840 o         1 SP8     -0.491100
      9 NAH        -2.2850   -0.5130    2.4770 ny        1 SP8     -0.692800
     10 CAI        -3.5100    0.3120    2.7670 c3        1 SP8      0.145500
     11 CAB        -4.7610   -0.5610    2.7360 c3        1 SP8     -0.145100
     12 CAJ        -3.4100    1.0560    4.1140 c3        1 SP8     -0.128400
     13 CAK        -4.2610    2.3250    4.0510 c3        1 SP8      0.109800
     14 NAL        -4.2160    3.1140    5.3240 ny        1 SP8     -0.764000
     15 CAM        -5.0800    4.3370    5.2500 c3        1 SP8      0.105800
     16 CAN        -5.0590    5.1560    6.5410 c3        1 SP8     -0.107400
     17 CAO        -5.9650    6.3680    6.3910 c3        1 SP8     -0.106400
     18 CAP        -5.9420    7.1810    7.6850 c3        1 SP8      0.100800
     19 NAQ        -6.8060    8.3950    7.6400 nz        1 SP8     -0.837600
     20 HAE         0.9580    1.4390    0.7960 ha        1 SP8      0.146500
     21 HAD         2.8580    0.3100   -0.3610 ha        1 SP8      0.185500
     22 HAC         2.9890   -2.1910   -0.4150 ha        1 SP8      0.189000
     23 HAR         1.2210   -3.5590    0.7010 ha        1 SP8      0.185500
     24 HAS        -0.6590   -2.4790    1.8570 ha        1 SP8      0.146500
     25 HNAH       -2.0300   -1.0620    3.3040 hn        1 SP8      0.468800
     26 HAI        -3.5650    1.0750    1.9280 hx        1 SP8      0.119700
     27 HAB        -4.7350   -1.3530    3.5240 hc        1 SP8      0.088700
     28 HABA       -4.8920   -1.0510    1.7370 hc        1 SP8      0.088700
     29 HABB       -5.6580    0.0830    2.9120 hc        1 SP8      0.088700
     30 HAJ        -3.7670    0.3790    4.9360 hc        1 SP8      0.094200
     31 HAJA       -2.3410    1.3360    4.3280 hc        1 SP8      0.094200
     32 HAK        -3.8890    2.9940    3.2200 hx        1 SP8      0.123200
     33 HAKA       -5.3400    2.0590    3.8490 hx        1 SP8      0.123200
     34 HNAL       -3.2450    3.3960    5.5140 hn        1 SP8      0.462300
     35 HAM        -6.1340    3.9990    5.0260 hx        1 SP8      0.119700
     36 HAMA       -4.7120    4.9660    4.3880 hx        1 SP8      0.119700
     37 HAN        -4.0130    5.4960    6.7690 hc        1 SP8      0.086200
     38 HANA       -5.4120    4.5300    7.4060 hc        1 SP8      0.086200
     39 HAO        -7.0130    6.0300    6.1630 hc        1 SP8      0.085700
     40 HAOA       -5.6130    6.9980    5.5300 hc        1 SP8      0.085700
     41 HAP        -6.2990    6.5430    8.5480 hx        1 SP8      0.124700
     42 HAPA       -4.8880    7.5230    7.9070 hx        1 SP8      0.124700
     43 HNAQ       -7.7870    8.1380    7.4740 hn        1 SP8      0.477467
     44 HNAA       -6.7450    8.8950    8.5390 hn        1 SP8      0.477467
     45 HAH2       -2.5150   -1.1710    1.7180 hn        1 SP8      0.468800
     46 HAL2       -4.5300    2.5220    6.1040 hn        1 SP8      0.462300
     47 HAQ3       -6.5040    9.0300    6.8910 hn        1 SP8      0.477467
@<TRIPOS>BOND
     1    1    2 ar  
     2    1    6 ar  
     3    1   20 1   
     4    2    3 ar  
     5    2   21 1   
     6    3    4 ar  
     7    3   22 1   
     8    4    5 ar  
     9    4   23 1   
    10    5    6 ar  
    11    5   24 1   
    12    6    7 1   
    13    7    8 2   
    14    7    9 1   
    15    9   10 1   
    16    9   25 1   
    17    9   45 1   
    18   10   11 1   
    19   10   12 1   
    20   10   26 1   
    21   11   27 1   
    22   11   28 1   
    23   11   29 1   
    24   12   13 1   
    25   12   30 1   
    26   12   31 1   
    27   13   14 1   
    28   13   32 1   
    29   13   33 1   
    30   14   15 1   
    31   14   34 1   
    32   14   46 1   
    33   15   16 1   
    34   15   35 1   
    35   15   36 1   
    36   16   17 1   
    37   16   37 1   
    38   16   38 1   
    39   17   18 1   
    40   17   39 1   
    41   17   40 1   
    42   18   19 1   
    43   18   41 1   
    44   18   42 1   
    45   19   43 1   
    46   19   44 1   
    47   19   47 1   
@<TRIPOS>SUBSTRUCTURE
     1 SP8         1 TEMP              0 ****  ****    0 ROOT
