@<TRIPOS>MOLECULE
SP8
   47    47     1     0     0
SMALL
bcc


@<TRIPOS>ATOM
      1 CAE         1.0720    0.2900    0.8800 ca        1 SP8     -0.054000
      2 CAD         2.1290   -0.3640    0.2510 ca        1 SP8     -0.119500
      3 CAC         2.1200   -1.7540    0.1250 ca        1 SP8     -0.011000
      4 CAR         1.0450   -2.4970    0.6360 ca        1 SP8     -0.119500
      5 CAS        -0.0160   -1.8590    1.2620 ca        1 SP8     -0.054000
      6 CAF        -0.0160   -0.4540    1.3870 ca        1 SP8     -0.233600
      7 CAG        -1.0720    0.3050    2.0220 c         1 SP8      0.601700
      8 OAA        -1.1040    1.4870    2.3500 o         1 SP8     -0.491100
      9 NAH        -2.3690   -0.4610    2.3320 n4        1 SP8     -0.692800
     10 CAI        -3.5570    0.4200    2.6120 c3        1 SP8      0.145500
     11 CAB        -4.8540   -0.3680    2.4480 c3        1 SP8     -0.145100
     12 CAJ        -3.4940    1.0600    4.0130 c3        1 SP8     -0.128400
     13 CAK        -4.2640    2.3820    3.9950 c3        1 SP8      0.109800
     14 NAL        -4.2470    3.0780    5.3220 n4        1 SP8     -0.764000
     15 CAM        -5.0320    4.3550    5.2890 c3        1 SP8      0.105800
     16 CAN        -5.0390    5.0800    6.6350 c3        1 SP8     -0.107400
     17 CAO        -5.8620    6.3540    6.5230 c3        1 SP8     -0.106400
     18 CAP        -5.8670    7.0740    7.8720 c3        1 SP8      0.100800
     19 NAQ        -6.6540    8.3400    7.8670 n4        1 SP8     -0.837600
     20 HAE         1.0810    1.3890    0.9810 ha        1 SP8      0.146500
     21 HAD         2.9760    0.2230   -0.1470 ha        1 SP8      0.185500
     22 HAC         2.9590   -2.2730   -0.3740 ha        1 SP8      0.189000
     23 HAR         1.0480   -3.5980    0.5400 ha        1 SP8      0.185500
     24 HAS        -0.8300   -2.4810    1.6640 ha        1 SP8      0.146500
     25 HNAH       -2.5910   -1.0490    1.5160 hn        1 SP8      0.468800
     26 HAI        -3.5160    1.2400    1.8290 hx        1 SP8      0.119700
     27 HAB        -5.7190    0.3190    2.6190 hc        1 SP8      0.088700
     28 HABA       -4.9540   -0.7790    1.4110 hc        1 SP8      0.088700
     29 HABB       -4.9240   -1.2120    3.1770 hc        1 SP8      0.088700
     30 HAJ        -3.9390    0.3520    4.7630 hc        1 SP8      0.094200
     31 HAJA       -2.4250    1.2570    4.3060 hc        1 SP8      0.094200
     32 HAK        -5.3430    2.2000    3.7150 hx        1 SP8      0.123200
     33 HAKA       -3.8040    3.0820    3.2360 hx        1 SP8      0.123200
     34 HNAL       -3.2740    3.2840    5.5850 hn        1 SP8      0.462300
     35 HAM        -6.0890    4.1010    4.9840 hx        1 SP8      0.119700
     36 HAMA       -4.5770    5.0170    4.4960 hx        1 SP8      0.119700
     37 HAN        -5.4780    4.4200    7.4320 hc        1 SP8      0.086200
     38 HANA       -3.9890    5.3380    6.9430 hc        1 SP8      0.086200
     39 HAO        -5.4230    7.0190    5.7300 hc        1 SP8      0.085700
     40 HAOA       -6.9120    6.1000    6.2150 hc        1 SP8      0.085700
     41 HAP        -4.8090    7.3330    8.1740 hx        1 SP8      0.124700
     42 HAPA       -6.3110    6.4020    8.6650 hx        1 SP8      0.124700
     43 HNAQ       -7.6370    8.1570    7.6300 hn        1 SP8      0.477467
     44 HNAA       -6.6160    8.7730    8.8020 hn        1 SP8      0.477467
     45 HAH2       -2.1980   -1.0810    3.1300 hn        1 SP8      0.468800
     46 HAL2       -4.6410    2.4550    6.0390 hn        1 SP8      0.462300
     47 HAQ3       -6.2710    9.0050    7.1830 hn        1 SP8      0.477467
@<TRIPOS>BOND
     1    1    2 ar  
     2    1    6 ar  
     3    1   20 1   
     4    2    3 ar  
     5    2   21 1   
     6    3    4 ar  
     7    3   22 1   
     8    4    5 ar  
     9    4   23 1   
    10    5    6 ar  
    11    5   24 1   
    12    6    7 1   
    13    7    8 2   
    14    7    9 1   
    15    9   10 1   
    16    9   25 1   
    17    9   45 1   
    18   10   11 1   
    19   10   12 1   
    20   10   26 1   
    21   11   27 1   
    22   11   28 1   
    23   11   29 1   
    24   12   13 1   
    25   12   30 1   
    26   12   31 1   
    27   13   14 1   
    28   13   32 1   
    29   13   33 1   
    30   14   15 1   
    31   14   34 1   
    32   14   46 1   
    33   15   16 1   
    34   15   35 1   
    35   15   36 1   
    36   16   17 1   
    37   16   37 1   
    38   16   38 1   
    39   17   18 1   
    40   17   39 1   
    41   17   40 1   
    42   18   19 1   
    43   18   41 1   
    44   18   42 1   
    45   19   43 1   
    46   19   44 1   
    47   19   47 1   
@<TRIPOS>SUBSTRUCTURE
     1 SP8         1 TEMP              0 ****  ****    0 ROOT
