@<TRIPOS>MOLECULE
SP9
   44    44     1     0     0
SMALL
bcc


@<TRIPOS>ATOM
      1 CAE        -4.5790   -0.9550    0.8700 ca        1 SP9     -0.092000
      2 CAD        -5.3650   -2.0480    0.5100 ca        1 SP9     -0.138500
      3 CAC        -4.9380   -2.9180   -0.4920 ca        1 SP9     -0.109000
      4 CAR        -3.7190   -2.6980   -1.1340 ca        1 SP9     -0.138500
      5 CAS        -2.9300   -1.6030   -0.7830 ca        1 SP9     -0.092000
      6 CAF        -3.3620   -0.7250    0.2150 ca        1 SP9     -0.141600
      7 CAG        -2.5490    0.4520    0.6410 c         1 SP9      0.673700
      8 OAA        -2.4860    0.7990    1.8390 o         1 SP9     -0.606100
      9 NAH        -1.8720    1.1400   -0.3460 n         1 SP9     -0.569900
     10 CAI        -1.1120    2.3420   -0.0830 c3        1 SP9      0.097700
     11 CAB        -1.7940    3.5990   -0.6330 c3        1 SP9     -0.114100
     12 CAJ         0.3120    2.2770   -0.6630 c3        1 SP9     -0.094400
     13 CAK         1.1610    1.2430    0.0700 c3        1 SP9      0.162800
     14 NAL         2.5530    1.2700   -0.3400 n3        1 SP9     -0.825200
     15 CAM         3.3370    0.2100    0.2640 c3        1 SP9      0.163800
     16 CAN         4.7530    0.1170   -0.3020 c3        1 SP9     -0.083400
     17 CAO         5.5220   -0.9760    0.4070 c3        1 SP9     -0.083400
     18 CAP         6.9430   -1.0620   -0.1490 c3        1 SP9      0.158800
     19 NAQ         7.7220   -2.1290    0.4350 n3        1 SP9     -0.916800
     20 HAE        -4.8960   -0.2720    1.6740 ha        1 SP9      0.145000
     21 HAD        -6.3220   -2.2250    1.0240 ha        1 SP9      0.137000
     22 HAC        -5.5590   -3.7820   -0.7730 ha        1 SP9      0.135000
     23 HAR        -3.3760   -3.3900   -1.9170 ha        1 SP9      0.137000
     24 HAS        -1.9620   -1.4500   -1.2850 ha        1 SP9      0.145000
     25 HNAH       -2.0190    0.8950   -1.2950 hn        1 SP9      0.307500
     26 HAI        -1.0310    2.4500    1.0430 h1        1 SP9      0.093700
     27 HAB        -2.8290    3.6980   -0.2260 hc        1 SP9      0.042033
     28 HABA       -1.2060    4.4970   -0.3270 hc        1 SP9      0.042033
     29 HABB       -1.8470    3.5710   -1.7470 hc        1 SP9      0.042033
     30 HAJ         0.2740    2.0440   -1.7590 hc        1 SP9      0.050200
     31 HAJA        0.7720    3.2940   -0.5510 hc        1 SP9      0.050200
     32 HAK         1.1330    1.4640    1.1760 h1        1 SP9      0.036200
     33 HAKA        0.6990    0.2220   -0.0750 h1        1 SP9      0.036200
     34 HNAL        2.6260    1.2370   -1.3390 hn        1 SP9      0.351800
     35 HAM         3.3970    0.4280    1.3690 h1        1 SP9      0.030700
     36 HAMA        2.8430   -0.8020    0.1530 h1        1 SP9      0.030700
     37 HAN         4.7140   -0.1020   -1.4020 hc        1 SP9      0.046200
     38 HANA        5.2800    1.0990   -0.1750 hc        1 SP9      0.046200
     39 HAO         5.5540   -0.7620    1.5080 hc        1 SP9      0.048200
     40 HAOA        4.9990   -1.9590    0.2720 hc        1 SP9      0.048200
     41 HAP         6.8880   -1.2590   -1.2580 h1        1 SP9      0.024700
     42 HAPA        7.4300   -0.0490   -0.0180 h1        1 SP9      0.024700
     43 HNAQ        8.6760   -2.0620    0.1420 hn        1 SP9      0.348800
     44 HNAA        7.6810   -2.1000    1.4340 hn        1 SP9      0.348800
@<TRIPOS>BOND
     1    1    2 ar  
     2    1    6 ar  
     3    1   20 1   
     4    2    3 ar  
     5    2   21 1   
     6    3    4 ar  
     7    3   22 1   
     8    4    5 ar  
     9    4   23 1   
    10    5    6 ar  
    11    5   24 1   
    12    6    7 1   
    13    7    8 2   
    14    7    9 1   
    15    9   10 1   
    16    9   25 1   
    17   10   11 1   
    18   10   12 1   
    19   10   26 1   
    20   11   27 1   
    21   11   28 1   
    22   11   29 1   
    23   12   13 1   
    24   12   30 1   
    25   12   31 1   
    26   13   14 1   
    27   13   32 1   
    28   13   33 1   
    29   14   15 1   
    30   14   34 1   
    31   15   16 1   
    32   15   35 1   
    33   15   36 1   
    34   16   17 1   
    35   16   37 1   
    36   16   38 1   
    37   17   18 1   
    38   17   39 1   
    39   17   40 1   
    40   18   19 1   
    41   18   41 1   
    42   18   42 1   
    43   19   43 1   
    44   19   44 1   
@<TRIPOS>SUBSTRUCTURE
     1 SP9         1 TEMP              0 ****  ****    0 ROOT
