@<TRIPOS>MOLECULE
SP9
   47    47     1     0     0
SMALL
bcc


@<TRIPOS>ATOM
      1 CAE         1.0450   -0.2960    0.8400 ca        1 SP9     -0.054000
      2 CAD         2.1000    0.3530    0.2040 ca        1 SP9     -0.119500
      3 CAC         2.1070    1.7450    0.0990 ca        1 SP9     -0.011000
      4 CAR         1.0500    2.4940    0.6380 ca        1 SP9     -0.119500
      5 CAS        -0.0080    1.8600    1.2720 ca        1 SP9     -0.054000
      6 CAF        -0.0250    0.4540    1.3760 ca        1 SP9     -0.233600
      7 CAG        -1.0800   -0.3010    2.0180 c         1 SP9      0.601700
      8 OAA        -1.1210   -1.4880    2.3290 o         1 SP9     -0.491100
      9 NAH        -2.3610    0.4770    2.3610 n4        1 SP9     -0.692800
     10 CAI        -3.5560   -0.3930    2.6480 c3        1 SP9      0.145500
     11 CAB        -4.8450    0.4140    2.5180 c3        1 SP9     -0.145100
     12 CAJ        -3.4770   -1.0550    4.0380 c3        1 SP9     -0.128400
     13 CAK        -4.2650   -2.3660    4.0130 c3        1 SP9      0.109800
     14 NAL        -4.2350   -3.0830    5.3290 n4        1 SP9     -0.764000
     15 CAM        -5.0370   -4.3480    5.2910 c3        1 SP9      0.105800
     16 CAN        -5.0310   -5.0940    6.6260 c3        1 SP9     -0.107400
     17 CAO        -5.8720   -6.3560    6.5090 c3        1 SP9     -0.106400
     18 CAP        -5.8640   -7.0960    7.8470 c3        1 SP9      0.100800
     19 NAQ        -6.6670   -8.3510    7.8360 n4        1 SP9     -0.837600
     20 HAE         1.0420   -1.3970    0.9250 ha        1 SP9      0.146500
     21 HAD         2.9320   -0.2380   -0.2180 ha        1 SP9      0.185500
     22 HAC         2.9440    2.2600   -0.4070 ha        1 SP9      0.189000
     23 HAR         1.0670    3.5950    0.5590 ha        1 SP9      0.185500
     24 HAS        -0.8070    2.4860    1.6970 ha        1 SP9      0.146500
     25 HNAH       -2.1680    1.0820    3.1660 hn        1 SP9      0.468800
     26 HAI        -3.5380   -1.2010    1.8520 hx        1 SP9      0.119700
     27 HAB        -5.7160   -0.2650    2.6940 hc        1 SP9      0.088700
     28 HABA       -4.9570    0.8420    1.4890 hc        1 SP9      0.088700
     29 HABB       -4.8910    1.2480    3.2610 hc        1 SP9      0.088700
     30 HAJ        -3.9010   -0.3530    4.8060 hc        1 SP9      0.094200
     31 HAJA       -2.4070   -1.2700    4.3100 hc        1 SP9      0.094200
     32 HAK        -5.3460   -2.1660    3.7550 hx        1 SP9      0.123200
     33 HAKA       -3.8260   -3.0610    3.2360 hx        1 SP9      0.123200
     34 HNAL       -3.2600   -3.3050    5.5730 hn        1 SP9      0.462300
     35 HAM        -6.0960   -4.0760    5.0070 hx        1 SP9      0.119700
     36 HAMA       -4.6040   -5.0050    4.4810 hx        1 SP9      0.119700
     37 HAN        -5.4480   -4.4400    7.4390 hc        1 SP9      0.086200
     38 HANA       -3.9800   -5.3700    6.9130 hc        1 SP9      0.086200
     39 HAO        -6.9240   -6.0830    6.2220 hc        1 SP9      0.085700
     40 HAOA       -5.4550   -7.0140    5.6990 hc        1 SP9      0.085700
     41 HAP        -6.2860   -6.4300    8.6580 hx        1 SP9      0.124700
     42 HAPA       -4.8040   -7.3730    8.1270 hx        1 SP9      0.124700
     43 HNAQ       -6.3040   -9.0100    7.1360 hn        1 SP9      0.477467
     44 HNAA       -6.6200   -8.7980    8.7630 hn        1 SP9      0.477467
     45 HAH2       -2.5890    1.0800    1.5580 hn        1 SP9      0.468800
     46 HAL2       -4.6090   -2.4650    6.0620 hn        1 SP9      0.462300
     47 HAQ3       -7.6520   -8.1530    7.6190 hn        1 SP9      0.477467
@<TRIPOS>BOND
     1    1    2 ar  
     2    1    6 ar  
     3    1   20 1   
     4    2    3 ar  
     5    2   21 1   
     6    3    4 ar  
     7    3   22 1   
     8    4    5 ar  
     9    4   23 1   
    10    5    6 ar  
    11    5   24 1   
    12    6    7 1   
    13    7    8 2   
    14    7    9 1   
    15    9   10 1   
    16    9   25 1   
    17    9   45 1   
    18   10   11 1   
    19   10   12 1   
    20   10   26 1   
    21   11   27 1   
    22   11   28 1   
    23   11   29 1   
    24   12   13 1   
    25   12   30 1   
    26   12   31 1   
    27   13   14 1   
    28   13   32 1   
    29   13   33 1   
    30   14   15 1   
    31   14   34 1   
    32   14   46 1   
    33   15   16 1   
    34   15   35 1   
    35   15   36 1   
    36   16   17 1   
    37   16   37 1   
    38   16   38 1   
    39   17   18 1   
    40   17   39 1   
    41   17   40 1   
    42   18   19 1   
    43   18   41 1   
    44   18   42 1   
    45   19   43 1   
    46   19   44 1   
    47   19   47 1   
@<TRIPOS>SUBSTRUCTURE
     1 SP9         1 TEMP              0 ****  ****    0 ROOT
