@<TRIPOS>MOLECULE
SP9
   47    47     1     0     0
SMALL
bcc


@<TRIPOS>ATOM
      1 CAE         0.9600   -0.3220    0.7110 ca        1 SP9     -0.054000
      2 CAD         2.0130    0.3080    0.0540 ca        1 SP9     -0.119500
      3 CAC         2.1120    1.7000    0.0590 ca        1 SP9     -0.011000
      4 CAR         1.1510    2.4690    0.7320 ca        1 SP9     -0.119500
      5 CAS         0.0940    1.8550    1.3880 ca        1 SP9     -0.054000
      6 CAF        -0.0160    0.4490    1.3810 ca        1 SP9     -0.233600
      7 CAG        -1.0770   -0.2870    2.0360 c         1 SP9      0.601700
      8 OAA        -1.1820   -1.4900    2.2540 o         1 SP9     -0.491100
      9 NAH        -2.2740    0.5420    2.5300 n4        1 SP9     -0.692800
     10 CAI        -3.5060   -0.2680    2.8320 c3        1 SP9      0.145500
     11 CAB        -4.7400    0.6280    2.8590 c3        1 SP9     -0.145100
     12 CAJ        -3.3840   -1.0490    4.1550 c3        1 SP9     -0.128400
     13 CAK        -4.2590   -2.3010    4.0820 c3        1 SP9      0.109800
     14 NAL        -4.1960   -3.1260    5.3310 n4        1 SP9     -0.764000
     15 CAM        -5.0820   -4.3320    5.2480 c3        1 SP9      0.105800
     16 CAN        -5.0430   -5.1840    6.5160 c3        1 SP9     -0.107400
     17 CAO        -5.9720   -6.3780    6.3570 c3        1 SP9     -0.106400
     18 CAP        -5.9320   -7.2250    7.6280 c3        1 SP9      0.100800
     19 NAQ        -6.8150   -8.4240    7.5720 n4        1 SP9     -0.837600
     20 HAE         0.8830   -1.4230    0.7080 ha        1 SP9      0.146500
     21 HAD         2.7720   -0.2990   -0.4720 ha        1 SP9      0.185500
     22 HAC         2.9490    2.2000   -0.4630 ha        1 SP9      0.189000
     23 HAR         1.2400    3.5700    0.7390 ha        1 SP9      0.185500
     24 HAS        -0.6280    2.4940    1.9180 ha        1 SP9      0.146500
     25 HNAH       -2.5110    1.2250    1.7960 hn        1 SP9      0.468800
     26 HAI        -3.5990   -1.0070    1.9750 hx        1 SP9      0.119700
     27 HAB        -4.6780    1.3990    3.6670 hc        1 SP9      0.088700
     28 HABA       -4.8900    1.1470    1.8770 hc        1 SP9      0.088700
     29 HABB       -5.6440   -0.0040    3.0430 hc        1 SP9      0.088700
     30 HAJ        -3.7070   -0.3890    5.0050 hc        1 SP9      0.094200
     31 HAJA       -2.3150   -1.3540    4.3340 hc        1 SP9      0.094200
     32 HAK        -5.3380   -2.0120    3.9140 hx        1 SP9      0.123200
     33 HAKA       -3.9190   -2.9550    3.2240 hx        1 SP9      0.123200
     34 HNAL       -3.2240   -3.4270    5.4900 hn        1 SP9      0.462300
     35 HAM        -6.1350   -3.9710    5.0580 hx        1 SP9      0.120200
     36 HAMA       -4.7450   -4.9440    4.3610 hx        1 SP9      0.120200
     37 HAN        -5.3650   -4.5760    7.4050 hc        1 SP9      0.086200
     38 HANA       -3.9970   -5.5470    6.7100 hc        1 SP9      0.086200
     39 HAO        -7.0190   -6.0190    6.1620 hc        1 SP9      0.085700
     40 HAOA       -5.6500   -6.9910    5.4720 hc        1 SP9      0.085700
     41 HAP        -6.2580   -6.6040    8.5150 hx        1 SP9      0.124700
     42 HAPA       -4.8780   -7.5880    7.8160 hx        1 SP9      0.124700
     43 HNAQ       -6.5400   -9.0440    6.8010 hn        1 SP9      0.477467
     44 HNAA       -6.7420   -8.9480    8.4570 hn        1 SP9      0.477467
     45 HAH2       -1.9860    1.0640    3.3650 hn        1 SP9      0.468800
     46 HAL2       -4.4800   -2.5500    6.1350 hn        1 SP9      0.462300
     47 HAQ3       -7.7960   -8.1480    7.4360 hn        1 SP9      0.477467
@<TRIPOS>BOND
     1    1    2 ar  
     2    1    6 ar  
     3    1   20 1   
     4    2    3 ar  
     5    2   21 1   
     6    3    4 ar  
     7    3   22 1   
     8    4    5 ar  
     9    4   23 1   
    10    5    6 ar  
    11    5   24 1   
    12    6    7 1   
    13    7    8 2   
    14    7    9 1   
    15    9   10 1   
    16    9   25 1   
    17    9   45 1   
    18   10   11 1   
    19   10   12 1   
    20   10   26 1   
    21   11   27 1   
    22   11   28 1   
    23   11   29 1   
    24   12   13 1   
    25   12   30 1   
    26   12   31 1   
    27   13   14 1   
    28   13   32 1   
    29   13   33 1   
    30   14   15 1   
    31   14   34 1   
    32   14   46 1   
    33   15   16 1   
    34   15   35 1   
    35   15   36 1   
    36   16   17 1   
    37   16   37 1   
    38   16   38 1   
    39   17   18 1   
    40   17   39 1   
    41   17   40 1   
    42   18   19 1   
    43   18   41 1   
    44   18   42 1   
    45   19   43 1   
    46   19   44 1   
    47   19   47 1   
@<TRIPOS>SUBSTRUCTURE
     1 SP9         1 TEMP              0 ****  ****    0 ROOT
