@<TRIPOS>MOLECULE
SP9
   47    47     1     0     0
SMALL
bcc


@<TRIPOS>ATOM
      1 CAE         0.9640   -0.3410    0.7050 ca        1 SP9     -0.054000
      2 CAD         2.0120    0.2920    0.0420 ca        1 SP9     -0.119500
      3 CAC         2.0740    1.6850   -0.0060 ca        1 SP9     -0.011000
      4 CAR         1.0800    2.4530    0.6180 ca        1 SP9     -0.119500
      5 CAS         0.0280    1.8360    1.2800 ca        1 SP9     -0.054000
      6 CAF        -0.0440    0.4290    1.3270 ca        1 SP9     -0.233600
      7 CAG        -1.0960   -0.3100    1.9920 c         1 SP9      0.601700
      8 OAA        -1.1740   -1.5060    2.2560 o         1 SP9     -0.491100
      9 NAH        -2.3240    0.5050    2.4340 ny        1 SP9     -0.692800
     10 CAI        -3.5390   -0.3260    2.7470 c3        1 SP9      0.145500
     11 CAB        -4.7970    0.5370    2.7180 c3        1 SP9     -0.145100
     12 CAJ        -3.4190   -1.0510    4.1020 c3        1 SP9     -0.128400
     13 CAK        -4.2610   -2.3270    4.0650 c3        1 SP9      0.109800
     14 NAL        -4.1970   -3.1000    5.3470 ny        1 SP9     -0.764000
     15 CAM        -5.0510   -4.3300    5.2980 c3        1 SP9      0.105800
     16 CAN        -5.0110   -5.1320    6.5990 c3        1 SP9     -0.107400
     17 CAO        -5.9080   -6.3540    6.4730 c3        1 SP9     -0.106400
     18 CAP        -5.8660   -7.1500    7.7780 c3        1 SP9      0.100800
     19 NAQ        -6.7200   -8.3710    7.7560 nz        1 SP9     -0.837600
     20 HAE         0.9170   -1.4430    0.7450 ha        1 SP9      0.146500
     21 HAD         2.7960   -0.3150   -0.4470 ha        1 SP9      0.185500
     22 HAC         2.9060    2.1870   -0.5340 ha        1 SP9      0.189000
     23 HAR         1.1400    3.5550    0.5830 ha        1 SP9      0.185500
     24 HAS        -0.7200    2.4760    1.7720 ha        1 SP9      0.146500
     25 HNAH       -2.5660    1.1510    1.6690 hn        1 SP9      0.468800
     26 HAI        -3.5970   -1.1000    1.9190 hx        1 SP9      0.119700
     27 HAB        -4.9420    1.0140    1.7150 hc        1 SP9      0.088700
     28 HABA       -4.7690    1.3400    3.4960 hc        1 SP9      0.088700
     29 HABB       -5.6860   -0.1110    2.9120 hc        1 SP9      0.088700
     30 HAJ        -3.7730   -0.3660    4.9200 hc        1 SP9      0.094200
     31 HAJA       -2.3460   -1.3200    4.3100 hc        1 SP9      0.094200
     32 HAK        -5.3440   -2.0730    3.8700 hx        1 SP9      0.123200
     33 HAKA       -3.8910   -3.0050    3.2390 hx        1 SP9      0.123200
     34 HNAL       -4.5080   -2.5010    6.1230 hn        1 SP9      0.462300
     35 HAM        -4.6860   -4.9680    4.4400 hx        1 SP9      0.119700
     36 HAMA       -6.1100   -4.0050    5.0790 hx        1 SP9      0.119700
     37 HAN        -5.3610   -4.4980    7.4590 hc        1 SP9      0.086200
     38 HANA       -3.9590   -5.4610    6.8210 hc        1 SP9      0.086200
     39 HAO        -6.9610   -6.0280    6.2510 hc        1 SP9      0.085700
     40 HAOA       -5.5590   -6.9920    5.6170 hc        1 SP9      0.085700
     41 HAP        -6.2200   -6.5030    8.6350 hx        1 SP9      0.124700
     42 HAPA       -4.8060   -7.4800    7.9930 hx        1 SP9      0.124700
     43 HNAQ       -6.6460   -8.8590    8.6610 hn        1 SP9      0.477467
     44 HNAA       -7.7050   -8.1250    7.5970 hn        1 SP9      0.477467
     45 HAH2       -2.0640    1.0670    3.2510 hn        1 SP9      0.468800
     46 HAL2       -3.2210   -3.3710    5.5310 hn        1 SP9      0.462300
     47 HAQ3       -6.4190   -9.0140    7.0130 hn        1 SP9      0.477467
@<TRIPOS>BOND
     1    1    2 ar  
     2    1    6 ar  
     3    1   20 1   
     4    2    3 ar  
     5    2   21 1   
     6    3    4 ar  
     7    3   22 1   
     8    4    5 ar  
     9    4   23 1   
    10    5    6 ar  
    11    5   24 1   
    12    6    7 1   
    13    7    8 2   
    14    7    9 1   
    15    9   10 1   
    16    9   25 1   
    17    9   45 1   
    18   10   11 1   
    19   10   12 1   
    20   10   26 1   
    21   11   27 1   
    22   11   28 1   
    23   11   29 1   
    24   12   13 1   
    25   12   30 1   
    26   12   31 1   
    27   13   14 1   
    28   13   32 1   
    29   13   33 1   
    30   14   15 1   
    31   14   34 1   
    32   14   46 1   
    33   15   16 1   
    34   15   35 1   
    35   15   36 1   
    36   16   17 1   
    37   16   37 1   
    38   16   38 1   
    39   17   18 1   
    40   17   39 1   
    41   17   40 1   
    42   18   19 1   
    43   18   41 1   
    44   18   42 1   
    45   19   43 1   
    46   19   44 1   
    47   19   47 1   
@<TRIPOS>SUBSTRUCTURE
     1 SP9         1 TEMP              0 ****  ****    0 ROOT
