@<TRIPOS>MOLECULE
SP9
   44    41     1     0     0
SMALL
bcc


@<TRIPOS>ATOM
      1 CAE         1.9510    5.0870   -0.8580 c1        1 SP9     -0.047500
      2 CAD         2.1910    6.4510   -0.9460 c1        1 SP9     -0.058750
      3 CAC         2.9410    6.9580   -1.9990 c1        1 SP9     -0.058750
      4 CAR         3.4470    6.1070   -2.9550 c1        1 SP9     -0.058750
      5 CAS         3.2080    4.7470   -2.8680 c1        1 SP9     -0.058750
      6 CAF         2.4560    4.2380   -1.8130 cg        1 SP9     -0.090200
      7 CAG         2.2190    2.7220   -1.6950 c         1 SP9      0.624300
      8 OAA         2.6760    1.9570   -2.5560 o         1 SP9     -0.606100
      9 NAH         1.3440    2.2010   -0.6450 n         1 SP9     -0.571900
     10 CAI         0.6500    0.9380   -0.8360 c3        1 SP9      0.099700
     11 CAB        -0.6270    1.1730   -1.6410 c3        1 SP9     -0.112100
     12 CAJ         0.3000    0.3630    0.4780 c3        1 SP9     -0.099400
     13 CAK         0.2430   -1.1560    0.3710 c3        1 SP9      0.165800
     14 NAL        -0.6860   -1.6750    1.3560 n3        1 SP9     -0.824200
     15 CAM        -0.9420   -3.0980    1.0820 c3        1 SP9      0.164800
     16 CAN        -1.8940   -3.6640    2.1420 c3        1 SP9     -0.079400
     17 CAO        -2.2610   -5.1460    1.7810 c3        1 SP9     -0.122400
     18 CAP        -3.3460   -5.6520    2.7420 c3        1 SP9      0.150800
     19 NAQ        -3.7110   -6.9720    2.3900 n3        1 SP9     -0.905800
     20 HAE         1.4230    4.7310   -0.1190 ha        1 SP9      0.077500
     21 HAD         1.8350    7.0500   -0.2740 ha        1 SP9      0.083500
     22 HAC         3.1080    7.9100   -2.0600 ha        1 SP9      0.083500
     23 HAR         3.9600    6.4540   -3.6770 ha        1 SP9      0.083500
     24 HAS         3.5740    4.1330   -3.5600 ha        1 SP9      0.083500
     25 HNAH        1.2000    2.7080    0.1520 hn        1 SP9      0.309500
     26 HAI         1.2400    0.3050   -1.3270 h1        1 SP9      0.092700
     27 HAB        -0.3930    1.4400   -2.5610 hc        1 SP9      0.041367
     28 HABA       -1.1440    1.8720   -1.2270 hc        1 SP9      0.041367
     29 HABB       -1.1740    0.3140   -1.6660 hc        1 SP9      0.041367
     30 HAJ         0.9700    0.6150    1.1290 hc        1 SP9      0.051200
     31 HAJA       -0.5870    0.7080    0.7650 hc        1 SP9      0.051200
     32 HAK        -0.0560   -1.4100   -0.5260 h1        1 SP9      0.032700
     33 HAKA        1.1440   -1.5310    0.5370 h1        1 SP9      0.032700
     34 HNAL       -1.4860   -1.2000    1.3080 hn        1 SP9      0.354800
     35 HAM        -0.1040   -3.5880    1.1060 h1        1 SP9      0.029200
     36 HAMA       -1.3450   -3.1910    0.2010 h1        1 SP9      0.029200
     37 HAN        -1.4750   -3.6410    2.9850 hc        1 SP9      0.048200
     38 HANA       -2.7300   -3.1090    2.1690 hc        1 SP9      0.048200
     39 HAO        -1.4410   -5.7250    1.8660 hc        1 SP9      0.039700
     40 HAOA       -2.5940   -5.1860    0.8630 hc        1 SP9      0.039700
     41 HAP        -4.1070   -5.0870    2.6840 h1        1 SP9      0.052200
     42 HAPA       -2.9870   -5.6430    3.6970 h1        1 SP9      0.052200
     43 HNAQ       -3.9990   -6.9880    1.5240 hn        1 SP9      0.344800
     44 HNAA       -2.9900   -7.5210    2.4810 hn        1 SP9      0.344800
@<TRIPOS>BOND
     1    1    6 3   
     2    1   20 1   
     3    2    3 3   
     4    2   21 1   
     5    3   22 1   
     6    4    5 3   
     7    4   23 1   
     8    5   24 1   
     9    6    7 1   
    10    7    8 2   
    11    7    9 1   
    12    9   10 1   
    13    9   25 1   
    14   10   11 1   
    15   10   12 1   
    16   10   26 1   
    17   11   27 1   
    18   11   28 1   
    19   11   29 1   
    20   12   13 1   
    21   12   30 1   
    22   12   31 1   
    23   13   14 1   
    24   13   32 1   
    25   13   33 1   
    26   14   15 1   
    27   14   34 1   
    28   15   16 1   
    29   15   35 1   
    30   15   36 1   
    31   16   17 1   
    32   16   37 1   
    33   16   38 1   
    34   17   18 1   
    35   17   39 1   
    36   17   40 1   
    37   18   19 1   
    38   18   41 1   
    39   18   42 1   
    40   19   43 1   
    41   19   44 1   
@<TRIPOS>SUBSTRUCTURE
     1 SP9         1 TEMP              0 ****  ****    0 ROOT
