@<TRIPOS>MOLECULE
SPA
   14    14     1     0     0
SMALL
bcc


@<TRIPOS>ATOM
      1 S1         -0.3010    1.0240   -0.7480 ss        1 SPA      0.264200
      2 C2          0.4750   -0.3600   -0.2120 cc        1 SPA     -0.119400
      3 C3          1.1930   -0.9720   -1.2270 cd        1 SPA     -0.207000
      4 C4          1.0750   -0.2540   -2.4510 cd        1 SPA     -0.190000
      5 C5          0.2720    0.8630   -2.2960 cc        1 SPA     -0.327100
      6 C6          0.3540   -0.8000    1.1850 c3        1 SPA     -0.131100
      7 C7         -0.5350    0.1570    1.9910 c         1 SPA      0.903600
      8 O1         -1.0290    1.1620    1.3680 o         1 SPA     -0.818300
      9 O2         -0.7480   -0.0690    3.2090 o         1 SPA     -0.818300
     10 H3          1.7770   -1.8850   -1.1150 ha        1 SPA      0.119000
     11 H4          1.5610   -0.5640   -3.3750 ha        1 SPA      0.106000
     12 H5          0.0430    1.5580   -3.1000 h4        1 SPA      0.128000
     13 H61         1.3620   -0.8450    1.6730 hc        1 SPA      0.044700
     14 H62        -0.0910   -1.8280    1.2370 hc        1 SPA      0.044700
@<TRIPOS>BOND
     1    1    2 1   
     2    1    5 1   
     3    2    3 2   
     4    2    6 1   
     5    3    4 1   
     6    3   10 1   
     7    4    5 2   
     8    4   11 1   
     9    5   12 1   
    10    6    7 1   
    11    6   13 1   
    12    6   14 1   
    13    7    8 1   
    14    7    9 1   
@<TRIPOS>SUBSTRUCTURE
     1 SPA         1 TEMP              0 ****  ****    0 ROOT
