@<TRIPOS>MOLECULE
SPA
   14    14     1     0     0
SMALL
bcc


@<TRIPOS>ATOM
      1 S1          0.6310   -1.1560    0.2420 ss        1 SPA      0.264200
      2 C2          2.0090   -0.2050    0.2460 cc        1 SPA     -0.119400
      3 C3          2.0570    0.6250    1.3550 cd        1 SPA     -0.207000
      4 C4          0.9170    0.4400    2.1900 cd        1 SPA     -0.190000
      5 C5          0.0680   -0.5200    1.6670 cc        1 SPA     -0.327100
      6 C6          2.9970   -0.3030   -0.8370 c3        1 SPA     -0.131100
      7 C7          2.5720   -1.3460   -1.8800 c         1 SPA      0.903600
      8 O1          1.4660   -1.9600   -1.6770 o         1 SPA     -0.818300
      9 O2          3.3040   -1.5600   -2.8790 o         1 SPA     -0.818300
     10 H3          2.8570    1.3310    1.5720 ha        1 SPA      0.119000
     11 H4          0.7580    0.9950    3.1140 ha        1 SPA      0.106000
     12 H5         -0.8640   -0.8230    2.1370 h4        1 SPA      0.128000
     13 H61         4.0000   -0.5960   -0.4300 hc        1 SPA      0.044700
     14 H62         3.1190    0.6860   -1.3510 hc        1 SPA      0.044700
@<TRIPOS>BOND
     1    1    2 1   
     2    1    5 1   
     3    2    3 2   
     4    2    6 1   
     5    3    4 1   
     6    3   10 1   
     7    4    5 2   
     8    4   11 1   
     9    5   12 1   
    10    6    7 1   
    11    6   13 1   
    12    6   14 1   
    13    7    8 1   
    14    7    9 1   
@<TRIPOS>SUBSTRUCTURE
     1 SPA         1 TEMP              0 ****  ****    0 ROOT
