@<TRIPOS>MOLECULE
SPB
   41    42     1     0     0
SMALL
bcc


@<TRIPOS>ATOM
      1 C1          1.4540    0.6830   -6.4230 ca        1 SPB     -0.126000
      2 C2          1.5370    0.4570   -7.7930 ca        1 SPB     -0.131500
      3 C3          0.5920   -0.3490   -8.4300 ca        1 SPB     -0.139000
      4 C4         -0.4370   -0.9260   -7.6880 ca        1 SPB     -0.131500
      5 C5         -0.5220   -0.7030   -6.3150 ca        1 SPB     -0.126000
      6 C6          0.4250    0.1010   -5.6630 ca        1 SPB     -0.035800
      7 C7          0.3690    0.3590   -4.2350 ce        1 SPB     -0.145200
      8 C8         -0.2670   -0.4220   -3.3440 cf        1 SPB     -0.065200
      9 C9         -0.3340   -0.1760   -1.9170 ca        1 SPB     -0.119800
     10 C10        -0.7490   -1.2100   -1.0620 ca        1 SPB     -0.085500
     11 C11        -0.8280   -1.0230    0.3080 ca        1 SPB     -0.185000
     12 C12        -0.4960    0.2310    0.8890 ca        1 SPB      0.103600
     13 C13        -0.0850    1.2710    0.0260 ca        1 SPB     -0.185000
     14 C14        -0.0080    1.0610   -1.3450 ca        1 SPB     -0.085500
     15 N15        -0.6120    0.3730    2.2730 n         1 SPB     -0.469100
     16 C16        -0.2420    1.4640    3.0570 c         1 SPB      0.669100
     17 C17        -0.4820    1.3640    4.5520 c3        1 SPB     -0.151400
     18 C18        -0.4060   -0.0280    5.1360 c3        1 SPB     -0.080400
     19 C19        -0.4470   -0.0000    6.6450 c3        1 SPB     -0.199400
     20 C20        -0.7410   -1.4030    7.2170 c         1 SPB      0.910600
     21 O21        -1.4310   -2.2030    6.5200 o         1 SPB     -0.846300
     22 O22         0.2340    2.5040    2.5600 o         1 SPB     -0.622100
     23 O23        -0.2870   -1.6690    8.3640 o         1 SPB     -0.846300
     24 HC1         2.2010    1.3190   -5.9250 ha        1 SPB      0.132500
     25 HC2         2.3490    0.9150   -8.3760 ha        1 SPB      0.126000
     26 HC3         0.6590   -0.5260   -9.5130 ha        1 SPB      0.125000
     27 HC4        -1.1860   -1.5580   -8.1850 ha        1 SPB      0.126000
     28 HC5        -1.3440   -1.1560   -5.7400 ha        1 SPB      0.132500
     29 HC7         0.9150    1.2600   -3.9050 ha        1 SPB      0.128000
     30 HC8        -0.7790   -1.3430   -3.6770 ha        1 SPB      0.119000
     31 H10C       -1.0120   -2.1920   -1.4860 ha        1 SPB      0.126500
     32 H11C       -1.1520   -1.8610    0.9460 ha        1 SPB      0.157000
     33 H13C        0.1820    2.2600    0.4340 ha        1 SPB      0.157000
     34 H14C        0.3100    1.8960   -1.9890 ha        1 SPB      0.126500
     35 H15N       -0.9280   -0.4400    2.7630 hn        1 SPB      0.338500
     36 H171       -1.4950    1.8060    4.7510 hc        1 SPB      0.070200
     37 H172        0.2800    2.0260    5.0460 hc        1 SPB      0.070200
     38 H181        0.5370   -0.5350    4.8010 hc        1 SPB      0.053200
     39 H182       -1.2720   -0.6590    4.7910 hc        1 SPB      0.053200
     40 H191       -1.2600    0.6850    6.9970 hc        1 SPB      0.026200
     41 H192        0.5210    0.3730    7.0610 hc        1 SPB      0.026200
@<TRIPOS>BOND
     1    1    2 ar  
     2    1    6 ar  
     3    1   24 1   
     4    2    3 ar  
     5    2   25 1   
     6    3    4 ar  
     7    3   26 1   
     8    4    5 ar  
     9    4   27 1   
    10    5    6 ar  
    11    5   28 1   
    12    6    7 1   
    13    7    8 2   
    14    7   29 1   
    15    8    9 1   
    16    8   30 1   
    17    9   10 ar  
    18    9   14 ar  
    19   10   11 ar  
    20   10   31 1   
    21   11   12 ar  
    22   11   32 1   
    23   12   13 ar  
    24   12   15 1   
    25   13   14 ar  
    26   13   33 1   
    27   14   34 1   
    28   15   16 1   
    29   15   35 1   
    30   16   17 1   
    31   16   22 2   
    32   17   18 1   
    33   17   36 1   
    34   17   37 1   
    35   18   19 1   
    36   18   38 1   
    37   18   39 1   
    38   19   20 1   
    39   19   40 1   
    40   19   41 1   
    41   20   21 1   
    42   20   23 1   
@<TRIPOS>SUBSTRUCTURE
     1 SPB         1 TEMP              0 ****  ****    0 ROOT
