@<TRIPOS>MOLECULE
SPB
   41    42     1     0     0
SMALL
bcc


@<TRIPOS>ATOM
      1 C1         -1.9390   -0.6720    1.7710 ca        1 SPB     -0.121500
      2 C2         -1.8690   -1.9340    2.3580 ca        1 SPB     -0.133000
      3 C3         -1.1010   -2.1350    3.5040 ca        1 SPB     -0.133000
      4 C4         -0.3980   -1.0670    4.0620 ca        1 SPB     -0.133000
      5 C5         -0.4590    0.1950    3.4750 ca        1 SPB     -0.121500
      6 C6         -1.2360    0.4080    2.3240 ca        1 SPB     -0.048800
      7 C7         -1.2440    1.7260    1.7120 ce        1 SPB     -0.135200
      8 C8         -2.2470    2.3600    1.0890 cf        1 SPB     -0.072200
      9 C9         -3.6240    1.9400    0.9040 ca        1 SPB     -0.121800
     10 C10        -4.3340    1.2400    1.8880 ca        1 SPB     -0.087500
     11 C11        -5.6640    0.8940    1.7030 ca        1 SPB     -0.185000
     12 C12        -6.3430    1.2350    0.5030 ca        1 SPB      0.099600
     13 C13        -5.6240    1.9440   -0.4860 ca        1 SPB     -0.185000
     14 C14        -4.2960    2.2910   -0.2760 ca        1 SPB     -0.087500
     15 N15        -7.6750    0.8410    0.3570 n         1 SPB     -0.470100
     16 C16        -8.5510    1.1490   -0.6800 c         1 SPB      0.668100
     17 C17        -9.9570    0.5820   -0.6010 c3        1 SPB     -0.151400
     18 C18       -10.5060    0.3830    0.7940 c3        1 SPB     -0.080400
     19 C19       -11.9720    0.0230    0.7640 c3        1 SPB     -0.199400
     20 C20       -12.4310   -0.5400    2.1250 c         1 SPB      0.910600
     21 O21       -11.5880   -1.1620    2.8340 o         1 SPB     -0.846300
     22 O22        -8.2010    1.8340   -1.6620 o         1 SPB     -0.623100
     23 O23       -13.6380   -0.3600    2.4500 o         1 SPB     -0.846300
     24 HC1        -2.5560   -0.5120    0.8730 ha        1 SPB      0.137500
     25 HC2        -2.4270   -2.7730    1.9160 ha        1 SPB      0.128500
     26 HC3        -1.0520   -3.1300    3.9690 ha        1 SPB      0.127000
     27 HC4         0.2060   -1.2200    4.9680 ha        1 SPB      0.128500
     28 HC5         0.0990    1.0340    3.9160 ha        1 SPB      0.137500
     29 HC7        -0.2690    2.2470    1.7850 ha        1 SPB      0.116000
     30 HC8        -2.0300    3.3520    0.6440 ha        1 SPB      0.117000
     31 H10C       -3.8250    0.9600    2.8250 ha        1 SPB      0.131000
     32 H11C       -6.1910    0.3510    2.5040 ha        1 SPB      0.157500
     33 H13C       -6.1130    2.2340   -1.4310 ha        1 SPB      0.157500
     34 H14C       -3.7600    2.8510   -1.0580 ha        1 SPB      0.131000
     35 H15N       -8.0610    0.3390    1.1320 hn        1 SPB      0.337500
     36 H171       -9.9450   -0.3980   -1.1490 hc        1 SPB      0.070200
     37 H172      -10.6210    1.2830   -1.1740 hc        1 SPB      0.070200
     38 H181      -10.3650    1.3150    1.3990 hc        1 SPB      0.053700
     39 H182       -9.9680   -0.4520    1.3240 hc        1 SPB      0.053700
     40 H191      -12.1620   -0.7650   -0.0070 hc        1 SPB      0.025700
     41 H192      -12.5930    0.9150    0.5050 hc        1 SPB      0.025700
@<TRIPOS>BOND
     1    1    2 ar  
     2    1    6 ar  
     3    1   24 1   
     4    2    3 ar  
     5    2   25 1   
     6    3    4 ar  
     7    3   26 1   
     8    4    5 ar  
     9    4   27 1   
    10    5    6 ar  
    11    5   28 1   
    12    6    7 1   
    13    7    8 2   
    14    7   29 1   
    15    8    9 1   
    16    8   30 1   
    17    9   10 ar  
    18    9   14 ar  
    19   10   11 ar  
    20   10   31 1   
    21   11   12 ar  
    22   11   32 1   
    23   12   13 ar  
    24   12   15 1   
    25   13   14 ar  
    26   13   33 1   
    27   14   34 1   
    28   15   16 1   
    29   15   35 1   
    30   16   17 1   
    31   16   22 2   
    32   17   18 1   
    33   17   36 1   
    34   17   37 1   
    35   18   19 1   
    36   18   38 1   
    37   18   39 1   
    38   19   20 1   
    39   19   40 1   
    40   19   41 1   
    41   20   21 1   
    42   20   23 1   
@<TRIPOS>SUBSTRUCTURE
     1 SPB         1 TEMP              0 ****  ****    0 ROOT
