@<TRIPOS>MOLECULE
SPB
   42    43     1     0     0
SMALL
bcc


@<TRIPOS>ATOM
      1 C1         -1.6040   -0.1100    0.8950 ca        1 SPB     -0.118500
      2 C2         -1.2980   -1.4290    0.5640 ca        1 SPB     -0.133000
      3 C3         -0.2990   -2.1120    1.2560 ca        1 SPB     -0.128000
      4 C4          0.4000   -1.4700    2.2790 ca        1 SPB     -0.133000
      5 C5          0.1040   -0.1490    2.6060 ca        1 SPB     -0.118500
      6 C6         -0.9070    0.5430    1.9210 ca        1 SPB     -0.060800
      7 C7         -1.1610    1.9360    2.2540 ce        1 SPB     -0.109200
      8 C8         -2.3370    2.5740    2.3370 cf        1 SPB     -0.097200
      9 C9         -3.6760    2.0340    2.1780 ca        1 SPB     -0.088800
     10 C10        -4.0240    0.7560    2.6330 ca        1 SPB     -0.091000
     11 C11        -5.3230    0.2820    2.5130 ca        1 SPB     -0.172500
     12 C12        -6.3300    1.0830    1.9190 ca        1 SPB      0.070600
     13 C13        -5.9790    2.3710    1.4610 ca        1 SPB     -0.172500
     14 C14        -4.6740    2.8300    1.5990 ca        1 SPB     -0.091000
     15 N15        -7.6280    0.5570    1.8270 n         1 SPB     -0.469100
     16 C16        -8.7360    1.1320    1.2210 c         1 SPB      0.666100
     17 C17       -10.0140    0.3070    1.2810 c3        1 SPB     -0.163400
     18 C18       -11.1160    0.9780    0.4900 c3        1 SPB     -0.070400
     19 C19       -12.3720    0.1330    0.4650 c3        1 SPB     -0.181400
     20 C20       -12.1730   -1.1270   -0.3250 c         1 SPB      0.622100
     21 O21       -12.0500   -2.2680    0.1190 o         1 SPB     -0.491000
     22 O22        -8.7130    2.2470    0.6700 o         1 SPB     -0.592100
     23 O23       -12.1140   -1.0600   -1.6890 oh        1 SPB     -0.578100
     24 HC1        -2.3980    0.4270    0.3540 ha        1 SPB      0.137500
     25 HC2        -1.8480   -1.9300   -0.2460 ha        1 SPB      0.131500
     26 HC3        -0.0600   -3.1530    0.9940 ha        1 SPB      0.131000
     27 HC4         1.1890   -2.0070    2.8260 ha        1 SPB      0.131500
     28 HC5         0.6620    0.3560    3.4080 ha        1 SPB      0.137500
     29 HC7        -0.2380    2.5150    2.4520 ha        1 SPB      0.126000
     30 HC8        -2.3240    3.6590    2.5610 ha        1 SPB      0.125000
     31 H10C       -3.2510    0.1160    3.0900 ha        1 SPB      0.141000
     32 H11C       -5.5580   -0.7270    2.8860 ha        1 SPB      0.151500
     33 H13C       -6.7310    3.0260    0.9920 ha        1 SPB      0.151500
     34 H14C       -4.4240    3.8410    1.2400 ha        1 SPB      0.141000
     35 H15N       -7.7490   -0.3520    2.2160 hn        1 SPB      0.318500
     36 H171       -9.8270   -0.7230    0.8710 hc        1 SPB      0.076200
     37 H172      -10.3260    0.1960    2.3540 hc        1 SPB      0.076200
     38 H181      -10.7600    1.1740   -0.5570 hc        1 SPB      0.068700
     39 H182      -11.3480    1.9760    0.9470 hc        1 SPB      0.068700
     40 H191      -12.6730   -0.1460    1.5100 hc        1 SPB      0.080200
     41 H192      -13.2140    0.7210    0.0100 hc        1 SPB      0.080200
     42 H152      -12.1850   -0.1390   -1.9760 ho        1 SPB      0.427000
@<TRIPOS>BOND
     1    1    2 ar  
     2    1    6 ar  
     3    1   24 1   
     4    2    3 ar  
     5    2   25 1   
     6    3    4 ar  
     7    3   26 1   
     8    4    5 ar  
     9    4   27 1   
    10    5    6 ar  
    11    5   28 1   
    12    6    7 1   
    13    7    8 2   
    14    7   29 1   
    15    8    9 1   
    16    8   30 1   
    17    9   10 ar  
    18    9   14 ar  
    19   10   11 ar  
    20   10   31 1   
    21   11   12 ar  
    22   11   32 1   
    23   12   13 ar  
    24   12   15 1   
    25   13   14 ar  
    26   13   33 1   
    27   14   34 1   
    28   15   16 1   
    29   15   35 1   
    30   16   17 1   
    31   16   22 2   
    32   17   18 1   
    33   17   36 1   
    34   17   37 1   
    35   18   19 1   
    36   18   38 1   
    37   18   39 1   
    38   19   20 1   
    39   19   40 1   
    40   19   41 1   
    41   20   21 2   
    42   20   23 1   
    43   23   42 1   
@<TRIPOS>SUBSTRUCTURE
     1 SPB         1 TEMP              0 ****  ****    0 ROOT
