@<TRIPOS>MOLECULE
SPB
   41    42     1     0     0
SMALL
bcc


@<TRIPOS>ATOM
      1 C1          0.1090    0.3880    0.9400 ca        1 SPB     -0.121000
      2 C2          0.4790   -0.9230    0.6530 ca        1 SPB     -0.133500
      3 C3         -0.3000   -1.9870    1.1080 ca        1 SPB     -0.134000
      4 C4         -1.4530   -1.7330    1.8490 ca        1 SPB     -0.133500
      5 C5         -1.8310   -0.4220    2.1320 ca        1 SPB     -0.121000
      6 C6         -1.0550    0.6550    1.6790 ca        1 SPB     -0.046800
      7 C7         -1.3870    2.0330    1.9980 ce        1 SPB     -0.136200
      8 C8         -2.5940    2.6070    2.1070 cf        1 SPB     -0.071200
      9 C9         -3.9080    2.0350    1.8750 ca        1 SPB     -0.122800
     10 C10        -4.9880    2.4600    2.6650 ca        1 SPB     -0.087500
     11 C11        -6.2660    1.9700    2.4550 ca        1 SPB     -0.185500
     12 C12        -6.5220    1.0310    1.4200 ca        1 SPB      0.100600
     13 C13        -5.4350    0.6170    0.6180 ca        1 SPB     -0.185500
     14 C14        -4.1580    1.1130    0.8520 ca        1 SPB     -0.087500
     15 N15        -7.8270    0.5590    1.2600 ns        1 SPB     -0.470100
     16 C16        -8.3200   -0.2770    0.2610 c         1 SPB      0.668100
     17 C17        -9.7930   -0.6410    0.3190 c3        1 SPB     -0.151400
     18 C18       -10.7020    0.4000    0.9300 c3        1 SPB     -0.080400
     19 C19       -12.1580    0.0390    0.7510 c3        1 SPB     -0.199400
     20 C20       -13.0550    0.8860    1.6770 c         1 SPB      0.910600
     21 O21       -12.5750    1.2890    2.7760 o         1 SPB     -0.846300
     22 O22        -7.5880   -0.7450   -0.6330 o         1 SPB     -0.622100
     23 O23       -14.2350    1.1170    1.2900 o         1 SPB     -0.846300
     24 HC1         0.7280    1.2240    0.5810 ha        1 SPB      0.138000
     25 HC2         1.3880   -1.1200    0.0660 ha        1 SPB      0.128500
     26 HC3        -0.0060   -3.0220    0.8820 ha        1 SPB      0.125000
     27 HC4        -2.0730   -2.5680    2.2080 ha        1 SPB      0.128500
     28 HC5        -2.7500   -0.2210    2.7060 ha        1 SPB      0.138000
     29 HC7        -0.4960    2.6660    2.1750 ha        1 SPB      0.116000
     30 HC8        -2.6290    3.6720    2.4100 ha        1 SPB      0.117000
     31 H10C       -4.8170    3.1930    3.4690 ha        1 SPB      0.131000
     32 H11C       -7.0880    2.3220    3.0990 ha        1 SPB      0.157000
     33 H13C       -5.5900   -0.1020   -0.2040 ha        1 SPB      0.157000
     34 H14C       -3.3240    0.7720    0.2180 ha        1 SPB      0.131000
     35 H15N       -8.4990    0.9330    1.8990 hn        1 SPB      0.337500
     36 H171      -10.1140   -0.8550   -0.7360 hc        1 SPB      0.070200
     37 H172       -9.8690   -1.6010    0.8970 hc        1 SPB      0.070200
     38 H181      -10.5170    0.4980    2.0360 hc        1 SPB      0.053200
     39 H182      -10.5090    1.4010    0.4640 hc        1 SPB      0.053200
     40 H191      -12.4750    0.1890   -0.3100 hc        1 SPB      0.025700
     41 H192      -12.3250   -1.0370    1.0120 hc        1 SPB      0.025700
@<TRIPOS>BOND
     1    1    2 ar  
     2    1    6 ar  
     3    1   24 1   
     4    2    3 ar  
     5    2   25 1   
     6    3    4 ar  
     7    3   26 1   
     8    4    5 ar  
     9    4   27 1   
    10    5    6 ar  
    11    5   28 1   
    12    6    7 1   
    13    7    8 2   
    14    7   29 1   
    15    8    9 1   
    16    8   30 1   
    17    9   10 ar  
    18    9   14 ar  
    19   10   11 ar  
    20   10   31 1   
    21   11   12 ar  
    22   11   32 1   
    23   12   13 ar  
    24   12   15 1   
    25   13   14 ar  
    26   13   33 1   
    27   14   34 1   
    28   15   16 1   
    29   15   35 1   
    30   16   17 1   
    31   16   22 2   
    32   17   18 1   
    33   17   36 1   
    34   17   37 1   
    35   18   19 1   
    36   18   38 1   
    37   18   39 1   
    38   19   20 1   
    39   19   40 1   
    40   19   41 1   
    41   20   21 1   
    42   20   23 1   
@<TRIPOS>SUBSTRUCTURE
     1 SPB         1 TEMP              0 ****  ****    0 ROOT
