@<TRIPOS>MOLECULE
SPC
   44    45     1     0     0
SMALL
bcc


@<TRIPOS>ATOM
      1 C1         -0.4920   -0.3400   -0.1070 ca        1 SPC     -0.560500
      2 C2          0.8820   -0.0800   -0.3440 ca        1 SPC      0.036000
      3 C3          1.8190   -0.1480    0.6600 ca        1 SPC     -0.212500
      4 C4          1.4050   -0.4740    1.9790 ca        1 SPC      0.259100
      5 C5          0.0430   -0.7370    2.2430 ca        1 SPC     -0.212500
      6 C6         -0.8720   -0.6670    1.2120 ca        1 SPC      0.036000
      7 S11        -1.5710   -0.1140   -1.2780 sy        1 SPC      1.568200
      8 O12        -1.1490    0.7710   -2.2670 o         1 SPC     -0.660800
      9 O13        -2.8970    0.0480   -0.7860 o         1 SPC     -0.660800
     10 O35         2.3950   -0.5080    2.9020 os        1 SPC     -0.284900
     11 C8          2.0270   -0.7290    4.2710 c3        1 SPC      0.100700
     12 N14        -1.7220   -1.6280   -2.0510 n3        1 SPC     -0.797500
     13 C15        -2.8120   -2.5420   -1.8910 c3        1 SPC      0.225500
     14 C16        -2.4060   -3.8930   -2.5420 c3        1 SPC     -0.118400
     15 C17        -1.1560   -3.5750   -3.3850 c3        1 SPC      0.129500
     16 C29        -4.1170   -2.0580   -2.5800 c         1 SPC      0.495100
     17 O31        -4.5000   -2.3300   -3.7040 o         1 SPC     -0.395100
     18 N32        -5.0360   -1.1540   -1.7740 n4        1 SPC     -0.443300
     19 O33        -6.3340   -1.2660   -2.1290 oh        1 SPC     -0.344300
     20 C18        -0.7870   -2.1010   -3.0460 c3        1 SPC      0.205800
     21 N23        -0.0250   -4.5460   -3.1170 n4        1 SPC     -0.548500
     22 O24         0.9570   -4.2870   -4.0390 os        1 SPC     -0.207100
     23 C25         2.0080   -5.2710   -4.1680 c3        1 SPC      0.067700
     24 HC21        1.1990    0.2230   -1.3600 ha        1 SPC      0.154000
     25 HC31        2.8840    0.0730    0.4740 ha        1 SPC      0.181000
     26 HC51       -0.2900   -0.9750    3.2660 ha        1 SPC      0.181000
     27 HC61       -1.9420   -0.8430    1.4300 ha        1 SPC      0.154000
     28 HC81        1.3260    0.0680    4.6180 h1        1 SPC      0.074033
     29 HC82        3.0120   -0.6560    4.8030 h1        1 SPC      0.074033
     30 HC83        1.5820   -1.7450    4.3890 h1        1 SPC      0.074033
     31 H151       -3.0460   -2.6890   -0.7940 h1        1 SPC      0.106700
     32 H161       -3.2170   -4.3010   -3.2010 hc        1 SPC      0.109200
     33 H162       -2.2180   -4.6410   -1.7290 hc        1 SPC      0.109200
     34 H171       -1.3740   -3.6620   -4.4930 hx        1 SPC      0.151700
     35 H32        -4.7070   -0.1590   -1.8440 hn        1 SPC      0.510800
     36 H33        -6.4170   -1.1210   -3.1030 ho        1 SPC      0.486000
     37 H181       -0.8620   -1.4840   -3.9900 h1        1 SPC      0.101200
     38 H182        0.2660   -2.0010   -2.6560 h1        1 SPC      0.101200
     39 H231       -0.3720   -5.5160   -3.2180 hn        1 SPC      0.460800
     40 H251        2.6300   -4.7930   -4.9800 h1        1 SPC      0.107367
     41 H252        2.5900   -5.3580   -3.2200 h1        1 SPC      0.107367
     42 H253        1.5980   -6.2520   -4.5100 h1        1 SPC      0.107367
     43 H322       -4.9970   -1.4040   -0.7630 hn        1 SPC      0.510800
     44 H232        0.3540   -4.4110   -2.1640 hn        1 SPC      0.460800
@<TRIPOS>BOND
     1    1    2 ar  
     2    1    6 ar  
     3    1    7 1   
     4    2    3 ar  
     5    2   24 1   
     6    3    4 ar  
     7    3   25 1   
     8    4    5 ar  
     9    4   10 1   
    10    5    6 ar  
    11    5   26 1   
    12    6   27 1   
    13    7    8 2   
    14    7    9 2   
    15    7   12 1   
    16   10   11 1   
    17   11   28 1   
    18   11   29 1   
    19   11   30 1   
    20   12   13 1   
    21   12   20 1   
    22   13   14 1   
    23   13   16 1   
    24   13   31 1   
    25   14   15 1   
    26   14   32 1   
    27   14   33 1   
    28   15   20 1   
    29   15   21 1   
    30   15   34 1   
    31   16   17 2   
    32   16   18 1   
    33   18   19 1   
    34   18   35 1   
    35   18   43 1   
    36   19   36 1   
    37   20   37 1   
    38   20   38 1   
    39   21   22 1   
    40   21   39 1   
    41   21   44 1   
    42   22   23 1   
    43   23   40 1   
    44   23   41 1   
    45   23   42 1   
@<TRIPOS>SUBSTRUCTURE
     1 SPC         1 TEMP              0 ****  ****    0 ROOT
