@<TRIPOS>MOLECULE
SPC
   42    39     1     0     0
SMALL
bcc


@<TRIPOS>ATOM
      1 C1          0.7360   -1.9160    0.9600 c1        1 SPC     -0.887000
      2 C2         -0.2690   -2.8650    1.0650 c1        1 SPC     -0.097500
      3 C3         -0.5420   -3.4600    2.2990 c1        1 SPC     -0.097500
      4 C4          0.2020   -3.0960    3.4380 c1        1 SPC      0.152000
      5 C5          1.2050   -2.1480    3.3340 c1        1 SPC     -0.188000
      6 C6          1.4780   -1.5510    2.0930 c1        1 SPC      0.014000
      7 S11         1.1720   -1.2380   -0.6660 s4        1 SPC      2.088800
      8 O12         0.8410   -2.1810   -1.7370 o         1 SPC     -0.550400
      9 O13         2.6110   -1.1270   -0.8240 o         1 SPC     -0.550400
     10 O35         0.0140   -3.8190    4.6940 os        1 SPC     -0.201000
     11 C8         -0.9970   -3.3050    5.4930 c3        1 SPC     -0.081000
     12 N14         0.4130    0.2580   -0.9110 n2        1 SPC     -0.841000
     13 C15        -0.0930    0.8350   -2.3110 c3        1 SPC      0.032000
     14 C16        -1.0440    1.6720   -1.9340 c3        1 SPC     -0.156000
     15 C17        -0.6730    2.1640   -0.4560 c3        1 SPC     -0.065000
     16 C29        -0.5810   -0.2760   -3.3350 c2        1 SPC      0.214000
     17 O31        -1.2390   -1.2170   -2.9430 o         1 SPC     -0.321000
     18 N32        -0.3180   -0.1240   -4.7200 n         1 SPC     -0.206000
     19 O33        -1.0740   -0.8560   -5.6690 oh        1 SPC     -0.241000
     20 C18        -0.1930    1.1450    0.1630 c3        1 SPC     -0.041000
     21 N23         0.3620    3.2680   -0.5120 n3        1 SPC     -0.146000
     22 O24        -0.2030    4.3960   -0.9730 os        1 SPC     -0.241000
     23 C25         0.8420    5.3740   -1.3010 c3        1 SPC     -0.064000
     24 HC21       -0.7740   -3.1130    0.2940 ha        1 SPC      0.151500
     25 HC31       -1.2790   -4.1560    2.3740 ha        1 SPC      0.151500
     26 HC51        1.7450   -1.8840    4.1620 ha        1 SPC      0.160000
     27 HC61        2.1750   -0.8940    2.0210 ha        1 SPC      0.162000
     28 HC81       -1.8170   -3.6600    5.2220 h1        1 SPC      0.092000
     29 HC82       -1.0190   -2.3280    5.4070 h1        1 SPC      0.092000
     30 HC83       -0.8170   -3.5630    6.4950 h1        1 SPC      0.092000
     31 H151        0.6290    1.2820   -2.8170 h1        1 SPC      0.117000
     32 H161       -1.8910    1.2220   -1.9260 hc        1 SPC      0.120000
     33 H162       -1.0780    2.4610   -2.5650 hc        1 SPC      0.120000
     34 H171       -1.4390    2.4670   -0.0230 h1        1 SPC      0.122000
     35 H32         0.3710    0.4240   -5.0010 hn        1 SPC      0.257000
     36 H33        -0.9660   -0.5030   -6.4640 ho        1 SPC      0.229000
     37 H181        0.4900    1.4290    0.7860 h1        1 SPC      0.102000
     38 H182       -0.8930    0.6750    0.6280 h1        1 SPC      0.102000
     39 H231        0.6880    3.4160    0.3240 hn        1 SPC      0.162000
     40 H251        0.4450    6.1130   -1.8840 h1        1 SPC      0.081333
     41 H252        1.1940    5.7650   -0.4800 h1        1 SPC      0.081333
     42 H253        1.5860    4.9130   -1.8000 h1        1 SPC      0.081333
@<TRIPOS>BOND
     1    1    6 1   
     2    1    7 1   
     3    2    3 1   
     4    2   24 1   
     5    3   25 1   
     6    4    5 1   
     7    4   10 1   
     8    5   26 1   
     9    6   27 1   
    10    7    8 1   
    11    7    9 1   
    12   10   11 1   
    13   11   28 1   
    14   11   29 1   
    15   11   30 1   
    16   12   13 1   
    17   12   20 1   
    18   13   14 1   
    19   13   16 1   
    20   13   31 1   
    21   14   15 1   
    22   14   32 1   
    23   14   33 1   
    24   15   20 1   
    25   15   21 1   
    26   15   34 1   
    27   16   17 1   
    28   16   18 1   
    29   18   19 1   
    30   18   35 1   
    31   19   36 1   
    32   20   37 1   
    33   20   38 1   
    34   21   22 1   
    35   21   39 1   
    36   22   23 1   
    37   23   40 1   
    38   23   41 1   
    39   23   42 1   
@<TRIPOS>SUBSTRUCTURE
     1 SPC         1 TEMP              0 ****  ****    0 ROOT
