@<TRIPOS>MOLECULE
SPC
   44    45     1     0     0
SMALL
bcc


@<TRIPOS>ATOM
      1 C1         -0.4760   -0.3370   -0.1170 ca        1 SPC     -0.560500
      2 C2          0.8990   -0.0900   -0.3540 ca        1 SPC      0.036000
      3 C3          1.8360   -0.1590    0.6510 ca        1 SPC     -0.212500
      4 C4          1.4170   -0.4710    1.9720 ca        1 SPC      0.259100
      5 C5          0.0530   -0.7220    2.2370 ca        1 SPC     -0.212500
      6 C6         -0.8610   -0.6520    1.2040 ca        1 SPC      0.036000
      7 S11        -1.5520   -0.1110   -1.2900 sy        1 SPC      1.569200
      8 O12        -1.1230    0.7640   -2.2850 o         1 SPC     -0.660800
      9 O13        -2.8780    0.0640   -0.8000 o         1 SPC     -0.660800
     10 O35         2.4060   -0.5070    2.8960 os        1 SPC     -0.284900
     11 C8          2.0360   -0.7150    4.2660 c3        1 SPC      0.100700
     12 N14        -1.7140   -1.6290   -2.0530 n3        1 SPC     -0.797500
     13 C15        -2.8110   -2.5340   -1.8870 c3        1 SPC      0.225500
     14 C16        -2.4150   -3.8930   -2.5290 c3        1 SPC     -0.118400
     15 C17        -1.1640   -3.5880   -3.3760 c3        1 SPC      0.129500
     16 C29        -4.1130   -2.0460   -2.5790 c         1 SPC      0.495100
     17 O31        -4.4970   -2.3230   -3.7010 o         1 SPC     -0.395100
     18 N32        -5.0250   -1.1290   -1.7800 n4        1 SPC     -0.443300
     19 O33        -6.3240   -1.2350   -2.1340 oh        1 SPC     -0.344300
     20 C18        -0.7830   -2.1160   -3.0440 c3        1 SPC      0.205800
     21 N23        -0.0400   -4.5670   -3.1050 n4        1 SPC     -0.548500
     22 O24         0.9410   -4.3210   -4.0310 os        1 SPC     -0.207100
     23 C25         1.9840   -5.3140   -4.1590 c3        1 SPC      0.067700
     24 HC21        1.2200    0.2030   -1.3720 ha        1 SPC      0.154000
     25 HC31        2.9020    0.0520    0.4650 ha        1 SPC      0.181000
     26 HC51       -0.2830   -0.9500    3.2610 ha        1 SPC      0.181000
     27 HC61       -1.9320   -0.8180    1.4230 ha        1 SPC      0.154000
     28 HC81        1.3400    0.0890    4.6070 h1        1 SPC      0.074033
     29 HC82        3.0210   -0.6460    4.7990 h1        1 SPC      0.074033
     30 HC83        1.5820   -1.7270    4.3920 h1        1 SPC      0.074033
     31 H151       -3.0460   -2.6720   -0.7890 h1        1 SPC      0.106700
     32 H161       -3.2290   -4.3000   -3.1830 hc        1 SPC      0.109200
     33 H162       -2.2310   -4.6350   -1.7100 hc        1 SPC      0.109200
     34 H171       -1.3850   -3.6790   -4.4820 hx        1 SPC      0.151700
     35 H32        -4.6890   -0.1370   -1.8570 hn        1 SPC      0.510800
     36 H33        -6.4060   -1.0960   -3.1090 ho        1 SPC      0.486000
     37 H181        0.2710   -2.0230   -2.6550 h1        1 SPC      0.101200
     38 H182       -0.8520   -1.5040   -3.9920 h1        1 SPC      0.101200
     39 H231       -0.3960   -5.5350   -3.1990 hn        1 SPC      0.460800
     40 H251        2.6070   -4.8470   -4.9740 h1        1 SPC      0.107367
     41 H252        2.5680   -5.4020   -3.2110 h1        1 SPC      0.107367
     42 H253        1.5640   -6.2940   -4.4930 h1        1 SPC      0.107367
     43 H322       -4.9870   -1.3730   -0.7670 hn        1 SPC      0.510800
     44 H232        0.3430   -4.4290   -2.1540 hn        1 SPC      0.460800
@<TRIPOS>BOND
     1    1    2 ar  
     2    1    6 ar  
     3    1    7 1   
     4    2    3 ar  
     5    2   24 1   
     6    3    4 ar  
     7    3   25 1   
     8    4    5 ar  
     9    4   10 1   
    10    5    6 ar  
    11    5   26 1   
    12    6   27 1   
    13    7    8 2   
    14    7    9 2   
    15    7   12 1   
    16   10   11 1   
    17   11   28 1   
    18   11   29 1   
    19   11   30 1   
    20   12   13 1   
    21   12   20 1   
    22   13   14 1   
    23   13   16 1   
    24   13   31 1   
    25   14   15 1   
    26   14   32 1   
    27   14   33 1   
    28   15   20 1   
    29   15   21 1   
    30   15   34 1   
    31   16   17 2   
    32   16   18 1   
    33   18   19 1   
    34   18   35 1   
    35   18   43 1   
    36   19   36 1   
    37   20   37 1   
    38   20   38 1   
    39   21   22 1   
    40   21   39 1   
    41   21   44 1   
    42   22   23 1   
    43   23   40 1   
    44   23   41 1   
    45   23   42 1   
@<TRIPOS>SUBSTRUCTURE
     1 SPC         1 TEMP              0 ****  ****    0 ROOT
