@<TRIPOS>MOLECULE
SPC
   42    43     1     0     0
SMALL
bcc


@<TRIPOS>ATOM
      1 C1         -0.2030   -0.6570   -1.7060 ca        1 SPC     -0.430500
      2 C2          1.0240   -1.2020   -2.1170 ca        1 SPC      0.015500
      3 C3          1.7820   -0.6090   -3.1130 ca        1 SPC     -0.211000
      4 C4          1.3030    0.5660   -3.7290 ca        1 SPC      0.189100
      5 C5          0.0750    1.1230   -3.3430 ca        1 SPC     -0.211000
      6 C6         -0.6610    0.5040   -2.3390 ca        1 SPC      0.015500
      7 S11        -1.1310   -1.4150   -0.5210 sy        1 SPC      1.531200
      8 O12        -0.8120   -2.7840   -0.5300 o         1 SPC     -0.644300
      9 O13        -2.4780   -1.0430   -0.7140 o         1 SPC     -0.644300
     10 O35         2.1220    1.0860   -4.7010 os        1 SPC     -0.318900
     11 C8          1.6530    2.2510   -5.3750 c3        1 SPC      0.109700
     12 N14        -0.5770   -0.7230    0.8540 n3        1 SPC     -0.806500
     13 C15        -1.2400    0.3250    1.5970 c3        1 SPC      0.183500
     14 C16        -0.1830    0.9950    2.5080 c3        1 SPC     -0.112400
     15 C17         1.1170    0.1780    2.3380 c3        1 SPC      0.126500
     16 C29        -2.4010   -0.1670    2.4840 c         1 SPC      0.570100
     17 O31        -2.6290   -1.3580    2.7330 o         1 SPC     -0.533100
     18 N32        -3.3050    0.8550    2.9210 n         1 SPC     -0.344400
     19 O33        -4.0680    0.5080    3.9610 oh        1 SPC     -0.440100
     20 C18         0.7000   -1.0350    1.4540 c3        1 SPC      0.229800
     21 N23         2.2650    0.8920    1.7540 n3        1 SPC     -0.558700
     22 O24         2.5940    1.9590    2.5160 os        1 SPC     -0.264100
     23 C25         3.8020    1.7820    3.2780 c3        1 SPC      0.126700
     24 HC21        1.3800   -2.1370   -1.6450 ha        1 SPC      0.154500
     25 HC31        2.7410   -1.0370   -3.4370 ha        1 SPC      0.153000
     26 HC51       -0.3130    2.0310   -3.8260 ha        1 SPC      0.153000
     27 HC61       -1.6390    0.9260   -2.0450 ha        1 SPC      0.154500
     28 HC81        2.4670    2.4660   -6.1140 h1        1 SPC      0.051367
     29 HC82        0.6890    2.0410   -5.8980 h1        1 SPC      0.051367
     30 HC83        1.5370    3.0990   -4.6570 h1        1 SPC      0.051367
     31 H151       -1.6660    1.0710    0.8600 h1        1 SPC      0.079700
     32 H161       -0.5020    0.9750    3.5780 hc        1 SPC      0.066200
     33 H162       -0.0440    2.0640    2.2110 hc        1 SPC      0.066200
     34 H171        1.4570   -0.1950    3.3440 h1        1 SPC      0.082700
     35 H32        -2.8230    1.7120    3.1710 hn        1 SPC      0.290500
     36 H33        -4.7340   -0.1140    3.6040 ho        1 SPC      0.440000
     37 H181        1.4520   -1.2600    0.6470 h1        1 SPC      0.066200
     38 H182        0.6060   -1.9430    2.1140 h1        1 SPC      0.066200
     39 H231        1.9810    1.2780    0.8550 hn        1 SPC      0.363800
     40 H251        3.9110    2.7690    3.7920 h1        1 SPC      0.043033
     41 H252        3.6840    0.9570    4.0190 h1        1 SPC      0.043033
     42 H253        4.6720    1.5830    2.6080 h1        1 SPC      0.043033
@<TRIPOS>BOND
     1    1    2 ar  
     2    1    6 ar  
     3    1    7 1   
     4    2    3 ar  
     5    2   24 1   
     6    3    4 ar  
     7    3   25 1   
     8    4    5 ar  
     9    4   10 1   
    10    5    6 ar  
    11    5   26 1   
    12    6   27 1   
    13    7    8 2   
    14    7    9 2   
    15    7   12 1   
    16   10   11 1   
    17   11   28 1   
    18   11   29 1   
    19   11   30 1   
    20   12   13 1   
    21   12   20 1   
    22   13   14 1   
    23   13   16 1   
    24   13   31 1   
    25   14   15 1   
    26   14   32 1   
    27   14   33 1   
    28   15   20 1   
    29   15   21 1   
    30   15   34 1   
    31   16   17 2   
    32   16   18 1   
    33   18   19 1   
    34   18   35 1   
    35   19   36 1   
    36   20   37 1   
    37   20   38 1   
    38   21   22 1   
    39   21   39 1   
    40   22   23 1   
    41   23   40 1   
    42   23   41 1   
    43   23   42 1   
@<TRIPOS>SUBSTRUCTURE
     1 SPC         1 TEMP              0 ****  ****    0 ROOT
