@<TRIPOS>MOLECULE
SPC
   44    45     1     0     0
SMALL
bcc


@<TRIPOS>ATOM
      1 C1         -0.4770   -0.3450   -0.1060 ca        1 SPC     -0.560500
      2 C2          0.9000   -0.0990   -0.3360 ca        1 SPC      0.036000
      3 C3          1.8320   -0.1760    0.6730 ca        1 SPC     -0.212500
      4 C4          1.4070   -0.4970    1.9900 ca        1 SPC      0.259100
      5 C5          0.0420   -0.7470    2.2480 ca        1 SPC     -0.212500
      6 C6         -0.8680   -0.6680    1.2120 ca        1 SPC      0.036000
      7 S11        -1.5480   -0.1080   -1.2820 sy        1 SPC      1.568200
      8 O12        -1.1120    0.7720   -2.2690 o         1 SPC     -0.660800
      9 O13        -2.8750    0.0670   -0.7960 o         1 SPC     -0.660800
     10 O35         2.3920   -0.5400    2.9180 os        1 SPC     -0.284900
     11 C8          2.0150   -0.7570    4.2850 c3        1 SPC      0.100700
     12 N14        -1.7100   -1.6210   -2.0560 n3        1 SPC     -0.797500
     13 C15        -2.8100   -2.5240   -1.9010 c3        1 SPC      0.225500
     14 C16        -2.4150   -3.8790   -2.5500 c3        1 SPC     -0.118400
     15 C17        -1.1570   -3.5740   -3.3870 c3        1 SPC      0.129500
     16 C29        -4.1070   -2.0270   -2.5960 c         1 SPC      0.495100
     17 O31        -4.4860   -2.2950   -3.7230 o         1 SPC     -0.395100
     18 N32        -5.0210   -1.1150   -1.7950 ny        1 SPC     -0.443300
     19 O33        -6.3180   -1.2140   -2.1580 oh        1 SPC     -0.344300
     20 C18        -0.7750   -2.1040   -3.0450 c3        1 SPC      0.205800
     21 N23        -0.0380   -4.5570   -3.1140 ny        1 SPC     -0.548500
     22 O24         0.9510   -4.3070   -4.0310 os        1 SPC     -0.207100
     23 C25         1.9930   -5.3020   -4.1560 c3        1 SPC      0.067700
     24 HC21        1.2250    0.2000   -1.3500 ha        1 SPC      0.154000
     25 HC31        2.8990    0.0340    0.4930 ha        1 SPC      0.181000
     26 HC51       -0.2990   -0.9800    3.2690 ha        1 SPC      0.181000
     27 HC61       -1.9400   -0.8330    1.4240 ha        1 SPC      0.154000
     28 HC81        1.5590   -1.7690    4.4020 h1        1 SPC      0.074033
     29 HC82        2.9980   -0.6940    4.8230 h1        1 SPC      0.074033
     30 HC83        1.3200    0.0460    4.6280 h1        1 SPC      0.074033
     31 H151       -3.0510   -2.6690   -0.8050 h1        1 SPC      0.105700
     32 H161       -2.2380   -4.6290   -1.7360 hc        1 SPC      0.109200
     33 H162       -3.2260   -4.2790   -3.2130 hc        1 SPC      0.109200
     34 H171       -1.3710   -3.6580   -4.4960 hx        1 SPC      0.151700
     35 H32        -4.9900   -1.3660   -0.7840 hn        1 SPC      0.510800
     36 H33        -6.3940   -1.0660   -3.1320 ho        1 SPC      0.486000
     37 H181       -0.8390   -1.4860   -3.9900 h1        1 SPC      0.101200
     38 H182        0.2770   -2.0150   -2.6500 h1        1 SPC      0.101200
     39 H231       -0.3940   -5.5230   -3.2160 hn        1 SPC      0.460800
     40 H251        1.5740   -6.2790   -4.4990 h1        1 SPC      0.107367
     41 H252        2.6230   -4.8310   -4.9640 h1        1 SPC      0.107367
     42 H253        2.5700   -5.3960   -3.2040 h1        1 SPC      0.107367
     43 H322       -4.6820   -0.1230   -1.8620 hn        1 SPC      0.510800
     44 H232        0.3380   -4.4250   -2.1590 hn        1 SPC      0.460800
@<TRIPOS>BOND
     1    1    2 ar  
     2    1    6 ar  
     3    1    7 1   
     4    2    3 ar  
     5    2   24 1   
     6    3    4 ar  
     7    3   25 1   
     8    4    5 ar  
     9    4   10 1   
    10    5    6 ar  
    11    5   26 1   
    12    6   27 1   
    13    7    8 2   
    14    7    9 2   
    15    7   12 1   
    16   10   11 1   
    17   11   28 1   
    18   11   29 1   
    19   11   30 1   
    20   12   13 1   
    21   12   20 1   
    22   13   14 1   
    23   13   16 1   
    24   13   31 1   
    25   14   15 1   
    26   14   32 1   
    27   14   33 1   
    28   15   20 1   
    29   15   21 1   
    30   15   34 1   
    31   16   17 2   
    32   16   18 1   
    33   18   19 1   
    34   18   35 1   
    35   18   43 1   
    36   19   36 1   
    37   20   37 1   
    38   20   38 1   
    39   21   22 1   
    40   21   39 1   
    41   21   44 1   
    42   22   23 1   
    43   23   40 1   
    44   23   41 1   
    45   23   42 1   
@<TRIPOS>SUBSTRUCTURE
     1 SPC         1 TEMP              0 ****  ****    0 ROOT
