@<TRIPOS>MOLECULE
SPD
   29    28     1     0     0
SMALL
bcc


@<TRIPOS>ATOM
      1 N1         -0.2840    0.0850    5.5650 n3        1 SPD     -0.916800
      2 C2          0.4830    0.0500    4.3420 c3        1 SPD      0.159800
      3 C3         -0.3840    0.0230    3.0840 c3        1 SPD     -0.082400
      4 C4          0.4910   -0.0580    1.8530 c3        1 SPD     -0.083400
      5 C5         -0.3790   -0.0960    0.5970 c3        1 SPD      0.164800
      6 N6          0.3920   -0.2170   -0.6240 n3        1 SPD     -0.824200
      7 C7         -0.4170   -0.0870   -1.8190 c3        1 SPD      0.164800
      8 C8          0.4150   -0.0080   -3.0980 c3        1 SPD     -0.087400
      9 C9         -0.5240    0.0680   -4.3010 c3        1 SPD      0.159800
     10 N10         0.1720    0.1040   -5.5650 n3        1 SPD     -0.915800
     11 HN11       -0.9580    0.8250    5.5470 hn        1 SPD      0.348300
     12 HN12        0.3210    0.2090    6.3510 hn        1 SPD      0.348300
     13 H21         1.1970    0.9240    4.2550 h1        1 SPD      0.024700
     14 H22         1.1120   -0.8860    4.3690 h1        1 SPD      0.024700
     15 H31        -1.0750   -0.8590    3.1180 hc        1 SPD      0.047700
     16 H32        -1.0210    0.9460    3.0380 hc        1 SPD      0.047700
     17 H41         1.1790    0.8280    1.8170 hc        1 SPD      0.047200
     18 H42         1.1310   -0.9770    1.9010 hc        1 SPD      0.047200
     19 H51        -1.0610   -0.9920    0.6520 h1        1 SPD      0.028700
     20 H52        -1.0400    0.8230    0.5940 h1        1 SPD      0.028700
     21 HN6         1.1490    0.4420   -0.6330 hn        1 SPD      0.354800
     22 H71        -1.0840   -0.9950   -1.8700 h1        1 SPD      0.028200
     23 H72        -1.0940    0.8190   -1.7770 h1        1 SPD      0.028200
     24 H81         1.0780    0.8950   -3.0710 hc        1 SPD      0.053200
     25 H82         1.0750   -0.9100   -3.1840 hc        1 SPD      0.053200
     26 H91        -1.1810   -0.8490   -4.3080 h1        1 SPD      0.024700
     27 H92        -1.2060    0.9600   -4.1570 h1        1 SPD      0.024700
     28 H101       -0.4720    0.2700   -6.3120 hn        1 SPD      0.348800
     29 H102        0.8750    0.8160   -5.5710 hn        1 SPD      0.348800
@<TRIPOS>BOND
     1    1    2 1   
     2    1   11 1   
     3    1   12 1   
     4    2    3 1   
     5    2   13 1   
     6    2   14 1   
     7    3    4 1   
     8    3   15 1   
     9    3   16 1   
    10    4    5 1   
    11    4   17 1   
    12    4   18 1   
    13    5    6 1   
    14    5   19 1   
    15    5   20 1   
    16    6    7 1   
    17    6   21 1   
    18    7    8 1   
    19    7   22 1   
    20    7   23 1   
    21    8    9 1   
    22    8   24 1   
    23    8   25 1   
    24    9   10 1   
    25    9   26 1   
    26    9   27 1   
    27   10   28 1   
    28   10   29 1   
@<TRIPOS>SUBSTRUCTURE
     1 SPD         1 TEMP              0 ****  ****    0 ROOT
