@<TRIPOS>MOLECULE
SPD
   32    31     1     0     0
SMALL
bcc


@<TRIPOS>ATOM
      1 N1         -0.1080    0.0000   -0.0600 n4        1 SPD     -0.837600
      2 C2          1.3810    0.0000    0.0110 c3        1 SPD      0.101800
      3 C3          1.9250   -0.0000    1.4390 c3        1 SPD     -0.106400
      4 C4          3.4460    0.0000    1.4000 c3        1 SPD     -0.107400
      5 C5          3.9960   -0.0000    2.8270 c3        1 SPD      0.107800
      6 N6          5.4970    0.0000    2.8690 n4        1 SPD     -0.764000
      7 C7          6.0120   -0.0000    4.2740 c3        1 SPD      0.107800
      8 C8          7.5420    0.0000    4.3540 c3        1 SPD     -0.138400
      9 C9          7.9510   -0.0000    5.8290 c3        1 SPD      0.104800
     10 N10         9.4260    0.0000    6.0390 n4        1 SPD     -0.837600
     11 HN11       -0.4050    0.0000   -1.0470 hn        1 SPD      0.478800
     12 HN12       -0.4950   -0.8340    0.3980 hn        1 SPD      0.478800
     13 H21         1.7460   -0.9170   -0.5410 hx        1 SPD      0.124700
     14 H22         1.7460    0.9170   -0.5410 hx        1 SPD      0.124700
     15 H31         1.5620   -0.9080    1.9930 hc        1 SPD      0.086700
     16 H32         1.5610    0.9080    1.9930 hc        1 SPD      0.086700
     17 H41         3.8050    0.9080    0.8440 hc        1 SPD      0.087700
     18 H42         3.8050   -0.9080    0.8440 hc        1 SPD      0.087700
     19 H51         3.6370    0.9180    3.3790 hx        1 SPD      0.121700
     20 H52         3.6370   -0.9180    3.3790 hx        1 SPD      0.121700
     21 HN6         5.8490    0.8320    2.3740 hn        1 SPD      0.464800
     22 H71         5.6010   -0.9180    4.7910 hx        1 SPD      0.126700
     23 H72         5.6000    0.9170    4.7910 hx        1 SPD      0.126700
     24 H81         7.9570    0.9100    3.8390 hc        1 SPD      0.097700
     25 H82         7.9570   -0.9090    3.8380 hc        1 SPD      0.097700
     26 H91         7.5350    0.9170    6.3450 hx        1 SPD      0.131700
     27 H92         7.5350   -0.9180    6.3440 hx        1 SPD      0.131700
     28 H101        9.8580   -0.8350    5.6230 hn        1 SPD      0.483800
     29 H102        9.8580    0.8360    5.6230 hn        1 SPD      0.483800
     30 H13        -0.4960    0.8340    0.3980 hn        1 SPD      0.478800
     31 H62         5.8490   -0.8310    2.3740 hn        1 SPD      0.464800
     32 H103        9.6260   -0.0000    7.0530 hn        1 SPD      0.483800
@<TRIPOS>BOND
     1    1    2 1   
     2    1   11 1   
     3    1   12 1   
     4    1   30 1   
     5    2    3 1   
     6    2   13 1   
     7    2   14 1   
     8    3    4 1   
     9    3   15 1   
    10    3   16 1   
    11    4    5 1   
    12    4   17 1   
    13    4   18 1   
    14    5    6 1   
    15    5   19 1   
    16    5   20 1   
    17    6    7 1   
    18    6   21 1   
    19    6   31 1   
    20    7    8 1   
    21    7   22 1   
    22    7   23 1   
    23    8    9 1   
    24    8   24 1   
    25    8   25 1   
    26    9   10 1   
    27    9   26 1   
    28    9   27 1   
    29   10   28 1   
    30   10   29 1   
    31   10   32 1   
@<TRIPOS>SUBSTRUCTURE
     1 SPD         1 TEMP              0 ****  ****    0 ROOT
