@<TRIPOS>MOLECULE
SPD
   32    31     1     0     0
SMALL
bcc


@<TRIPOS>ATOM
      1 N1         -0.1070    0.0010   -0.0610 nz        1 SPD     -0.837600
      2 C2          1.3810    0.0010    0.0100 c3        1 SPD      0.101800
      3 C3          1.9250    0.0000    1.4390 c3        1 SPD     -0.106400
      4 C4          3.4460   -0.0010    1.4000 c3        1 SPD     -0.107400
      5 C5          3.9960    0.0000    2.8270 c3        1 SPD      0.106800
      6 N6          5.4970   -0.0020    2.8690 ny        1 SPD     -0.764000
      7 C7          6.0120    0.0010    4.2750 c3        1 SPD      0.107800
      8 C8          7.5410   -0.0020    4.3540 c3        1 SPD     -0.138400
      9 C9          7.9510    0.0020    5.8290 c3        1 SPD      0.104800
     10 N10         9.4250   -0.0010    6.0400 nz        1 SPD     -0.837600
     11 HN11       -0.4050    0.0020   -1.0480 hn        1 SPD      0.478800
     12 HN12       -0.4950   -0.8340    0.3960 hn        1 SPD      0.478800
     13 H21         1.7470   -0.9160   -0.5420 hx        1 SPD      0.124700
     14 H22         1.7470    0.9190   -0.5400 hx        1 SPD      0.124700
     15 H31         1.5610   -0.9080    1.9920 hc        1 SPD      0.086700
     16 H32         1.5620    0.9080    1.9930 hc        1 SPD      0.086700
     17 H41         3.8060    0.9070    0.8430 hc        1 SPD      0.087700
     18 H42         3.8050   -0.9100    0.8440 hc        1 SPD      0.087700
     19 H51         3.6380    0.9190    3.3770 hx        1 SPD      0.121700
     20 H52         3.6360   -0.9170    3.3800 hx        1 SPD      0.121700
     21 HN6         5.8500    0.8280    2.3720 hn        1 SPD      0.464800
     22 H71         5.5980   -0.9140    4.7940 hx        1 SPD      0.126700
     23 H72         5.6020    0.9200    4.7890 hx        1 SPD      0.126700
     24 H81         7.9590    0.9050    3.8360 hc        1 SPD      0.097700
     25 H82         7.9550   -0.9140    3.8420 hc        1 SPD      0.097700
     26 H91         7.5370    0.9220    6.3420 hx        1 SPD      0.131700
     27 H92         7.5320   -0.9130    6.3480 hx        1 SPD      0.131700
     28 H101        9.8550   -0.8390    5.6270 hn        1 SPD      0.483800
     29 H102        9.8600    0.8320    5.6210 hn        1 SPD      0.483800
     30 H13        -0.4950    0.8350    0.3980 hn        1 SPD      0.478800
     31 H62         5.8480   -0.8350    2.3770 hn        1 SPD      0.464800
     32 H103        9.6250    0.0020    7.0530 hn        1 SPD      0.483800
@<TRIPOS>BOND
     1    1    2 1   
     2    1   11 1   
     3    1   12 1   
     4    1   30 1   
     5    2    3 1   
     6    2   13 1   
     7    2   14 1   
     8    3    4 1   
     9    3   15 1   
    10    3   16 1   
    11    4    5 1   
    12    4   17 1   
    13    4   18 1   
    14    5    6 1   
    15    5   19 1   
    16    5   20 1   
    17    6    7 1   
    18    6   21 1   
    19    6   31 1   
    20    7    8 1   
    21    7   22 1   
    22    7   23 1   
    23    8    9 1   
    24    8   24 1   
    25    8   25 1   
    26    9   10 1   
    27    9   26 1   
    28    9   27 1   
    29   10   28 1   
    30   10   29 1   
    31   10   32 1   
@<TRIPOS>SUBSTRUCTURE
     1 SPD         1 TEMP              0 ****  ****    0 ROOT
