@<TRIPOS>MOLECULE
SPE
   37    36     1     0     0
SMALL
bcc


@<TRIPOS>ATOM
      1 N1         -0.1310   -0.4090    7.3750 n3        1 SPE     -0.916300
      2 C2          0.5510   -0.1930    6.1210 c3        1 SPE      0.160300
      3 C3         -0.4000   -0.0670    4.9320 c3        1 SPE     -0.087900
      4 C4          0.4180    0.0780    3.6510 c3        1 SPE      0.165300
      5 N5         -0.4040    0.2790    2.4740 n3        1 SPE     -0.823700
      6 C6          0.3500    0.2140    1.2390 c3        1 SPE      0.165800
      7 C7         -0.5370    0.2350   -0.0040 c3        1 SPE     -0.088400
      8 C8          0.3490    0.2120   -1.2480 c3        1 SPE      0.165800
      9 N9         -0.4070    0.2830   -2.4820 n3        1 SPE     -0.823700
     10 C10         0.4110    0.0750   -3.6590 c3        1 SPE      0.165300
     11 C11        -0.4080   -0.0510   -4.9420 c3        1 SPE     -0.087900
     12 C12         0.5410   -0.2120   -6.1280 c3        1 SPE      0.160300
     13 N13        -0.1420   -0.2940   -7.3970 n3        1 SPE     -0.916300
     14 HN11       -0.8620    0.2610    7.5090 hn        1 SPE      0.349550
     15 HN12        0.5150   -0.3490    8.1360 hn        1 SPE      0.349550
     16 H21         1.2100    0.7270    6.1400 h1        1 SPE      0.024950
     17 H22         1.2300   -1.0790    5.9550 h1        1 SPE      0.024950
     18 H31        -1.0560   -0.9740    4.8710 hc        1 SPE      0.053700
     19 H32        -1.0660    0.8250    5.0650 hc        1 SPE      0.053700
     20 H41         1.0920    0.9780    3.7420 h1        1 SPE      0.028450
     21 H42         1.0890   -0.8280    3.5520 h1        1 SPE      0.028450
     22 HN5        -1.1670   -0.3720    2.4590 hn        1 SPE      0.356300
     23 H61         1.0330    1.1110    1.2180 h1        1 SPE      0.028700
     24 H62         1.0100   -0.7040    1.1920 h1        1 SPE      0.028700
     25 H71        -1.2220   -0.6530   -0.0030 hc        1 SPE      0.054200
     26 H72        -1.1770    1.1560   -0.0040 hc        1 SPE      0.054200
     27 H81         1.0350    1.1070   -1.2260 h1        1 SPE      0.028700
     28 H82         1.0050   -0.7090   -1.2020 h1        1 SPE      0.028700
     29 HN9        -1.1770   -0.3600   -2.4650 hn        1 SPE      0.356300
     30 H101        1.0990    0.9640   -3.7480 h1        1 SPE      0.028450
     31 H102        1.0690   -0.8420   -3.5640 h1        1 SPE      0.028450
     32 H111       -1.0940   -0.9360   -4.8760 hc        1 SPE      0.053700
     33 H112       -1.0450    0.8610   -5.0820 hc        1 SPE      0.053700
     34 H121        1.2220    0.6860   -6.1730 h1        1 SPE      0.024950
     35 H122        1.1970   -1.1130   -5.9320 h1        1 SPE      0.024950
     36 HN31        0.5050   -0.5170   -8.1260 hn        1 SPE      0.349550
     37 HN32       -0.8650   -0.9850   -7.3750 hn        1 SPE      0.349550
@<TRIPOS>BOND
     1    1    2 1   
     2    1   14 1   
     3    1   15 1   
     4    2    3 1   
     5    2   16 1   
     6    2   17 1   
     7    3    4 1   
     8    3   18 1   
     9    3   19 1   
    10    4    5 1   
    11    4   20 1   
    12    4   21 1   
    13    5    6 1   
    14    5   22 1   
    15    6    7 1   
    16    6   23 1   
    17    6   24 1   
    18    7    8 1   
    19    7   25 1   
    20    7   26 1   
    21    8    9 1   
    22    8   27 1   
    23    8   28 1   
    24    9   10 1   
    25    9   29 1   
    26   10   11 1   
    27   10   30 1   
    28   10   31 1   
    29   11   12 1   
    30   11   32 1   
    31   11   33 1   
    32   12   13 1   
    33   12   34 1   
    34   12   35 1   
    35   13   36 1   
    36   13   37 1   
@<TRIPOS>SUBSTRUCTURE
     1 SPE         1 TEMP              0 ****  ****    0 ROOT
