@<TRIPOS>MOLECULE
SPE
   41    40     1     0     0
SMALL
bcc


@<TRIPOS>ATOM
      1 N1         -0.0700    0.0070   -0.3020 n4        1 SPE     -0.837600
      2 C2          1.4060   -0.0030   -0.1020 c3        1 SPE      0.105800
      3 C3          1.8320    0.0090    1.3700 c3        1 SPE     -0.138400
      4 C4          3.3630   -0.0040    1.4360 c3        1 SPE      0.110800
      5 N5          3.8890    0.0070    2.8440 n4        1 SPE     -0.765000
      6 C6          5.3890   -0.0060    2.8770 c3        1 SPE      0.110800
      7 C7          5.9650    0.0050    4.2980 c3        1 SPE     -0.137400
      8 C8          7.4970   -0.0090    4.2160 c3        1 SPE      0.110800
      9 N9          8.1630    0.0010    5.5600 n4        1 SPE     -0.765000
     10 C10         9.6610   -0.0130    5.4400 c3        1 SPE      0.110800
     11 C11        10.3710   -0.0030    6.7980 c3        1 SPE     -0.138400
     12 C12        11.8850   -0.0170    6.5590 c3        1 SPE      0.105800
     13 N13        12.6920   -0.0100    7.8100 n4        1 SPE     -0.837600
     14 HN11       -0.2760   -0.0020   -1.3150 hn        1 SPE      0.487133
     15 HN12       -0.4940    0.8510    0.1060 hn        1 SPE      0.487133
     16 H21         1.8090   -0.9310   -0.6110 hx        1 SPE      0.132700
     17 H22         1.8250    0.9050   -0.6320 hx        1 SPE      0.132700
     18 H31         1.4120   -0.8910    1.8990 hc        1 SPE      0.099700
     19 H32         1.4280    0.9280    1.8780 hc        1 SPE      0.099700
     20 H41         3.7610   -0.9320    0.9290 hx        1 SPE      0.129700
     21 H42         3.7780    0.9050    0.9070 hx        1 SPE      0.129700
     22 HN5         3.5430    0.8480    3.3270 hn        1 SPE      0.468800
     23 H61         5.7340   -0.9340    2.3300 hx        1 SPE      0.129700
     24 H62         5.7510    0.9020    2.3080 hx        1 SPE      0.129700
     25 H71         5.6180    0.9250    4.8460 hc        1 SPE      0.099700
     26 H72         5.6020   -0.8950    4.8670 hc        1 SPE      0.099700
     27 H81         7.8440   -0.9360    3.6700 hx        1 SPE      0.129700
     28 H82         7.8600    0.9000    3.6490 hx        1 SPE      0.129700
     29 HN9         7.8740    0.8420    6.0810 hn        1 SPE      0.468800
     30 H101        9.9500   -0.9400    4.8620 hx        1 SPE      0.129700
     31 H102        9.9650    0.8970    4.8410 hx        1 SPE      0.129700
     32 H111       10.0690   -0.9030    7.4010 hc        1 SPE      0.099700
     33 H112       10.0840    0.9160    7.3800 hc        1 SPE      0.099700
     34 H121       12.1880    0.8910    5.9550 hx        1 SPE      0.132700
     35 H122       12.1730   -0.9440    5.9760 hx        1 SPE      0.132700
     36 HN31       12.5050    0.8340    8.3680 hn        1 SPE      0.487133
     37 HN32       12.4920   -0.8380    8.3870 hn        1 SPE      0.487133
     38 H13        -0.5090   -0.8200    0.1240 hn        1 SPE      0.487133
     39 H52         3.5280   -0.8160    3.3460 hn        1 SPE      0.468800
     40 H92         7.8600   -0.8230    6.1000 hn        1 SPE      0.468800
     41 H133       13.6970   -0.0200    7.5660 hn        1 SPE      0.487133
@<TRIPOS>BOND
     1    1    2 1   
     2    1   14 1   
     3    1   15 1   
     4    1   38 1   
     5    2    3 1   
     6    2   16 1   
     7    2   17 1   
     8    3    4 1   
     9    3   18 1   
    10    3   19 1   
    11    4    5 1   
    12    4   20 1   
    13    4   21 1   
    14    5    6 1   
    15    5   22 1   
    16    5   39 1   
    17    6    7 1   
    18    6   23 1   
    19    6   24 1   
    20    7    8 1   
    21    7   25 1   
    22    7   26 1   
    23    8    9 1   
    24    8   27 1   
    25    8   28 1   
    26    9   10 1   
    27    9   29 1   
    28    9   40 1   
    29   10   11 1   
    30   10   30 1   
    31   10   31 1   
    32   11   12 1   
    33   11   32 1   
    34   11   33 1   
    35   12   13 1   
    36   12   34 1   
    37   12   35 1   
    38   13   36 1   
    39   13   37 1   
    40   13   41 1   
@<TRIPOS>SUBSTRUCTURE
     1 SPE         1 TEMP              0 ****  ****    0 ROOT
