@<TRIPOS>MOLECULE
SPE
   41    40     1     0     0
SMALL
bcc


@<TRIPOS>ATOM
      1 N1         -0.0690    0.0010   -0.3030 n4        1 SPE     -0.837600
      2 C2          1.4070   -0.0000   -0.1030 c3        1 SPE      0.105800
      3 C3          1.8320   -0.0000    1.3700 c3        1 SPE     -0.138400
      4 C4          3.3630   -0.0010    1.4360 c3        1 SPE      0.110800
      5 N5          3.8890   -0.0010    2.8440 n4        1 SPE     -0.765000
      6 C6          5.3890   -0.0020    2.8770 c3        1 SPE      0.110800
      7 C7          5.9650   -0.0020    4.2980 c3        1 SPE     -0.137400
      8 C8          7.4970   -0.0030    4.2170 c3        1 SPE      0.110800
      9 N9          8.1630   -0.0030    5.5610 n4        1 SPE     -0.765000
     10 C10         9.6610   -0.0040    5.4400 c3        1 SPE      0.110800
     11 C11        10.3710   -0.0050    6.7980 c3        1 SPE     -0.138400
     12 C12        11.8840   -0.0060    6.5590 c3        1 SPE      0.105800
     13 N13        12.6920   -0.0060    7.8100 n4        1 SPE     -0.837600
     14 HN11       -0.2750    0.0010   -1.3170 hn        1 SPE      0.486967
     15 HN12       -0.5010   -0.8350    0.1140 hn        1 SPE      0.486967
     16 H21         1.8180   -0.9190   -0.6220 hx        1 SPE      0.132700
     17 H22         1.8190    0.9170   -0.6220 hx        1 SPE      0.132700
     18 H31         1.4210    0.9100    1.8870 hc        1 SPE      0.099700
     19 H32         1.4200   -0.9100    1.8880 hc        1 SPE      0.099700
     20 H41         3.7700   -0.9200    0.9180 hx        1 SPE      0.129700
     21 H42         3.7710    0.9170    0.9170 hx        1 SPE      0.129700
     22 HN5         3.5360    0.8310    3.3370 hn        1 SPE      0.468800
     23 H61         5.7420   -0.9210    2.3190 hx        1 SPE      0.129700
     24 H62         5.7430    0.9150    2.3190 hx        1 SPE      0.129700
     25 H71         5.6110    0.9080    4.8570 hc        1 SPE      0.099700
     26 H72         5.6090   -0.9110    4.8570 hc        1 SPE      0.099700
     27 H81         7.8530    0.9140    3.6600 hx        1 SPE      0.129700
     28 H82         7.8510   -0.9220    3.6600 hx        1 SPE      0.129700
     29 HN9         7.8660   -0.8350    6.0910 hn        1 SPE      0.468800
     30 H101        9.9570   -0.9230    4.8520 hx        1 SPE      0.129700
     31 H102        9.9580    0.9140    4.8510 hx        1 SPE      0.129700
     32 H111       10.0770    0.9050    7.3910 hc        1 SPE      0.099700
     33 H112       10.0760   -0.9140    7.3910 hc        1 SPE      0.099700
     34 H121       12.1800   -0.9240    5.9660 hx        1 SPE      0.132700
     35 H122       12.1810    0.9120    5.9660 hx        1 SPE      0.132700
     36 HN31       12.4970   -0.8420    8.3780 hn        1 SPE      0.486967
     37 HN32       12.4980    0.8300    8.3780 hn        1 SPE      0.486967
     38 H13        -0.5010    0.8360    0.1140 hn        1 SPE      0.486967
     39 H52         3.5350   -0.8330    3.3370 hn        1 SPE      0.468800
     40 H92         7.8670    0.8290    6.0900 hn        1 SPE      0.468800
     41 H133       13.6970   -0.0070    7.5670 hn        1 SPE      0.486967
@<TRIPOS>BOND
     1    1    2 1   
     2    1   14 1   
     3    1   15 1   
     4    1   38 1   
     5    2    3 1   
     6    2   16 1   
     7    2   17 1   
     8    3    4 1   
     9    3   18 1   
    10    3   19 1   
    11    4    5 1   
    12    4   20 1   
    13    4   21 1   
    14    5    6 1   
    15    5   22 1   
    16    5   39 1   
    17    6    7 1   
    18    6   23 1   
    19    6   24 1   
    20    7    8 1   
    21    7   25 1   
    22    7   26 1   
    23    8    9 1   
    24    8   27 1   
    25    8   28 1   
    26    9   10 1   
    27    9   29 1   
    28    9   40 1   
    29   10   11 1   
    30   10   30 1   
    31   10   31 1   
    32   11   12 1   
    33   11   32 1   
    34   11   33 1   
    35   12   13 1   
    36   12   34 1   
    37   12   35 1   
    38   13   36 1   
    39   13   37 1   
    40   13   41 1   
@<TRIPOS>SUBSTRUCTURE
     1 SPE         1 TEMP              0 ****  ****    0 ROOT
