@<TRIPOS>MOLECULE
SPG
   38    39     1     0     0
SMALL
bcc


@<TRIPOS>ATOM
      1 P          -2.0320   -0.3140    0.3860 p4        1 SPG      1.540300
      2 O1P        -1.5450   -1.6070    0.9040 o         1 SPG     -0.825167
      3 O2P        -2.2380    0.7990    1.3670 o         1 SPG     -0.825167
      4 O3P        -2.7840   -0.2600   -0.8830 o         1 SPG     -0.873967
      5 S6          0.2240    0.6290   -0.4640 s         1 SPG     -0.587400
      6 O1A         9.5290    6.6200   -2.2310 o         1 SPG     -0.931833
      7 PA          9.1200    7.7390   -1.3190 p5        1 SPG      1.336900
      8 O2A         9.7090    9.0950   -1.5600 o         1 SPG     -0.931833
      9 O3A         8.9420    7.3310    0.1310 o         1 SPG     -0.931833
     10 O5'         7.4410    7.9490   -1.7270 os        1 SPG     -0.561200
     11 C5'         6.6760    6.8270   -1.5590 c3        1 SPG      0.236400
     12 C4'         5.8230    6.9490   -0.2730 c3        1 SPG      0.063100
     13 O4'         4.5160    6.3670   -0.5050 os        1 SPG     -0.439600
     14 C3'         6.4430    6.2580    0.9550 c3        1 SPG      0.131100
     15 O3'         6.8850    7.2080    1.8960 oh        1 SPG     -0.691800
     16 C2'         5.3050    5.4260    1.5870 c3        1 SPG      0.100100
     17 O2'         4.9600    5.7840    2.9060 oh        1 SPG     -0.611800
     18 C1'         4.0690    5.6680    0.6540 c3        1 SPG      0.215800
     19 N9          3.3900    4.4530    0.2340 na        1 SPG     -0.180900
     20 C8          3.7940    3.5420   -0.7660 cc        1 SPG      0.436400
     21 N7          2.9340    2.5180   -0.9450 nd        1 SPG     -0.623000
     22 C5          1.8960    2.7480   -0.0370 cd        1 SPG      0.237800
     23 C6          0.6950    2.0070    0.2430 c         1 SPG      0.368900
     24 N1         -0.1070    2.5750    1.2310 ns        1 SPG     -0.414400
     25 C2          0.2330    3.7470    1.8720 cd        1 SPG      0.455800
     26 N3          1.3180    4.4890    1.6750 nc        1 SPG     -0.599100
     27 C4          2.1670    3.9760    0.7060 cc        1 SPG      0.067800
     28 H5'1        7.3170    5.9020   -1.5050 h1        1 SPG      0.003200
     29 H5'2        5.9550    6.7240   -2.4230 h1        1 SPG      0.003200
     30 H4'         5.6480    8.0370   -0.0500 h1        1 SPG      0.066700
     31 H3'         7.3020    5.5980    0.6520 h1        1 SPG      0.104700
     32 HO3'        7.7420    7.5530    1.5380 ho        1 SPG      0.518000
     33 H2'         5.5820    4.3400    1.6370 h1        1 SPG      0.067700
     34 HO2'        5.2480    6.6960    3.0530 ho        1 SPG      0.426000
     35 H1'         3.3060    6.3110    1.1850 h2        1 SPG      0.079700
     36 H8          4.7230    3.7120   -1.3290 h5        1 SPG      0.087100
     37 HN1        -0.9860    2.0680    1.4620 hn        1 SPG      0.434500
     38 H2         -0.4890    4.1040    2.6370 h5        1 SPG      0.047800
@<TRIPOS>BOND
     1    1    2 1   
     2    1    3 1   
     3    1    4 2   
     4    5   23 2   
     5    6    7 1   
     6    7    8 1   
     7    7    9 1   
     8    7   10 1   
     9   10   11 1   
    10   11   12 1   
    11   11   28 1   
    12   11   29 1   
    13   12   13 1   
    14   12   14 1   
    15   12   30 1   
    16   13   18 1   
    17   14   15 1   
    18   14   16 1   
    19   14   31 1   
    20   15   32 1   
    21   16   17 1   
    22   16   18 1   
    23   16   33 1   
    24   17   34 1   
    25   18   19 1   
    26   18   35 1   
    27   19   20 1   
    28   19   27 1   
    29   20   21 2   
    30   20   36 1   
    31   21   22 1   
    32   22   23 1   
    33   22   27 2   
    34   23   24 1   
    35   24   25 1   
    36   24   37 1   
    37   25   26 2   
    38   25   38 1   
    39   26   27 1   
@<TRIPOS>SUBSTRUCTURE
     1 SPG         1 TEMP              0 ****  ****    0 ROOT
