@<TRIPOS>MOLECULE
SPG
   38    39     1     0     0
SMALL
bcc


@<TRIPOS>ATOM
      1 P          -1.9960   -0.3550    0.4420 p4        1 SPG      1.540300
      2 O1P        -1.4940   -1.6450    0.9520 o         1 SPG     -0.825167
      3 O2P        -2.1990    0.7550    1.4270 o         1 SPG     -0.825167
      4 O3P        -2.7610   -0.3040   -0.8190 o         1 SPG     -0.873967
      5 S6          0.2440    0.6060   -0.4320 s         1 SPG     -0.587400
      6 O1A         9.4880    6.6620   -2.2890 o         1 SPG     -0.931833
      7 PA          9.0810    7.7760   -1.3710 p5        1 SPG      1.336900
      8 O2A         9.6590    9.1370   -1.6150 o         1 SPG     -0.931833
      9 O3A         8.9230    7.3640    0.0810 o         1 SPG     -0.931833
     10 O5'         7.3960    7.9770   -1.7590 os        1 SPG     -0.561200
     11 C5'         6.6410    6.8490   -1.5850 c3        1 SPG      0.236400
     12 C4'         5.8010    6.9630   -0.2890 c3        1 SPG      0.063100
     13 O4'         4.4960    6.3740   -0.5080 os        1 SPG     -0.439600
     14 C3'         6.4400    6.2730    0.9300 c3        1 SPG      0.131100
     15 O3'         6.8860    7.2240    1.8680 oh        1 SPG     -0.691800
     16 C2'         5.3140    5.4340    1.5740 c3        1 SPG      0.100100
     17 O2'         4.9820    5.7870    2.8970 oh        1 SPG     -0.611800
     18 C1'         4.0660    5.6690    0.6550 c3        1 SPG      0.215800
     19 N9          3.3910    4.4500    0.2400 na        1 SPG     -0.180900
     20 C8          3.7900    3.5450   -0.7670 cc        1 SPG      0.436400
     21 N7          2.9360    2.5150   -0.9380 nd        1 SPG     -0.623000
     22 C5          1.9060    2.7350   -0.0190 cd        1 SPG      0.237800
     23 C6          0.7140    1.9850    0.2730 c         1 SPG      0.368900
     24 N1         -0.0820    2.5460    1.2710 n         1 SPG     -0.414400
     25 C2          0.2570    3.7190    1.9110 cd        1 SPG      0.455800
     26 N3          1.3350    4.4680    1.7040 nc        1 SPG     -0.599100
     27 C4          2.1760    3.9640    0.7240 cc        1 SPG      0.067800
     28 H5'1        7.2880    5.9290   -1.5400 h1        1 SPG      0.003200
     29 H5'2        5.9110    6.7440   -2.4410 h1        1 SPG      0.003200
     30 H4'         5.6220    8.0500   -0.0620 h1        1 SPG      0.066700
     31 H3'         7.2990    5.6190    0.6160 h1        1 SPG      0.104700
     32 HO3'        7.7370    7.5760    1.5010 ho        1 SPG      0.518000
     33 H2'         5.5980    4.3490    1.6190 h1        1 SPG      0.067700
     34 HO2'        5.2650    6.7010    3.0430 ho        1 SPG      0.426000
     35 H1'         3.3040    6.3060    1.1950 h2        1 SPG      0.079700
     36 H8          4.7120    3.7220   -1.3390 h5        1 SPG      0.087100
     37 HN1        -0.9550    2.0320    1.5100 hn        1 SPG      0.434500
     38 H2         -0.4580    4.0690    2.6840 h5        1 SPG      0.047800
@<TRIPOS>BOND
     1    1    2 1   
     2    1    3 1   
     3    1    4 2   
     4    5   23 2   
     5    6    7 1   
     6    7    8 1   
     7    7    9 1   
     8    7   10 1   
     9   10   11 1   
    10   11   12 1   
    11   11   28 1   
    12   11   29 1   
    13   12   13 1   
    14   12   14 1   
    15   12   30 1   
    16   13   18 1   
    17   14   15 1   
    18   14   16 1   
    19   14   31 1   
    20   15   32 1   
    21   16   17 1   
    22   16   18 1   
    23   16   33 1   
    24   17   34 1   
    25   18   19 1   
    26   18   35 1   
    27   19   20 1   
    28   19   27 1   
    29   20   21 2   
    30   20   36 1   
    31   21   22 1   
    32   22   23 1   
    33   22   27 2   
    34   23   24 1   
    35   24   25 1   
    36   24   37 1   
    37   25   26 2   
    38   25   38 1   
    39   26   27 1   
@<TRIPOS>SUBSTRUCTURE
     1 SPG         1 TEMP              0 ****  ****    0 ROOT
