@<TRIPOS>MOLECULE
SPG
   38    34     1     0     0
SMALL
bcc


@<TRIPOS>ATOM
      1 P          -4.2480   -5.3790    0.4470 p3        1 SPG      2.453000
      2 O1P        -3.1350   -6.1780    1.0700 o         1 SPG     -1.134500
      3 O2P        -4.9100   -4.5690    1.4830 os        1 SPG     -1.163500
      4 O3P        -5.2580   -6.3190   -0.1830 o         1 SPG     -1.134500
      5 S6         -3.4550   -4.1140   -1.0340 ss        1 SPG     -0.332000
      6 O1A         5.1480    1.8040   -3.4150 o         1 SPG     -1.004500
      7 PA          4.5260    3.0990   -3.0360 p3        1 SPG      2.540000
      8 O2A         4.2400    3.8820   -4.2570 os        1 SPG     -1.163500
      9 O3A         5.4710    3.8680   -2.1600 o         1 SPG     -1.004500
     10 O5'         3.1490    2.8270   -2.2350 os        1 SPG     -0.753000
     11 C5'         3.2020    2.0640   -1.0420 c3        1 SPG      0.028000
     12 C4'         1.8610    2.1910   -0.2890 c3        1 SPG     -0.073000
     13 O4'         1.0040    1.3380   -0.7570 os        1 SPG     -0.283000
     14 C3'         2.0430    1.8030    1.1940 c3        1 SPG      0.160000
     15 O3'         1.9210    2.8680    1.9600 oh        1 SPG     -0.707000
     16 C2'         0.9080    0.7960    1.5010 c3        1 SPG     -0.081000
     17 O2'         0.1840    1.1900    2.7750 oh        1 SPG     -0.369000
     18 C1'         0.1100    0.8750    0.4920 c3        1 SPG      0.133000
     19 N9         -0.4790   -0.4010    0.2290 n3        1 SPG     -0.125000
     20 C8          0.1920   -1.5000   -0.2090 c1        1 SPG     -0.058000
     21 N7         -0.7210   -2.4610   -0.4950 n2        1 SPG     -0.105000
     22 C5         -1.9610   -1.9570   -0.2340 c1        1 SPG     -0.183000
     23 C6         -3.2270   -2.4950   -0.3690 c1        1 SPG      0.115000
     24 N1         -4.3130   -1.7530   -0.0560 n2        1 SPG     -0.253000
     25 C2         -4.1600   -0.4820    0.3910 c1        1 SPG      0.023000
     26 N3         -2.8980    0.0540    0.5260 n1        1 SPG     -0.161000
     27 C4         -1.8100   -0.6860    0.2130 c1        1 SPG      0.014000
     28 H5'1        3.3640    1.1250   -1.2630 h1        1 SPG      0.066000
     29 H5'2        3.9630    2.4120   -0.4460 h1        1 SPG      0.066000
     30 H4'         1.4910    3.1550   -0.3680 h1        1 SPG      0.109000
     31 H3'         2.8920    1.3950    1.3260 h1        1 SPG     -0.017000
     32 HO3'        2.6600    2.9870    2.4150 ho        1 SPG      0.235000
     33 H2'         1.2930   -0.1670    1.5840 h1        1 SPG      0.074000
     34 HO2'        0.5640    0.7790    3.4760 ho        1 SPG      0.234000
     35 H1'        -0.6090    1.5580    0.6750 h2        1 SPG      0.121000
     36 H8          1.1350   -1.5500   -0.3850 DU        1 SPG      0.219000
     37 HN1        -5.1800   -2.1200   -0.1480 hn        1 SPG      0.345000
     38 H2         -4.9570    0.0610    0.6210 ha        1 SPG      0.173000
@<TRIPOS>BOND
     1    1    2 1   
     2    1    4 1   
     3    1    5 1   
     4    5   23 1   
     5    6    7 1   
     6    7    9 1   
     7    7   10 1   
     8   10   11 1   
     9   11   12 1   
    10   11   28 1   
    11   11   29 1   
    12   12   13 1   
    13   12   14 1   
    14   12   30 1   
    15   13   18 1   
    16   14   15 1   
    17   14   16 1   
    18   14   31 1   
    19   15   32 1   
    20   16   17 1   
    21   16   18 1   
    22   16   33 1   
    23   17   34 1   
    24   18   19 1   
    25   18   35 1   
    26   19   20 1   
    27   19   27 1   
    28   20   21 1   
    29   21   22 1   
    30   22   27 1   
    31   23   24 1   
    32   24   37 1   
    33   25   26 1   
    34   25   38 1   
@<TRIPOS>SUBSTRUCTURE
     1 SPG         1 TEMP              0 ****  ****    0 ROOT
