@<TRIPOS>MOLECULE
SPG
   38    39     1     0     0
SMALL
bcc


@<TRIPOS>ATOM
      1 P           7.1830   -0.7270   -0.3590 p4        1 SPG      1.539300
      2 O1P         7.5030   -1.4640   -1.5960 o         1 SPG     -0.824167
      3 O2P         6.8350    0.7250   -0.4770 o         1 SPG     -0.824167
      4 O3P         7.6830   -1.2080    0.9440 o         1 SPG     -0.872967
      5 S6          4.7130   -1.4640   -0.1040 s         1 SPG     -0.576400
      6 O1A        -6.4920   -1.3720   -1.0300 o         1 SPG     -0.933167
      7 PA         -6.6370   -0.0530   -0.3290 p5        1 SPG      1.331900
      8 O2A        -7.9360    0.2280    0.3650 o         1 SPG     -0.933167
      9 O3A        -5.9800    1.1130   -1.0400 o         1 SPG     -0.933167
     10 O5'        -5.4990   -0.2100    0.9840 os        1 SPG     -0.559200
     11 C5'        -4.2110   -0.4210    0.5760 c3        1 SPG      0.236400
     12 C4'        -3.3840    0.8830    0.6950 c3        1 SPG      0.063100
     13 O4'        -2.0650    0.5590    1.2120 os        1 SPG     -0.439600
     14 C3'        -3.2160    1.6410   -0.6370 c3        1 SPG      0.170100
     15 O3'        -3.8880    2.8750   -0.6050 oh        1 SPG     -0.645800
     16 C2'        -1.6930    1.8610   -0.7970 c3        1 SPG      0.096100
     17 O2'        -1.3840    3.2320   -0.9180 oh        1 SPG     -0.561800
     18 C1'        -1.0650    1.2880    0.5160 c3        1 SPG      0.213800
     19 N9          0.0890    0.4220    0.3090 na        1 SPG     -0.190900
     20 C8          0.1460   -0.9840    0.4010 cc        1 SPG      0.443400
     21 N7          1.3930   -1.4820    0.2740 nd        1 SPG     -0.626000
     22 C5          2.2190   -0.3690    0.0960 cd        1 SPG      0.243800
     23 C6          3.6430   -0.2520   -0.0780 c         1 SPG      0.364900
     24 N1          4.0930    1.0590   -0.2270 n         1 SPG     -0.414400
     25 C2          3.2390    2.1400   -0.2010 cd        1 SPG      0.459800
     26 N3          1.9200    2.1210   -0.0380 nc        1 SPG     -0.616100
     27 C4          1.4050    0.8430    0.1180 cc        1 SPG      0.049800
     28 H5'1       -4.1760   -0.7980   -0.4850 h1        1 SPG     -0.000800
     29 H5'2       -3.7170   -1.1830    1.2510 h1        1 SPG     -0.000800
     30 H4'        -3.8570    1.5570    1.4600 h1        1 SPG      0.074700
     31 H3'        -3.6030    1.0220   -1.4950 h1        1 SPG      0.100700
     32 HO3'       -4.8380    2.6470   -0.7400 ho        1 SPG      0.494000
     33 H2'        -1.3250    1.3060   -1.7020 h1        1 SPG      0.038700
     34 HO2'       -0.4240    3.2790   -1.0220 ho        1 SPG      0.383000
     35 H1'        -0.7200    2.1400    1.1790 h2        1 SPG      0.070700
     36 H8         -0.7750   -1.5620    0.5680 h5        1 SPG      0.093100
     37 HN1         5.1200    1.1840   -0.3490 hn        1 SPG      0.436500
     38 H2          3.7170    3.1340   -0.3320 h5        1 SPG      0.048800
@<TRIPOS>BOND
     1    1    2 1   
     2    1    3 1   
     3    1    4 2   
     4    5   23 2   
     5    6    7 1   
     6    7    8 1   
     7    7    9 1   
     8    7   10 1   
     9   10   11 1   
    10   11   12 1   
    11   11   28 1   
    12   11   29 1   
    13   12   13 1   
    14   12   14 1   
    15   12   30 1   
    16   13   18 1   
    17   14   15 1   
    18   14   16 1   
    19   14   31 1   
    20   15   32 1   
    21   16   17 1   
    22   16   18 1   
    23   16   33 1   
    24   17   34 1   
    25   18   19 1   
    26   18   35 1   
    27   19   20 1   
    28   19   27 1   
    29   20   21 2   
    30   20   36 1   
    31   21   22 1   
    32   22   23 1   
    33   22   27 2   
    34   23   24 1   
    35   24   25 1   
    36   24   37 1   
    37   25   26 2   
    38   25   38 1   
    39   26   27 1   
@<TRIPOS>SUBSTRUCTURE
     1 SPG         1 TEMP              0 ****  ****    0 ROOT
