@<TRIPOS>MOLECULE
SPH
   59    58     1     0     0
SMALL
bcc


@<TRIPOS>ATOM
      1 C1          0.3650    0.2200    1.2340 c3        1 SPH      0.114400
      2 O1          0.4430    0.8840    2.4800 oh        1 SPH     -0.635800
      3 C2          1.8080    0.0570    0.7220 c3        1 SPH      0.067500
      4 N2          2.6730   -0.5980    1.7550 n4        1 SPH     -0.825600
      5 C3          1.7970   -0.7450   -0.6150 c3        1 SPH      0.184300
      6 O3          1.0820    0.0410   -1.5440 oh        1 SPH     -0.567800
      7 C4          3.1910   -1.0510   -1.0410 c2        1 SPH     -0.346200
      8 C5          3.6330   -2.2530   -1.4310 c2        1 SPH     -0.045200
      9 C6          2.8400   -3.5020   -1.4740 c3        1 SPH     -0.080200
     10 C7          3.7220   -4.7360   -1.5100 c3        1 SPH     -0.081400
     11 C8          2.8860   -5.9980   -1.5450 c3        1 SPH     -0.080400
     12 C9          3.7630   -7.2310   -1.5820 c3        1 SPH     -0.079400
     13 C10         2.9290   -8.4940   -1.6140 c3        1 SPH     -0.079400
     14 C11         3.8050   -9.7280   -1.6510 c3        1 SPH     -0.079400
     15 C12         2.9720  -10.9910   -1.6830 c3        1 SPH     -0.079400
     16 C13         3.8490  -12.2250   -1.7200 c3        1 SPH     -0.079400
     17 C14         3.0160  -13.4890   -1.7510 c3        1 SPH     -0.079400
     18 C15         3.8920  -14.7220   -1.7890 c3        1 SPH     -0.079400
     19 C16         3.0600  -15.9860   -1.8210 c3        1 SPH     -0.079400
     20 C17         3.9360  -17.2210   -1.8590 c3        1 SPH     -0.080400
     21 C18         3.1110  -18.4820   -1.8910 c3        1 SPH     -0.093100
     22 H11        -0.2050    0.8030    0.4610 h1        1 SPH      0.084700
     23 H12        -0.1250   -0.7800    1.3840 h1        1 SPH      0.084700
     24 HO1        -0.3290    1.4610    2.5640 ho        1 SPH      0.454000
     25 H2          2.2470    1.0820    0.5350 hx        1 SPH      0.117700
     26 HN21        2.6570   -0.0260    2.6080 hn        1 SPH      0.463800
     27 HN22        3.6300   -0.6860    1.3980 hn        1 SPH      0.463800
     28 H3          1.1710   -1.6760   -0.4850 h1        1 SPH      0.094700
     29 HO3         1.7120    0.5340   -2.0890 ho        1 SPH      0.432000
     30 H4          3.8550   -0.1710   -1.1040 ha        1 SPH      0.137000
     31 H5          4.6820   -2.3530   -1.7740 ha        1 SPH      0.152000
     32 H61         2.1950   -3.4810   -2.3980 hc        1 SPH      0.065200
     33 H62         2.1450   -3.5690   -0.5950 hc        1 SPH      0.065200
     34 H71         4.3850   -4.7000   -2.4140 hc        1 SPH      0.049700
     35 H72         4.3890   -4.7510   -0.6080 hc        1 SPH      0.049700
     36 H81         2.2200   -5.9830   -2.4480 hc        1 SPH      0.043200
     37 H82         2.2200   -6.0370   -0.6430 hc        1 SPH      0.043200
     38 H91         4.4250   -7.1950   -2.4870 hc        1 SPH      0.044200
     39 H92         4.4330   -7.2450   -0.6820 hc        1 SPH      0.044200
     40 H101        2.2600   -8.4810   -2.5150 hc        1 SPH      0.041200
     41 H102        2.2660   -8.5310   -0.7100 hc        1 SPH      0.041200
     42 H111        4.4760   -9.7410   -0.7520 hc        1 SPH      0.041700
     43 H112        4.4680   -9.6920   -2.5570 hc        1 SPH      0.041700
     44 H121        2.3100  -11.0280   -0.7780 hc        1 SPH      0.040700
     45 H122        2.3020  -10.9780   -2.5830 hc        1 SPH      0.040700
     46 H131        4.5110  -12.1890   -2.6250 hc        1 SPH      0.040700
     47 H132        4.5190  -12.2380   -0.8210 hc        1 SPH      0.040700
     48 H141        2.3460  -13.4760   -2.6510 hc        1 SPH      0.040200
     49 H142        2.3540  -13.5260   -0.8460 hc        1 SPH      0.040200
     50 H151        4.5540  -14.6860   -2.6940 hc        1 SPH      0.040200
     51 H152        4.5630  -14.7360   -0.8900 hc        1 SPH      0.040200
     52 H161        2.3890  -15.9730   -2.7200 hc        1 SPH      0.040200
     53 H162        2.3980  -16.0240   -0.9150 hc        1 SPH      0.040200
     54 H171        4.5980  -17.1810   -2.7650 hc        1 SPH      0.039200
     55 H172        4.6070  -17.2320   -0.9600 hc        1 SPH      0.039200
     56 H181        3.7760  -19.3790   -1.9190 hc        1 SPH      0.034033
     57 H182        2.4540  -18.5010   -2.7930 hc        1 SPH      0.034033
     58 H183        2.4630  -18.5520   -0.9840 hc        1 SPH      0.034033
     59 H23         2.3080   -1.5280    1.9760 hn        1 SPH      0.463800
@<TRIPOS>BOND
     1    1    2 1   
     2    1    3 1   
     3    1   22 1   
     4    1   23 1   
     5    2   24 1   
     6    3    4 1   
     7    3    5 1   
     8    3   25 1   
     9    4   26 1   
    10    4   27 1   
    11    4   59 1   
    12    5    6 1   
    13    5    7 1   
    14    5   28 1   
    15    6   29 1   
    16    7    8 2   
    17    7   30 1   
    18    8    9 1   
    19    8   31 1   
    20    9   10 1   
    21    9   32 1   
    22    9   33 1   
    23   10   11 1   
    24   10   34 1   
    25   10   35 1   
    26   11   12 1   
    27   11   36 1   
    28   11   37 1   
    29   12   13 1   
    30   12   38 1   
    31   12   39 1   
    32   13   14 1   
    33   13   40 1   
    34   13   41 1   
    35   14   15 1   
    36   14   42 1   
    37   14   43 1   
    38   15   16 1   
    39   15   44 1   
    40   15   45 1   
    41   16   17 1   
    42   16   46 1   
    43   16   47 1   
    44   17   18 1   
    45   17   48 1   
    46   17   49 1   
    47   18   19 1   
    48   18   50 1   
    49   18   51 1   
    50   19   20 1   
    51   19   52 1   
    52   19   53 1   
    53   20   21 1   
    54   20   54 1   
    55   20   55 1   
    56   21   56 1   
    57   21   57 1   
    58   21   58 1   
@<TRIPOS>SUBSTRUCTURE
     1 SPH         1 TEMP              0 ****  ****    0 ROOT
