@<TRIPOS>MOLECULE
SPH
   59    58     1     0     0
SMALL
bcc


@<TRIPOS>ATOM
      1 C1          0.3230    0.2240    1.1670 c3        1 SPH      0.114400
      2 O1          0.3580    0.8870    2.4160 oh        1 SPH     -0.635800
      3 C2          1.7830    0.0560    0.7080 c3        1 SPH      0.067500
      4 N2          2.6070   -0.6050    1.7700 nz        1 SPH     -0.825600
      5 C3          1.8180   -0.7430   -0.6300 c3        1 SPH      0.184300
      6 O3          1.1410    0.0470   -1.5830 oh        1 SPH     -0.567800
      7 C4          3.2250   -1.0550   -1.0060 c2        1 SPH     -0.346200
      8 C5          3.6750   -2.2580   -1.3820 c2        1 SPH     -0.045200
      9 C6          2.8790   -3.5040   -1.4580 c3        1 SPH     -0.080200
     10 C7          3.7550   -4.7410   -1.4660 c3        1 SPH     -0.081400
     11 C8          2.9150   -5.9990   -1.5370 c3        1 SPH     -0.080400
     12 C9          3.7870   -7.2370   -1.5470 c3        1 SPH     -0.079400
     13 C10         2.9480   -8.4950   -1.6130 c3        1 SPH     -0.079400
     14 C11         3.8190   -9.7330   -1.6240 c3        1 SPH     -0.079400
     15 C12         2.9810  -10.9920   -1.6900 c3        1 SPH     -0.079400
     16 C13         3.8520  -12.2300   -1.7020 c3        1 SPH     -0.079400
     17 C14         3.0140  -13.4890   -1.7670 c3        1 SPH     -0.079400
     18 C15         3.8840  -14.7280   -1.7800 c3        1 SPH     -0.079400
     19 C16         3.0470  -15.9870   -1.8440 c3        1 SPH     -0.079400
     20 C17         3.9170  -17.2260   -1.8580 c3        1 SPH     -0.080400
     21 C18         3.0870  -18.4830   -1.9220 c3        1 SPH     -0.093100
     22 H11        -0.1760   -0.7740    1.2970 h1        1 SPH      0.084700
     23 H12        -0.2160    0.8110    0.3740 h1        1 SPH      0.084700
     24 HO1        -0.4130    1.4670    2.4720 ho        1 SPH      0.454000
     25 H2          2.2330    1.0800    0.5390 hx        1 SPH      0.117700
     26 HN21        2.5620   -0.0330    2.6240 hn        1 SPH      0.463800
     27 HN22        2.2310   -1.5340    1.9760 hn        1 SPH      0.463800
     28 H3          1.1840   -1.6720   -0.5250 h1        1 SPH      0.094700
     29 HO3         1.7920    0.5380   -2.1040 ho        1 SPH      0.432000
     30 H4          3.8950   -0.1780   -1.0420 ha        1 SPH      0.137000
     31 H5          4.7360   -2.3620   -1.6870 ha        1 SPH      0.152000
     32 H61         2.2660   -3.4760   -2.4040 hc        1 SPH      0.065200
     33 H62         2.1530   -3.5700   -0.6030 hc        1 SPH      0.065200
     34 H71         4.4500   -4.7050   -2.3470 hc        1 SPH      0.049700
     35 H72         4.3900   -4.7630   -0.5420 hc        1 SPH      0.049700
     36 H81         2.2820   -5.9780   -2.4630 hc        1 SPH      0.043200
     37 H82         2.2170   -6.0380   -0.6590 hc        1 SPH      0.043200
     38 H91         4.4240   -7.2580   -0.6240 hc        1 SPH      0.044200
     39 H92         4.4810   -7.2010   -2.4280 hc        1 SPH      0.044200
     40 H101        2.2530   -8.5320   -0.7340 hc        1 SPH      0.041200
     41 H102        2.3120   -8.4750   -2.5370 hc        1 SPH      0.041200
     42 H111        4.4570   -9.7540   -0.7010 hc        1 SPH      0.041700
     43 H112        4.5130   -9.6970   -2.5050 hc        1 SPH      0.041700
     44 H121        2.3430  -10.9720   -2.6130 hc        1 SPH      0.040700
     45 H122        2.2870  -11.0290   -0.8090 hc        1 SPH      0.040700
     46 H131        4.4900  -12.2510   -0.7790 hc        1 SPH      0.040700
     47 H132        4.5450  -12.1940   -2.5830 hc        1 SPH      0.040700
     48 H141        2.3760  -13.4690   -2.6900 hc        1 SPH      0.040200
     49 H142        2.3200  -13.5260   -0.8860 hc        1 SPH      0.040200
     50 H151        4.5780  -14.6910   -2.6610 hc        1 SPH      0.040200
     51 H152        4.5230  -14.7480   -0.8580 hc        1 SPH      0.040200
     52 H161        2.3540  -16.0240   -0.9630 hc        1 SPH      0.040200
     53 H162        2.4080  -15.9670   -2.7660 hc        1 SPH      0.040200
     54 H171        4.5560  -17.2440   -0.9360 hc        1 SPH      0.039200
     55 H172        4.6100  -17.1870   -2.7390 hc        1 SPH      0.039200
     56 H181        2.4610  -18.4950   -2.8470 hc        1 SPH      0.034033
     57 H182        3.7470  -19.3830   -1.9310 hc        1 SPH      0.034033
     58 H183        2.4070  -18.5520   -1.0380 hc        1 SPH      0.034033
     59 H23         3.5760   -0.6960    1.4490 hn        1 SPH      0.463800
@<TRIPOS>BOND
     1    1    2 1   
     2    1    3 1   
     3    1   22 1   
     4    1   23 1   
     5    2   24 1   
     6    3    4 1   
     7    3    5 1   
     8    3   25 1   
     9    4   26 1   
    10    4   27 1   
    11    4   59 1   
    12    5    6 1   
    13    5    7 1   
    14    5   28 1   
    15    6   29 1   
    16    7    8 2   
    17    7   30 1   
    18    8    9 1   
    19    8   31 1   
    20    9   10 1   
    21    9   32 1   
    22    9   33 1   
    23   10   11 1   
    24   10   34 1   
    25   10   35 1   
    26   11   12 1   
    27   11   36 1   
    28   11   37 1   
    29   12   13 1   
    30   12   38 1   
    31   12   39 1   
    32   13   14 1   
    33   13   40 1   
    34   13   41 1   
    35   14   15 1   
    36   14   42 1   
    37   14   43 1   
    38   15   16 1   
    39   15   44 1   
    40   15   45 1   
    41   16   17 1   
    42   16   46 1   
    43   16   47 1   
    44   17   18 1   
    45   17   48 1   
    46   17   49 1   
    47   18   19 1   
    48   18   50 1   
    49   18   51 1   
    50   19   20 1   
    51   19   52 1   
    52   19   53 1   
    53   20   21 1   
    54   20   54 1   
    55   20   55 1   
    56   21   56 1   
    57   21   57 1   
    58   21   58 1   
@<TRIPOS>SUBSTRUCTURE
     1 SPH         1 TEMP              0 ****  ****    0 ROOT
