@<TRIPOS>MOLECULE
SPH
   59    58     1     0     0
SMALL
bcc


@<TRIPOS>ATOM
      1 C1          0.3240    0.1850    1.2440 c3        1 SPH      0.114400
      2 O1          0.3890    0.8390    2.4970 oh        1 SPH     -0.635800
      3 C2          1.7730    0.0250    0.7460 c3        1 SPH      0.067500
      4 N2          2.6270   -0.6400    1.7820 n4        1 SPH     -0.825600
      5 C3          1.7760   -0.7640   -0.5980 c3        1 SPH      0.184300
      6 O3          1.0720    0.0310   -1.5280 oh        1 SPH     -0.567800
      7 C4          3.1740   -1.0680   -1.0120 c2        1 SPH     -0.346200
      8 C5          3.6200   -2.2680   -1.4050 c2        1 SPH     -0.045200
      9 C6          2.8280   -3.5170   -1.4660 c3        1 SPH     -0.080200
     10 C7          3.7100   -4.7500   -1.4910 c3        1 SPH     -0.081400
     11 C8          2.8740   -6.0120   -1.5450 c3        1 SPH     -0.080400
     12 C9          3.7520   -7.2450   -1.5700 c3        1 SPH     -0.079400
     13 C10         2.9180   -8.5080   -1.6200 c3        1 SPH     -0.079400
     14 C11         3.7940   -9.7420   -1.6430 c3        1 SPH     -0.079400
     15 C12         2.9610  -11.0050   -1.6920 c3        1 SPH     -0.079400
     16 C13         3.8370  -12.2390   -1.7150 c3        1 SPH     -0.079400
     17 C14         3.0040  -13.5020   -1.7640 c3        1 SPH     -0.079400
     18 C15         3.8800  -14.7360   -1.7860 c3        1 SPH     -0.079400
     19 C16         3.0480  -16.0000   -1.8350 c3        1 SPH     -0.079400
     20 C17         3.9230  -17.2350   -1.8580 c3        1 SPH     -0.080400
     21 C18         3.0980  -18.4950   -1.9060 c3        1 SPH     -0.093100
     22 H11        -0.2360    0.7750    0.4700 h1        1 SPH      0.084700
     23 H12        -0.1680   -0.8160    1.3800 h1        1 SPH      0.084700
     24 HO1        -0.3820    1.4150    2.5770 ho        1 SPH      0.454000
     25 H2          2.2140    1.0520    0.5740 hx        1 SPH      0.117700
     26 HN21        2.6020   -0.0740    2.6410 hn        1 SPH      0.463800
     27 HN22        2.2590   -1.5710    1.9910 hn        1 SPH      0.463800
     28 H3          1.1480   -1.6960   -0.4830 h1        1 SPH      0.094700
     29 HO3         1.7080    0.5270   -2.0620 ho        1 SPH      0.432000
     30 H4          3.8390   -0.1880   -1.0610 ha        1 SPH      0.137000
     31 H5          4.6730   -2.3650   -1.7380 ha        1 SPH      0.152000
     32 H61         2.1980   -3.4920   -2.4010 hc        1 SPH      0.065700
     33 H62         2.1170   -3.5860   -0.5990 hc        1 SPH      0.065700
     34 H71         4.3620   -4.7690   -0.5790 hc        1 SPH      0.049700
     35 H72         4.3880   -4.7110   -2.3840 hc        1 SPH      0.049700
     36 H81         2.1920   -6.0530   -0.6550 hc        1 SPH      0.043200
     37 H82         2.2250   -5.9950   -2.4600 hc        1 SPH      0.043200
     38 H91         4.4050   -7.2620   -0.6580 hc        1 SPH      0.044200
     39 H92         4.4300   -7.2070   -2.4630 hc        1 SPH      0.044200
     40 H101        2.2660   -8.4930   -2.5330 hc        1 SPH      0.041700
     41 H102        2.2380   -8.5470   -0.7280 hc        1 SPH      0.041700
     42 H111        4.4730   -9.7040   -2.5360 hc        1 SPH      0.041700
     43 H112        4.4470   -9.7580   -0.7310 hc        1 SPH      0.041700
     44 H121        2.3090  -10.9900   -2.6050 hc        1 SPH      0.040700
     45 H122        2.2810  -11.0430   -0.8000 hc        1 SPH      0.040700
     46 H131        4.5160  -12.2020   -2.6080 hc        1 SPH      0.040700
     47 H132        4.4900  -12.2540   -0.8030 hc        1 SPH      0.040700
     48 H141        2.3250  -13.5400   -0.8720 hc        1 SPH      0.040200
     49 H142        2.3520  -13.4880   -2.6760 hc        1 SPH      0.040200
     50 H151        4.5590  -14.6990   -2.6790 hc        1 SPH      0.040200
     51 H152        4.5340  -14.7510   -0.8750 hc        1 SPH      0.040200
     52 H161        2.3950  -15.9850   -2.7470 hc        1 SPH      0.040200
     53 H162        2.3690  -16.0370   -0.9430 hc        1 SPH      0.040200
     54 H171        4.5760  -17.2470   -0.9460 hc        1 SPH      0.039200
     55 H172        4.6020  -17.1950   -2.7500 hc        1 SPH      0.039200
     56 H181        2.4580  -18.5130   -2.8210 hc        1 SPH      0.034033
     57 H182        3.7620  -19.3930   -1.9220 hc        1 SPH      0.034033
     58 H183        2.4320  -18.5660   -1.0120 hc        1 SPH      0.034033
     59 H23         3.5870   -0.7250    1.4350 hn        1 SPH      0.463800
@<TRIPOS>BOND
     1    1    2 1   
     2    1    3 1   
     3    1   22 1   
     4    1   23 1   
     5    2   24 1   
     6    3    4 1   
     7    3    5 1   
     8    3   25 1   
     9    4   26 1   
    10    4   27 1   
    11    4   59 1   
    12    5    6 1   
    13    5    7 1   
    14    5   28 1   
    15    6   29 1   
    16    7    8 2   
    17    7   30 1   
    18    8    9 1   
    19    8   31 1   
    20    9   10 1   
    21    9   32 1   
    22    9   33 1   
    23   10   11 1   
    24   10   34 1   
    25   10   35 1   
    26   11   12 1   
    27   11   36 1   
    28   11   37 1   
    29   12   13 1   
    30   12   38 1   
    31   12   39 1   
    32   13   14 1   
    33   13   40 1   
    34   13   41 1   
    35   14   15 1   
    36   14   42 1   
    37   14   43 1   
    38   15   16 1   
    39   15   44 1   
    40   15   45 1   
    41   16   17 1   
    42   16   46 1   
    43   16   47 1   
    44   17   18 1   
    45   17   48 1   
    46   17   49 1   
    47   18   19 1   
    48   18   50 1   
    49   18   51 1   
    50   19   20 1   
    51   19   52 1   
    52   19   53 1   
    53   20   21 1   
    54   20   54 1   
    55   20   55 1   
    56   21   56 1   
    57   21   57 1   
    58   21   58 1   
@<TRIPOS>SUBSTRUCTURE
     1 SPH         1 TEMP              0 ****  ****    0 ROOT
