@<TRIPOS>MOLECULE
SPH
   58    57     1     0     0
SMALL
bcc


@<TRIPOS>ATOM
      1 C1         -7.9070   -1.8450    0.1910 c3        1 SPH      0.086400
      2 O1         -9.3180   -1.9760    0.1390 oh        1 SPH     -0.610800
      3 C2         -7.5870   -0.3400    0.0380 c3        1 SPH      0.138500
      4 N2         -8.1750    0.5110    1.0490 n3        1 SPH     -0.893800
      5 C3         -6.0420   -0.2040   -0.0290 c3        1 SPH      0.175300
      6 O3         -5.5470   -1.0270   -1.0780 oh        1 SPH     -0.599800
      7 C4         -5.6150    1.2190   -0.1930 c2        1 SPH     -0.217200
      8 C5         -4.3550    1.6380   -0.0470 c2        1 SPH     -0.136200
      9 C6         -3.2110    0.7570    0.2920 c3        1 SPH     -0.064200
     10 C7         -1.8830    1.3770   -0.0900 c3        1 SPH     -0.075400
     11 C8         -0.7320    0.4580    0.2600 c3        1 SPH     -0.079400
     12 C9          0.5970    1.0740   -0.1190 c3        1 SPH     -0.079400
     13 C10         1.7480    0.1550    0.2300 c3        1 SPH     -0.079400
     14 C11         3.0780    0.7710   -0.1490 c3        1 SPH     -0.079400
     15 C12         4.2290   -0.1480    0.2000 c3        1 SPH     -0.079400
     16 C13         5.5580    0.4680   -0.1790 c3        1 SPH     -0.079400
     17 C14         6.7090   -0.4520    0.1700 c3        1 SPH     -0.079400
     18 C15         8.0390    0.1640   -0.2090 c3        1 SPH     -0.079400
     19 C16         9.1900   -0.7550    0.1400 c3        1 SPH     -0.079400
     20 C17        10.5210   -0.1400   -0.2390 c3        1 SPH     -0.080400
     21 C18        11.6690   -1.0520    0.1070 c3        1 SPH     -0.092100
     22 H11        -7.4230   -2.4170   -0.6440 h1        1 SPH      0.035700
     23 H12        -7.5260   -2.2350    1.1730 h1        1 SPH      0.035700
     24 HO1        -9.5070   -2.9210    0.1180 ho        1 SPH      0.404000
     25 H2         -8.0130   -0.0070   -0.9550 h1        1 SPH      0.069700
     26 HN21       -9.1680    0.3660    1.0680 hn        1 SPH      0.354800
     27 HN22       -7.8000    0.2960    1.9530 hn        1 SPH      0.354800
     28 H3         -5.5800   -0.6490    0.9000 h1        1 SPH      0.072700
     29 HO3        -5.7810   -0.6030   -1.9120 ho        1 SPH      0.404000
     30 H4         -6.4200    1.9340   -0.4300 ha        1 SPH      0.143000
     31 H5         -4.1120    2.7080   -0.1710 ha        1 SPH      0.123000
     32 H61        -3.3290   -0.2350   -0.2250 hc        1 SPH      0.057700
     33 H62        -3.2250    0.5540    1.3980 hc        1 SPH      0.057700
     34 H71        -1.7560    2.3570    0.4420 hc        1 SPH      0.040700
     35 H72        -1.8710    1.5930   -1.1900 hc        1 SPH      0.040700
     36 H81        -0.8590   -0.5220   -0.2730 hc        1 SPH      0.041200
     37 H82        -0.7460    0.2390    1.3600 hc        1 SPH      0.041200
     38 H91         0.7240    2.0530    0.4140 hc        1 SPH      0.039700
     39 H92         0.6110    1.2920   -1.2190 hc        1 SPH      0.039700
     40 H101        1.6220   -0.8250   -0.3020 hc        1 SPH      0.039700
     41 H102        1.7350   -0.0640    1.3310 hc        1 SPH      0.039700
     42 H111        3.2040    1.7500    0.3840 hc        1 SPH      0.039700
     43 H112        3.0910    0.9890   -1.2490 hc        1 SPH      0.039700
     44 H121        4.1030   -1.1280   -0.3320 hc        1 SPH      0.039700
     45 H122        4.2150   -0.3660    1.3010 hc        1 SPH      0.039700
     46 H131        5.6840    1.4470    0.3540 hc        1 SPH      0.039700
     47 H132        5.5720    0.6860   -1.2790 hc        1 SPH      0.039700
     48 H141        6.5830   -1.4310   -0.3620 hc        1 SPH      0.039700
     49 H142        6.6960   -0.6700    1.2710 hc        1 SPH      0.039700
     50 H151        8.1650    1.1440    0.3240 hc        1 SPH      0.039700
     51 H152        8.0520    0.3820   -1.3090 hc        1 SPH      0.039700
     52 H161        9.0640   -1.7340   -0.3920 hc        1 SPH      0.039700
     53 H162        9.1770   -0.9730    1.2410 hc        1 SPH      0.039700
     54 H171       10.6440    0.8400    0.2930 hc        1 SPH      0.038700
     55 H172       10.5310    0.0790   -1.3390 hc        1 SPH      0.038700
     56 H181       11.6900   -1.2620    1.2040 hc        1 SPH      0.032700
     57 H182       11.5770   -2.0250   -0.4330 hc        1 SPH      0.032700
     58 H183       12.6400   -0.5800   -0.1800 hc        1 SPH      0.032700
@<TRIPOS>BOND
     1    1    2 1   
     2    1    3 1   
     3    1   22 1   
     4    1   23 1   
     5    2   24 1   
     6    3    4 1   
     7    3    5 1   
     8    3   25 1   
     9    4   26 1   
    10    4   27 1   
    11    5    6 1   
    12    5    7 1   
    13    5   28 1   
    14    6   29 1   
    15    7    8 2   
    16    7   30 1   
    17    8    9 1   
    18    8   31 1   
    19    9   10 1   
    20    9   32 1   
    21    9   33 1   
    22   10   11 1   
    23   10   34 1   
    24   10   35 1   
    25   11   12 1   
    26   11   36 1   
    27   11   37 1   
    28   12   13 1   
    29   12   38 1   
    30   12   39 1   
    31   13   14 1   
    32   13   40 1   
    33   13   41 1   
    34   14   15 1   
    35   14   42 1   
    36   14   43 1   
    37   15   16 1   
    38   15   44 1   
    39   15   45 1   
    40   16   17 1   
    41   16   46 1   
    42   16   47 1   
    43   17   18 1   
    44   17   48 1   
    45   17   49 1   
    46   18   19 1   
    47   18   50 1   
    48   18   51 1   
    49   19   20 1   
    50   19   52 1   
    51   19   53 1   
    52   20   21 1   
    53   20   54 1   
    54   20   55 1   
    55   21   56 1   
    56   21   57 1   
    57   21   58 1   
@<TRIPOS>SUBSTRUCTURE
     1 SPH         1 TEMP              0 ****  ****    0 ROOT
