@<TRIPOS>MOLECULE
SPI
   55    57     1     0     0
SMALL
bcc


@<TRIPOS>ATOM
      1 S1         -0.2600   -0.1140   -0.5450 sy        1 SPI      1.549200
      2 O1          1.0560   -0.5680   -0.4200 o         1 SPI     -0.679800
      3 O2         -1.0340   -0.1530    0.6650 o         1 SPI     -0.679800
      4 C1         -0.3390    1.3450   -1.2690 ca        1 SPI     -0.506500
      5 C2         -1.5450    2.0760   -1.3360 ca        1 SPI      0.037000
      6 C3         -1.6010    3.3350   -1.8950 ca        1 SPI     -0.211000
      7 C4         -0.4170    3.9130   -2.4160 ca        1 SPI      0.236100
      8 C5          0.7980    3.2050   -2.3630 ca        1 SPI     -0.211000
      9 C6          0.8220    1.9420   -1.7970 ca        1 SPI      0.037000
     10 O3         -0.5690    5.1580   -2.9470 os        1 SPI     -0.299900
     11 C7          0.6020    5.7960   -3.4650 c3        1 SPI      0.103700
     12 N1         -1.1310   -1.1330   -1.5420 n3        1 SPI     -0.801500
     13 C8         -2.1440   -2.0130   -1.0280 c3        1 SPI      0.177500
     14 C9         -3.1290   -2.5920   -2.1050 c3        1 SPI      0.068000
     15 N2         -2.4610   -3.0250   -3.3020 n         1 SPI     -0.391800
     16 C10        -1.6280   -1.9940   -3.8830 c3        1 SPI      0.063000
     17 C11        -0.6380   -1.3660   -2.8810 c3        1 SPI      0.174800
     18 C12        -2.0230   -4.3680   -3.3200 c         1 SPI      0.718100
     19 O4         -2.3770   -5.2450   -2.5140 o         1 SPI     -0.576000
     20 O5         -1.1940   -4.6820   -4.3580 os        1 SPI     -0.417900
     21 C13        -0.9090   -6.1010   -4.5090 c3        1 SPI      0.200700
     22 C14         0.0210   -6.2150   -5.6660 ca        1 SPI     -0.120300
     23 C15         1.3450   -6.6210   -5.4620 ca        1 SPI     -0.103000
     24 C16         2.2020   -6.7720   -6.5510 ca        1 SPI     -0.131500
     25 C17         1.7450   -6.5100   -7.8430 ca        1 SPI     -0.106000
     26 C18         0.4280   -6.0980   -8.0480 ca        1 SPI     -0.131500
     27 C19        -0.4340   -5.9500   -6.9620 ca        1 SPI     -0.103000
     28 C20        -3.0610   -1.2910   -0.0250 c         1 SPI      0.548100
     29 NA         -3.0210   -1.8150    1.4140 ny        1 SPI     -0.455300
     30 OA         -4.1100   -1.4780    2.1390 oh        1 SPI     -0.360300
     31 OB         -3.8310   -0.3680   -0.2200 o         1 SPI     -0.419100
     32 HC21       -2.4660    1.6280   -0.9200 ha        1 SPI      0.155000
     33 HC31       -2.5420    3.9050   -1.9420 ha        1 SPI      0.170500
     34 HC51        1.7240    3.6470   -2.7600 ha        1 SPI      0.170500
     35 HC61        1.7810    1.3890   -1.7450 ha        1 SPI      0.155000
     36 HC71        1.3600    5.9340   -2.6570 h1        1 SPI      0.065033
     37 HC72        1.0220    5.2060   -4.3150 h1        1 SPI      0.065033
     38 HC73        0.2110    6.7850   -3.8190 h1        1 SPI      0.065033
     39 HC81       -1.6420   -2.8900   -0.5100 h1        1 SPI      0.078700
     40 HC91       -3.6840   -3.4560   -1.6400 h1        1 SPI      0.099200
     41 HC92       -3.8600   -1.7860   -2.4010 h1        1 SPI      0.099200
     42 H101       -2.3200   -1.1970   -4.2790 h1        1 SPI      0.097700
     43 H102       -1.0380   -2.4190   -4.7450 h1        1 SPI      0.097700
     44 H111        0.2730   -2.0330   -2.8130 h1        1 SPI      0.073200
     45 H112       -0.3190   -0.3700   -3.3080 h1        1 SPI      0.073200
     46 H131       -0.4540   -6.4720   -3.5530 h1        1 SPI      0.069700
     47 H132       -1.8800   -6.6300   -4.6970 h1        1 SPI      0.069700
     48 H151        1.7080   -6.8290   -4.4450 ha        1 SPI      0.135500
     49 H161        3.2400   -7.1000   -6.3900 ha        1 SPI      0.142000
     50 H171        2.4230   -6.6320   -8.7020 ha        1 SPI      0.143000
     51 H181        0.0670   -5.8930   -9.0670 ha        1 SPI      0.142000
     52 H191       -1.4740   -5.6270   -7.1200 ha        1 SPI      0.135500
     53 HNA        -2.9880   -2.8510    1.4250 hn        1 SPI      0.501300
     54 HOA        -4.3210   -0.5270    1.9700 ho        1 SPI      0.484000
     55 HA2        -2.1560   -1.4280    1.8660 hn        1 SPI      0.501300
@<TRIPOS>BOND
     1    1    2 2   
     2    1    3 2   
     3    1    4 1   
     4    1   12 1   
     5    4    5 ar  
     6    4    9 ar  
     7    5    6 ar  
     8    5   32 1   
     9    6    7 ar  
    10    6   33 1   
    11    7    8 ar  
    12    7   10 1   
    13    8    9 ar  
    14    8   34 1   
    15    9   35 1   
    16   10   11 1   
    17   11   36 1   
    18   11   37 1   
    19   11   38 1   
    20   12   13 1   
    21   12   17 1   
    22   13   14 1   
    23   13   28 1   
    24   13   39 1   
    25   14   15 1   
    26   14   40 1   
    27   14   41 1   
    28   15   16 1   
    29   15   18 1   
    30   16   17 1   
    31   16   42 1   
    32   16   43 1   
    33   17   44 1   
    34   17   45 1   
    35   18   19 2   
    36   18   20 1   
    37   20   21 1   
    38   21   22 1   
    39   21   46 1   
    40   21   47 1   
    41   22   23 ar  
    42   22   27 ar  
    43   23   24 ar  
    44   23   48 1   
    45   24   25 ar  
    46   24   49 1   
    47   25   26 ar  
    48   25   50 1   
    49   26   27 ar  
    50   26   51 1   
    51   27   52 1   
    52   28   29 1   
    53   28   31 2   
    54   29   30 1   
    55   29   53 1   
    56   29   55 1   
    57   30   54 1   
@<TRIPOS>SUBSTRUCTURE
     1 SPI         1 TEMP              0 ****  ****    0 ROOT
