@<TRIPOS>MOLECULE
SPI
   55    57     1     0     0
SMALL
bcc


@<TRIPOS>ATOM
      1 S1         -0.2380   -0.0960   -0.5600 sy        1 SPI      1.549200
      2 O1          1.0850   -0.5340   -0.4550 o         1 SPI     -0.679800
      3 O2         -0.9910   -0.1370    0.6630 o         1 SPI     -0.679800
      4 C1         -0.3450    1.3590   -1.2900 ca        1 SPI     -0.506500
      5 C2         -1.5600    2.0760   -1.3400 ca        1 SPI      0.037000
      6 C3         -1.6400    3.3320   -1.9040 ca        1 SPI     -0.211000
      7 C4         -0.4710    3.9210   -2.4470 ca        1 SPI      0.236100
      8 C5          0.7530    3.2270   -2.4110 ca        1 SPI     -0.211000
      9 C6          0.8000    1.9660   -1.8400 ca        1 SPI      0.037000
     10 O3         -0.6460    5.1610   -2.9810 os        1 SPI     -0.299900
     11 C7          0.5100    5.8100   -3.5210 c3        1 SPI      0.103700
     12 N1         -1.1140   -1.1290   -1.5370 n3        1 SPI     -0.801500
     13 C8         -2.1080   -2.0180   -1.0020 c3        1 SPI      0.177500
     14 C9         -3.1040   -2.6140   -2.0590 c3        1 SPI      0.068000
     15 N2         -2.4510   -3.0450   -3.2660 n         1 SPI     -0.391800
     16 C10        -1.6410   -2.0070   -3.8660 c3        1 SPI      0.063000
     17 C11        -0.6420   -1.3620   -2.8840 c3        1 SPI      0.174800
     18 C12        -1.9980   -4.3830   -3.2850 c         1 SPI      0.718100
     19 O4         -2.3280   -5.2600   -2.4690 o         1 SPI     -0.576000
     20 O5         -1.1830   -4.6920   -4.3350 os        1 SPI     -0.417900
     21 C13        -0.8840   -6.1080   -4.4840 c3        1 SPI      0.200700
     22 C14         0.0270   -6.2170   -5.6570 ca        1 SPI     -0.120300
     23 C15         1.3600   -6.6010   -5.4740 ca        1 SPI     -0.102500
     24 C16         2.1990   -6.7470   -6.5780 ca        1 SPI     -0.131500
     25 C17         1.7150   -6.5030   -7.8630 ca        1 SPI     -0.106000
     26 C18         0.3880   -6.1120   -8.0470 ca        1 SPI     -0.131500
     27 C19        -0.4560   -5.9700   -6.9470 ca        1 SPI     -0.102500
     28 C20        -3.0160   -1.3010    0.0130 c         1 SPI      0.547100
     29 NA         -2.9460   -1.8170    1.4530 n4        1 SPI     -0.455300
     30 OA         -4.0270   -1.4890    2.1950 oh        1 SPI     -0.360300
     31 OB         -3.8000   -0.3870   -0.1740 o         1 SPI     -0.419100
     32 HC21       -2.4690    1.6200   -0.9070 ha        1 SPI      0.155000
     33 HC31       -2.5880    3.8910   -1.9380 ha        1 SPI      0.170500
     34 HC51        1.6670    3.6770   -2.8250 ha        1 SPI      0.170500
     35 HC61        1.7660    1.4250   -1.8010 ha        1 SPI      0.155000
     36 HC71        0.9220    5.2210   -4.3750 h1        1 SPI      0.065033
     37 HC72        0.1020    6.7930   -3.8730 h1        1 SPI      0.065033
     38 HC73        1.2790    5.9600   -2.7260 h1        1 SPI      0.065033
     39 HC81       -1.5870   -2.8860   -0.4880 h1        1 SPI      0.078700
     40 HC91       -3.8500   -1.8180   -2.3460 h1        1 SPI      0.099200
     41 HC92       -3.6400   -3.4820   -1.5810 h1        1 SPI      0.099200
     42 H101       -1.0610   -2.4290   -4.7360 h1        1 SPI      0.097700
     43 H102       -2.3490   -1.2200   -4.2540 h1        1 SPI      0.097700
     44 H111       -0.3420   -0.3650   -3.3210 h1        1 SPI      0.073200
     45 H112        0.2790   -2.0180   -2.8290 h1        1 SPI      0.073200
     46 H131       -0.4080   -6.4690   -3.5350 h1        1 SPI      0.069700
     47 H132       -1.8520   -6.6500   -4.6520 h1        1 SPI      0.069700
     48 H151        1.7450   -6.7960   -4.4620 ha        1 SPI      0.135500
     49 H161        3.2450   -7.0590   -6.4330 ha        1 SPI      0.142000
     50 H171        2.3800   -6.6210   -8.7330 ha        1 SPI      0.143000
     51 H181        0.0060   -5.9200   -9.0610 ha        1 SPI      0.142000
     52 H191       -1.5030   -5.6630   -7.0880 ha        1 SPI      0.135500
     53 HNA        -2.9010   -2.8530    1.4690 hn        1 SPI      0.501300
     54 HOA        -4.2510   -0.5420    2.0250 ho        1 SPI      0.484000
     55 HA2        -2.0780   -1.4180    1.8890 hn        1 SPI      0.501300
@<TRIPOS>BOND
     1    1    2 2   
     2    1    3 2   
     3    1    4 1   
     4    1   12 1   
     5    4    5 ar  
     6    4    9 ar  
     7    5    6 ar  
     8    5   32 1   
     9    6    7 ar  
    10    6   33 1   
    11    7    8 ar  
    12    7   10 1   
    13    8    9 ar  
    14    8   34 1   
    15    9   35 1   
    16   10   11 1   
    17   11   36 1   
    18   11   37 1   
    19   11   38 1   
    20   12   13 1   
    21   12   17 1   
    22   13   14 1   
    23   13   28 1   
    24   13   39 1   
    25   14   15 1   
    26   14   40 1   
    27   14   41 1   
    28   15   16 1   
    29   15   18 1   
    30   16   17 1   
    31   16   42 1   
    32   16   43 1   
    33   17   44 1   
    34   17   45 1   
    35   18   19 2   
    36   18   20 1   
    37   20   21 1   
    38   21   22 1   
    39   21   46 1   
    40   21   47 1   
    41   22   23 ar  
    42   22   27 ar  
    43   23   24 ar  
    44   23   48 1   
    45   24   25 ar  
    46   24   49 1   
    47   25   26 ar  
    48   25   50 1   
    49   26   27 ar  
    50   26   51 1   
    51   27   52 1   
    52   28   29 1   
    53   28   31 2   
    54   29   30 1   
    55   29   53 1   
    56   29   55 1   
    57   30   54 1   
@<TRIPOS>SUBSTRUCTURE
     1 SPI         1 TEMP              0 ****  ****    0 ROOT
