@<TRIPOS>MOLECULE
SPI
   55    57     1     0     0
SMALL
bcc


@<TRIPOS>ATOM
      1 S1         -0.2390   -0.0960   -0.5600 sy        1 SPI      1.549200
      2 O1          1.0860   -0.5300   -0.4550 o         1 SPI     -0.679800
      3 O2         -0.9920   -0.1400    0.6640 o         1 SPI     -0.679800
      4 C1         -0.3510    1.3580   -1.2890 ca        1 SPI     -0.506500
      5 C2         -1.5680    2.0720   -1.3370 ca        1 SPI      0.037000
      6 C3         -1.6520    3.3280   -1.9010 ca        1 SPI     -0.211000
      7 C4         -0.4850    3.9200   -2.4450 ca        1 SPI      0.236100
      8 C5          0.7410    3.2300   -2.4100 ca        1 SPI     -0.211000
      9 C6          0.7920    1.9700   -1.8390 ca        1 SPI      0.037000
     10 O3         -0.6640    5.1600   -2.9780 os        1 SPI     -0.299900
     11 C7          0.4890    5.8130   -3.5200 c3        1 SPI      0.103700
     12 N1         -1.1110   -1.1310   -1.5370 n3        1 SPI     -0.801500
     13 C8         -2.1040   -2.0230   -1.0030 c3        1 SPI      0.177500
     14 C9         -3.0980   -2.6200   -2.0620 c3        1 SPI      0.068000
     15 N2         -2.4450   -3.0480   -3.2690 n         1 SPI     -0.391800
     16 C10        -1.6360   -2.0080   -3.8670 c3        1 SPI      0.063000
     17 C11        -0.6380   -1.3630   -2.8840 c3        1 SPI      0.174800
     18 C12        -1.9900   -4.3850   -3.2890 c         1 SPI      0.718100
     19 O4         -2.3190   -5.2640   -2.4750 o         1 SPI     -0.576000
     20 O5         -1.1750   -4.6910   -4.3400 os        1 SPI     -0.417900
     21 C13        -0.8740   -6.1070   -4.4910 c3        1 SPI      0.200700
     22 C14         0.0380   -6.2130   -5.6630 ca        1 SPI     -0.119300
     23 C15         1.3670   -6.6090   -5.4820 ca        1 SPI     -0.103000
     24 C16         2.2080   -6.7540   -6.5850 ca        1 SPI     -0.131500
     25 C17         1.7280   -6.4950   -7.8690 ca        1 SPI     -0.106000
     26 C18         0.4050   -6.0910   -8.0520 ca        1 SPI     -0.131500
     27 C19        -0.4400   -5.9520   -6.9520 ca        1 SPI     -0.103000
     28 C20        -3.0130   -1.3100    0.0130 c         1 SPI      0.548100
     29 NA         -2.9410   -1.8280    1.4530 n4        1 SPI     -0.455300
     30 OA         -4.0220   -1.5040    2.1950 oh        1 SPI     -0.360300
     31 OB         -3.7990   -0.3990   -0.1720 o         1 SPI     -0.418100
     32 HC21       -2.4750    1.6130   -0.9040 ha        1 SPI      0.155000
     33 HC31       -2.6020    3.8840   -1.9350 ha        1 SPI      0.170500
     34 HC51        1.6540    3.6830   -2.8250 ha        1 SPI      0.170500
     35 HC61        1.7590    1.4310   -1.8010 ha        1 SPI      0.155000
     36 HC71        0.0770    6.7940   -3.8710 h1        1 SPI      0.065033
     37 HC72        1.2590    5.9650   -2.7250 h1        1 SPI      0.065033
     38 HC73        0.9020    5.2250   -4.3740 h1        1 SPI      0.065033
     39 HC81       -1.5810   -2.8910   -0.4910 h1        1 SPI      0.078700
     40 HC91       -3.6340   -3.4890   -1.5840 h1        1 SPI      0.099200
     41 HC92       -3.8450   -1.8240   -2.3480 h1        1 SPI      0.099200
     42 H101       -2.3440   -1.2210   -4.2540 h1        1 SPI      0.097700
     43 H102       -1.0550   -2.4280   -4.7370 h1        1 SPI      0.097700
     44 H111        0.2830   -2.0190   -2.8280 h1        1 SPI      0.073200
     45 H112       -0.3380   -0.3650   -3.3200 h1        1 SPI      0.073200
     46 H131       -1.8410   -6.6500   -4.6610 h1        1 SPI      0.069700
     47 H132       -0.3990   -6.4690   -3.5420 h1        1 SPI      0.069700
     48 H151        1.7490   -6.8160   -4.4710 ha        1 SPI      0.135500
     49 H161        3.2510   -7.0740   -6.4410 ha        1 SPI      0.142000
     50 H171        2.3930   -6.6110   -8.7390 ha        1 SPI      0.143000
     51 H181        0.0250   -5.8890   -9.0650 ha        1 SPI      0.142000
     52 H191       -1.4850   -5.6360   -7.0920 ha        1 SPI      0.135500
     53 HNA        -2.0740   -1.4270    1.8890 hn        1 SPI      0.501300
     54 HOA        -4.2500   -0.5570    2.0260 ho        1 SPI      0.484000
     55 HA2        -2.8920   -2.8640    1.4670 hn        1 SPI      0.501300
@<TRIPOS>BOND
     1    1    2 2   
     2    1    3 2   
     3    1    4 1   
     4    1   12 1   
     5    4    5 ar  
     6    4    9 ar  
     7    5    6 ar  
     8    5   32 1   
     9    6    7 ar  
    10    6   33 1   
    11    7    8 ar  
    12    7   10 1   
    13    8    9 ar  
    14    8   34 1   
    15    9   35 1   
    16   10   11 1   
    17   11   36 1   
    18   11   37 1   
    19   11   38 1   
    20   12   13 1   
    21   12   17 1   
    22   13   14 1   
    23   13   28 1   
    24   13   39 1   
    25   14   15 1   
    26   14   40 1   
    27   14   41 1   
    28   15   16 1   
    29   15   18 1   
    30   16   17 1   
    31   16   42 1   
    32   16   43 1   
    33   17   44 1   
    34   17   45 1   
    35   18   19 2   
    36   18   20 1   
    37   20   21 1   
    38   21   22 1   
    39   21   46 1   
    40   21   47 1   
    41   22   23 ar  
    42   22   27 ar  
    43   23   24 ar  
    44   23   48 1   
    45   24   25 ar  
    46   24   49 1   
    47   25   26 ar  
    48   25   50 1   
    49   26   27 ar  
    50   26   51 1   
    51   27   52 1   
    52   28   29 1   
    53   28   31 2   
    54   29   30 1   
    55   29   53 1   
    56   29   55 1   
    57   30   54 1   
@<TRIPOS>SUBSTRUCTURE
     1 SPI         1 TEMP              0 ****  ****    0 ROOT
