@<TRIPOS>MOLECULE
SPI
   54    56     1     0     0
SMALL
bcc


@<TRIPOS>ATOM
      1 S1         -0.3410    1.5330   -2.0800 sy        1 SPI      1.522200
      2 O1          0.0970    2.7970   -1.6270 o         1 SPI     -0.660300
      3 O2         -1.5090    1.5250   -2.8770 o         1 SPI     -0.660300
      4 C1          0.9200    0.7890   -2.8770 ca        1 SPI     -0.445500
      5 C2          0.7090   -0.3200   -3.7130 ca        1 SPI      0.025500
      6 C3          1.7520   -0.9080   -4.4110 ca        1 SPI     -0.212500
      7 C4          3.0520   -0.3800   -4.2770 ca        1 SPI      0.197100
      8 C5          3.2880    0.7290   -3.4470 ca        1 SPI     -0.212500
      9 C6          2.2230    1.2960   -2.7610 ca        1 SPI      0.025500
     10 O3          4.0200   -1.0270   -5.0030 os        1 SPI     -0.316900
     11 C7          5.3440   -0.5060   -4.9110 c3        1 SPI      0.109700
     12 N1         -0.6260    0.5710   -0.7750 n3        1 SPI     -0.807500
     13 C8         -1.7560   -0.3120   -0.5920 c3        1 SPI      0.155500
     14 C9         -1.4210   -1.5990    0.2270 c3        1 SPI      0.059000
     15 N2         -0.6310   -1.3610    1.4160 n         1 SPI     -0.393800
     16 C10         0.5250   -0.5230    1.1750 c3        1 SPI      0.061000
     17 C11         0.1900    0.7680    0.4000 c3        1 SPI      0.190800
     18 C12        -1.3290   -1.2470    2.6260 c         1 SPI      0.718100
     19 O4         -2.4650   -1.6830    2.8740 o         1 SPI     -0.575000
     20 O5         -0.6130   -0.6680    3.6520 os        1 SPI     -0.439900
     21 C13        -1.2580   -0.7230    4.9440 c3        1 SPI      0.195700
     22 C14        -0.3390   -0.0780    5.9250 ca        1 SPI     -0.097300
     23 C15        -0.8820    0.6830    6.9670 ca        1 SPI     -0.111500
     24 C16        -0.0440    1.2570    7.9210 ca        1 SPI     -0.131500
     25 C17         1.3380    1.0830    7.8350 ca        1 SPI     -0.123000
     26 C18         1.8810    0.3320    6.7940 ca        1 SPI     -0.131500
     27 C19         1.0460   -0.2490    5.8410 ca        1 SPI     -0.111500
     28 C20        -2.3680   -0.8340   -1.9140 c         1 SPI      0.579100
     29 NA         -3.6280   -0.2830   -2.2920 n         1 SPI     -0.324400
     30 OA         -4.0760   -0.7070   -3.4770 oh        1 SPI     -0.425100
     31 OB         -1.8770   -1.8110   -2.5040 o         1 SPI     -0.566100
     32 HC21       -0.3120   -0.7340   -3.8200 ha        1 SPI      0.163000
     33 HC31        1.5830   -1.7760   -5.0650 ha        1 SPI      0.155500
     34 HC51        4.2960    1.1520   -3.3410 ha        1 SPI      0.155500
     35 HC61        2.4000    2.1780   -2.1180 ha        1 SPI      0.163000
     36 HC71        5.9320   -1.1800   -5.5850 h1        1 SPI      0.052033
     37 HC72        5.3770    0.5480   -5.2790 h1        1 SPI      0.052033
     38 HC73        5.7190   -0.5710   -3.8610 h1        1 SPI      0.052033
     39 HC81       -2.5510    0.2600   -0.0180 h1        1 SPI      0.071700
     40 HC91       -0.8240   -2.3010   -0.4250 h1        1 SPI      0.097200
     41 HC92       -2.3940   -2.0940    0.5030 h1        1 SPI      0.097200
     42 H101        1.2520   -1.1430    0.5770 h1        1 SPI      0.080200
     43 H102        1.0120   -0.2360    2.1480 h1        1 SPI      0.080200
     44 H111        1.1640    1.2440    0.0860 h1        1 SPI      0.061700
     45 H112       -0.3340    1.4840    1.1000 h1        1 SPI      0.061700
     46 H131       -2.2420   -0.1880    4.8730 h1        1 SPI      0.066200
     47 H132       -1.4390   -1.8000    5.2060 h1        1 SPI      0.066200
     48 H151       -1.9710    0.8270    7.0340 ha        1 SPI      0.138000
     49 H161       -0.4740    1.8510    8.7410 ha        1 SPI      0.133500
     50 H171        1.9970    1.5390    8.5880 ha        1 SPI      0.133000
     51 H181        2.9700    0.1960    6.7230 ha        1 SPI      0.133500
     52 H191        1.4690   -0.8400    5.0140 ha        1 SPI      0.138000
     53 HNA        -3.5830    0.7370   -2.3350 hn        1 SPI      0.330500
     54 HOA        -4.3890   -1.6220   -3.3320 ho        1 SPI      0.425000
@<TRIPOS>BOND
     1    1    2 2   
     2    1    3 2   
     3    1    4 1   
     4    1   12 1   
     5    4    5 ar  
     6    4    9 ar  
     7    5    6 ar  
     8    5   32 1   
     9    6    7 ar  
    10    6   33 1   
    11    7    8 ar  
    12    7   10 1   
    13    8    9 ar  
    14    8   34 1   
    15    9   35 1   
    16   10   11 1   
    17   11   36 1   
    18   11   37 1   
    19   11   38 1   
    20   12   13 1   
    21   12   17 1   
    22   13   14 1   
    23   13   28 1   
    24   13   39 1   
    25   14   15 1   
    26   14   40 1   
    27   14   41 1   
    28   15   16 1   
    29   15   18 1   
    30   16   17 1   
    31   16   42 1   
    32   16   43 1   
    33   17   44 1   
    34   17   45 1   
    35   18   19 2   
    36   18   20 1   
    37   20   21 1   
    38   21   22 1   
    39   21   46 1   
    40   21   47 1   
    41   22   23 ar  
    42   22   27 ar  
    43   23   24 ar  
    44   23   48 1   
    45   24   25 ar  
    46   24   49 1   
    47   25   26 ar  
    48   25   50 1   
    49   26   27 ar  
    50   26   51 1   
    51   27   52 1   
    52   28   29 1   
    53   28   31 2   
    54   29   30 1   
    55   29   53 1   
    56   30   54 1   
@<TRIPOS>SUBSTRUCTURE
     1 SPI         1 TEMP              0 ****  ****    0 ROOT
