@<TRIPOS>MOLECULE
SPJ
   46    45     1     0     0
SMALL
bcc


@<TRIPOS>ATOM
      1 N1B        -7.0470   -1.1250   -0.9280 n3        1 SPJ     -0.909800
      2 C1C        -6.8320   -0.2110    0.1830 c3        1 SPJ      0.167000
      3 C1A        -8.0000    0.7630    0.3450 c3        1 SPJ     -0.113600
      4 C1D        -5.5390    0.6030    0.0220 c3        1 SPJ     -0.079400
      5 C1E        -4.3040   -0.2890    0.1140 c3        1 SPJ      0.164300
      6 N1F        -3.0740    0.4660    0.2590 n3        1 SPJ     -0.826200
      7 C1G        -1.8870   -0.3580    0.1410 c3        1 SPJ      0.164300
      8 C1H        -0.5960    0.4560    0.0900 c3        1 SPJ     -0.083400
      9 C1I         0.5980   -0.4730    0.0330 c3        1 SPJ     -0.083400
     10 C1J         1.8900    0.3410   -0.0250 c3        1 SPJ      0.164300
     11 N1K         3.0770   -0.4840   -0.1320 n3        1 SPJ     -0.826200
     12 C1L         4.3050    0.2780   -0.0040 c3        1 SPJ      0.164300
     13 C1M         5.5490   -0.6060   -0.0010 c3        1 SPJ     -0.079400
     14 C1N         6.8200    0.2240    0.2330 c3        1 SPJ      0.167000
     15 C1P         7.9860   -0.7440    0.4510 c3        1 SPJ     -0.113600
     16 N1O         7.0400    1.2130   -0.8070 n3        1 SPJ     -0.909800
     17 HN1B       -6.3160   -1.8070   -0.9610 hn        1 SPJ      0.347800
     18 HN1A       -7.9290   -1.5870   -0.8300 hn        1 SPJ      0.347800
     19 H1C        -6.7410   -0.7830    1.1620 h1        1 SPJ      0.032700
     20 H1A        -8.1050    1.4100   -0.5580 hc        1 SPJ      0.038367
     21 H1AA       -8.9590    0.2120    0.5020 hc        1 SPJ      0.038367
     22 H1AB       -7.8160    1.4140    1.2330 hc        1 SPJ      0.038367
     23 H1D        -5.5500    1.1450   -0.9590 hc        1 SPJ      0.050950
     24 H1DA       -5.5160    1.3730    0.8380 hc        1 SPJ      0.050950
     25 H1E        -4.3920   -0.9530    1.0210 h1        1 SPJ      0.032950
     26 H1EA       -4.2730   -0.9660   -0.7910 h1        1 SPJ      0.032950
     27 HN1F       -3.0460    1.2230   -0.3990 hn        1 SPJ      0.353800
     28 H1G        -1.8600   -1.0340    1.0420 h1        1 SPJ      0.028950
     29 H1GA       -1.9210   -1.0270   -0.7720 h1        1 SPJ      0.028950
     30 H1H        -0.5970    1.1230   -0.8110 hc        1 SPJ      0.046950
     31 H1HA       -0.5220    1.1140    0.9950 hc        1 SPJ      0.046950
     32 H1I         0.6020   -1.1370    0.9370 hc        1 SPJ      0.046950
     33 H1IA        0.5230   -1.1350   -0.8690 hc        1 SPJ      0.046950
     34 H1J         1.8630    1.0070   -0.9340 h1        1 SPJ      0.028950
     35 H1JA        1.9230    1.0190    0.8810 h1        1 SPJ      0.028950
     36 HN1K        3.0510   -1.2270    0.5420 hn        1 SPJ      0.353800
     37 H1L         4.3510    0.9840   -0.8810 h1        1 SPJ      0.032950
     38 H1LA        4.3160    0.9110    0.9330 h1        1 SPJ      0.032950
     39 H1M         5.4800   -1.3660    0.8210 hc        1 SPJ      0.050950
     40 H1MA        5.6270   -1.1640   -0.9700 hc        1 SPJ      0.050950
     41 H1N         6.6800    0.8120    1.1910 h1        1 SPJ      0.032700
     42 H1P         8.1410   -1.3890   -0.4470 hc        1 SPJ      0.038367
     43 H1PA        8.9310   -0.1860    0.6560 hc        1 SPJ      0.038367
     44 H1PB        7.7720   -1.4030    1.3260 hc        1 SPJ      0.038367
     45 HN1O        7.9410    1.6350   -0.6940 hn        1 SPJ      0.347800
     46 HN1C        6.9910    0.7920   -1.7140 hn        1 SPJ      0.347800
@<TRIPOS>BOND
     1    1    2 1   
     2    1   17 1   
     3    1   18 1   
     4    2    3 1   
     5    2    4 1   
     6    2   19 1   
     7    3   20 1   
     8    3   21 1   
     9    3   22 1   
    10    4    5 1   
    11    4   23 1   
    12    4   24 1   
    13    5    6 1   
    14    5   25 1   
    15    5   26 1   
    16    6    7 1   
    17    6   27 1   
    18    7    8 1   
    19    7   28 1   
    20    7   29 1   
    21    8    9 1   
    22    8   30 1   
    23    8   31 1   
    24    9   10 1   
    25    9   32 1   
    26    9   33 1   
    27   10   11 1   
    28   10   34 1   
    29   10   35 1   
    30   11   12 1   
    31   11   36 1   
    32   12   13 1   
    33   12   37 1   
    34   12   38 1   
    35   13   14 1   
    36   13   39 1   
    37   13   40 1   
    38   14   15 1   
    39   14   16 1   
    40   14   41 1   
    41   15   42 1   
    42   15   43 1   
    43   15   44 1   
    44   16   45 1   
    45   16   46 1   
@<TRIPOS>SUBSTRUCTURE
     1 SPJ         1 TEMP              0 ****  ****    0 ROOT
