@<TRIPOS>MOLECULE
SPJ
   50    49     1     0     0
SMALL
bcc


@<TRIPOS>ATOM
      1 N1B         1.0800   -0.0360    1.5300 nz        1 SPJ     -0.845600
      2 C1C         1.0530   -0.0880    0.0240 c3        1 SPJ      0.140500
      3 C1A         1.8310   -1.3030   -0.4700 c3        1 SPJ     -0.152100
      4 C1D         1.6000    1.2150   -0.5910 c3        1 SPJ     -0.138400
      5 C1E         1.2440    1.2780   -2.0790 c3        1 SPJ      0.110800
      6 N1F         1.7440    2.5250   -2.7480 ny        1 SPJ     -0.765000
      7 C1G         1.3990    2.5520   -4.2090 c3        1 SPJ      0.107800
      8 C1H         1.9040    3.8090   -4.9230 c3        1 SPJ     -0.106400
      9 C1I         1.5180    3.7560   -6.3950 c3        1 SPJ     -0.106400
     10 C1J         2.0280    5.0110   -7.1100 c3        1 SPJ      0.107800
     11 N1K         1.6910    5.0330   -8.5730 ny        1 SPJ     -0.765000
     12 C1L         2.2090    6.2700   -9.2460 c3        1 SPJ      0.110800
     13 C1M         1.8980    6.3090  -10.7450 c3        1 SPJ     -0.138400
     14 C1N         2.4590    7.6040  -11.3640 c3        1 SPJ      0.140500
     15 C1P         3.9820    7.5740  -11.4270 c3        1 SPJ     -0.152100
     16 N1O         1.8900    7.8450  -12.7390 nz        1 SPJ     -0.845600
     17 HN1B        0.5320    0.7570    1.8830 hn        1 SPJ      0.480800
     18 HN1A        0.6770   -0.9100    1.9030 hn        1 SPJ      0.480800
     19 H1C        -0.0410   -0.2020   -0.2590 hx        1 SPJ      0.123700
     20 H1A         1.4800   -2.2470    0.0250 hc        1 SPJ      0.098033
     21 H1AA        1.6570   -1.4310   -1.5670 hc        1 SPJ      0.098033
     22 H1AB        2.9290   -1.1940   -0.2890 hc        1 SPJ      0.098033
     23 H1D         1.1630    2.1060   -0.0620 hc        1 SPJ      0.094200
     24 H1DA        2.7170    1.2450   -0.4580 hc        1 SPJ      0.094200
     25 H1E         0.1220    1.2460   -2.2100 hx        1 SPJ      0.126200
     26 H1EA        1.6970    0.3960   -2.6220 hx        1 SPJ      0.126200
     27 HN1F        1.3340    3.3480   -2.2870 hn        1 SPJ      0.464300
     28 H1G         0.2750    2.4860   -4.2960 hx        1 SPJ      0.122200
     29 H1GA        1.8520    1.6320   -4.6840 hx        1 SPJ      0.122200
     30 H1H         1.4580    4.7270   -4.4520 hc        1 SPJ      0.087700
     31 H1HA        3.0220    3.8840   -4.8310 hc        1 SPJ      0.087700
     32 H1I         1.9620    2.8360   -6.8650 hc        1 SPJ      0.087700
     33 H1IA        0.4010    3.6850   -6.4870 hc        1 SPJ      0.087700
     34 H1J         1.5720    5.9320   -6.6410 hx        1 SPJ      0.122200
     35 H1JA        3.1510    5.0770   -7.0170 hx        1 SPJ      0.122200
     36 HN1K        0.6690    4.9850   -8.6870 hn        1 SPJ      0.464300
     37 H1L         3.3280    6.3010   -9.0850 hx        1 SPJ      0.126200
     38 H1LA        1.7440    7.1620   -8.7310 hx        1 SPJ      0.126200
     39 H1M         0.7850    6.2570  -10.8990 hc        1 SPJ      0.094200
     40 H1MA        2.3610    5.4230  -11.2610 hc        1 SPJ      0.094200
     41 H1N         2.1270    8.4900  -10.7360 hx        1 SPJ      0.123700
     42 H1P         4.3930    8.4850  -11.9360 hc        1 SPJ      0.098033
     43 H1PA        4.3940    7.5740  -10.3870 hc        1 SPJ      0.098033
     44 H1PB        4.3570    6.6680  -11.9640 hc        1 SPJ      0.098033
     45 HN1O        0.8670    7.9030  -12.7110 hn        1 SPJ      0.480800
     46 HN1C        2.2640    8.7350  -13.1050 hn        1 SPJ      0.480800
     47 H1B3        2.0460    0.0430    1.8730 hn        1 SPJ      0.480800
     48 H1F2        2.7660    2.5810   -2.6400 hn        1 SPJ      0.464300
     49 H1K2        2.0970    4.2040   -9.0270 hn        1 SPJ      0.464300
     50 H1O3        2.1670    7.0930  -13.3830 hn        1 SPJ      0.480800
@<TRIPOS>BOND
     1    1    2 1   
     2    1   17 1   
     3    1   18 1   
     4    1   47 1   
     5    2    3 1   
     6    2    4 1   
     7    2   19 1   
     8    3   20 1   
     9    3   21 1   
    10    3   22 1   
    11    4    5 1   
    12    4   23 1   
    13    4   24 1   
    14    5    6 1   
    15    5   25 1   
    16    5   26 1   
    17    6    7 1   
    18    6   27 1   
    19    6   48 1   
    20    7    8 1   
    21    7   28 1   
    22    7   29 1   
    23    8    9 1   
    24    8   30 1   
    25    8   31 1   
    26    9   10 1   
    27    9   32 1   
    28    9   33 1   
    29   10   11 1   
    30   10   34 1   
    31   10   35 1   
    32   11   12 1   
    33   11   36 1   
    34   11   49 1   
    35   12   13 1   
    36   12   37 1   
    37   12   38 1   
    38   13   14 1   
    39   13   39 1   
    40   13   40 1   
    41   14   15 1   
    42   14   16 1   
    43   14   41 1   
    44   15   42 1   
    45   15   43 1   
    46   15   44 1   
    47   16   45 1   
    48   16   46 1   
    49   16   50 1   
@<TRIPOS>SUBSTRUCTURE
     1 SPJ         1 TEMP              0 ****  ****    0 ROOT
