@<TRIPOS>MOLECULE
SPJ
   50    49     1     0     0
SMALL
bcc


@<TRIPOS>ATOM
      1 N1B         1.0150   -0.0270    1.5280 n4        1 SPJ     -0.845600
      2 C1C         1.0400   -0.0880    0.0210 c3        1 SPJ      0.140500
      3 C1A         1.8870   -1.2690   -0.4390 c3        1 SPJ     -0.152100
      4 C1D         1.5470    1.2350   -0.5850 c3        1 SPJ     -0.138400
      5 C1E         1.2350    1.2740   -2.0830 c3        1 SPJ      0.110800
      6 N1F         1.7020    2.5370   -2.7450 n4        1 SPJ     -0.765000
      7 C1G         1.4010    2.5420   -4.2160 c3        1 SPJ      0.107800
      8 C1H         1.8750    3.8150   -4.9230 c3        1 SPJ     -0.106400
      9 C1I         1.5350    3.7390   -6.4050 c3        1 SPJ     -0.106400
     10 C1J         2.0150    5.0090   -7.1130 c3        1 SPJ      0.107800
     11 N1K         1.7200    5.0110   -8.5850 n4        1 SPJ     -0.765000
     12 C1L         2.2100    6.2630   -9.2520 c3        1 SPJ      0.110800
     13 C1M         1.9390    6.2810  -10.7590 c3        1 SPJ     -0.138400
     14 C1N         2.4700    7.5930  -11.3700 c3        1 SPJ      0.140500
     15 C1P         3.9940    7.6150  -11.3940 c3        1 SPJ     -0.152100
     16 N1O         1.9290    7.8070  -12.7620 n4        1 SPJ     -0.845600
     17 HN1B        0.6410   -0.9170    1.8930 hn        1 SPJ      0.480800
     18 HN1A        0.4210    0.7420    1.8570 hn        1 SPJ      0.480800
     19 H1C        -0.0380   -0.2530   -0.2960 hx        1 SPJ      0.123700
     20 H1A         1.5630   -2.2260    0.0510 hc        1 SPJ      0.098033
     21 H1AA        2.9730   -1.1100   -0.2230 hc        1 SPJ      0.098033
     22 H1AB        1.7550   -1.4110   -1.5400 hc        1 SPJ      0.098033
     23 H1D         1.0540    2.1080   -0.0760 hc        1 SPJ      0.094200
     24 H1DA        2.6570    1.3150   -0.4170 hc        1 SPJ      0.094200
     25 H1E         0.1200    1.1930   -2.2490 hx        1 SPJ      0.126200
     26 H1EA        1.7420    0.4100   -2.6060 hx        1 SPJ      0.126200
     27 HN1F        2.7170    2.6380   -2.6070 hn        1 SPJ      0.464300
     28 H1G         1.9050    1.6400   -4.6710 hx        1 SPJ      0.122200
     29 H1GA        0.2830    2.4290   -4.3360 hx        1 SPJ      0.122200
     30 H1H         2.9860    3.9360   -4.7990 hc        1 SPJ      0.087700
     31 H1HA        1.3790    4.7170   -4.4710 hc        1 SPJ      0.087700
     32 H1I         2.0280    2.8350   -6.8560 hc        1 SPJ      0.087700
     33 H1IA        0.4240    3.6230   -6.5290 hc        1 SPJ      0.087700
     34 H1J         1.5110    5.9140   -6.6630 hx        1 SPJ      0.122200
     35 H1JA        3.1320    5.1190   -6.9890 hx        1 SPJ      0.122200
     36 HN1K        0.7050    4.9230   -8.7280 hn        1 SPJ      0.464300
     37 H1L         3.3210    6.3370   -9.0590 hx        1 SPJ      0.126200
     38 H1LA        1.6970    7.1390   -8.7550 hx        1 SPJ      0.126200
     39 H1M         2.4480    5.4100  -11.2560 hc        1 SPJ      0.094200
     40 H1MA        0.8330    6.1890  -10.9430 hc        1 SPJ      0.094200
     41 H1N         2.0920    8.4700  -10.7560 hx        1 SPJ      0.123700
     42 H1P         4.3860    8.5380  -11.8970 hc        1 SPJ      0.098033
     43 H1PA        4.4150    6.7210  -11.9180 hc        1 SPJ      0.098033
     44 H1PB        4.3790    7.6330  -10.3440 hc        1 SPJ      0.098033
     45 HN1O        2.2490    7.0620  -13.3930 hn        1 SPJ      0.480800
     46 HN1C        0.9040    7.8300  -12.7600 hn        1 SPJ      0.480800
     47 H1B3        1.9650    0.0980    1.9010 hn        1 SPJ      0.480800
     48 H1F2        1.2440    3.3450   -2.3020 hn        1 SPJ      0.464300
     49 H1K2        2.1700    4.1950   -9.0220 hn        1 SPJ      0.464300
     50 H1O3        2.2810    8.7080  -13.1230 hn        1 SPJ      0.480800
@<TRIPOS>BOND
     1    1    2 1   
     2    1   17 1   
     3    1   18 1   
     4    1   47 1   
     5    2    3 1   
     6    2    4 1   
     7    2   19 1   
     8    3   20 1   
     9    3   21 1   
    10    3   22 1   
    11    4    5 1   
    12    4   23 1   
    13    4   24 1   
    14    5    6 1   
    15    5   25 1   
    16    5   26 1   
    17    6    7 1   
    18    6   27 1   
    19    6   48 1   
    20    7    8 1   
    21    7   28 1   
    22    7   29 1   
    23    8    9 1   
    24    8   30 1   
    25    8   31 1   
    26    9   10 1   
    27    9   32 1   
    28    9   33 1   
    29   10   11 1   
    30   10   34 1   
    31   10   35 1   
    32   11   12 1   
    33   11   36 1   
    34   11   49 1   
    35   12   13 1   
    36   12   37 1   
    37   12   38 1   
    38   13   14 1   
    39   13   39 1   
    40   13   40 1   
    41   14   15 1   
    42   14   16 1   
    43   14   41 1   
    44   15   42 1   
    45   15   43 1   
    46   15   44 1   
    47   16   45 1   
    48   16   46 1   
    49   16   50 1   
@<TRIPOS>SUBSTRUCTURE
     1 SPJ         1 TEMP              0 ****  ****    0 ROOT
