@<TRIPOS>MOLECULE
SPJ
   46    45     1     0     0
SMALL
bcc


@<TRIPOS>ATOM
      1 N1B        -3.8420   -2.8360    5.6390 n3        1 SPJ     -0.903800
      2 C1C        -2.4290   -2.8360    5.6390 c3        1 SPJ      0.161000
      3 C1A        -1.9270   -2.8360    7.0620 c3        1 SPJ     -0.134100
      4 C1D        -1.9220   -1.5930    4.9220 c3        1 SPJ     -0.076400
      5 C1E        -1.6850   -1.9180    3.4370 c3        1 SPJ      0.164800
      6 N1F        -1.1690   -0.7430    2.7600 n3        1 SPJ     -0.827200
      7 C1G        -0.8470   -1.0790    1.3850 c3        1 SPJ      0.164300
      8 C1H        -0.0550    0.0830    0.7430 c3        1 SPJ     -0.083400
      9 C1I         0.1450   -0.1980   -0.7610 c3        1 SPJ     -0.083400
     10 C1J         0.9960    0.9290   -1.3880 c3        1 SPJ      0.164300
     11 N1K         1.1080    0.7120   -2.8190 n3        1 SPJ     -0.827200
     12 C1L         1.8100    1.8280   -3.4250 c3        1 SPJ      0.164800
     13 C1M         1.7000    1.7340   -4.9560 c3        1 SPJ     -0.076400
     14 C1N         2.5160    2.8480   -5.5930 c3        1 SPJ      0.161000
     15 C1P         3.1110    2.3580   -6.8910 c3        1 SPJ     -0.134100
     16 N1O         1.6800    3.9580   -5.8480 n3        1 SPJ     -0.903800
     17 HN1B       -4.1460   -3.6770    5.4620 hn        1 SPJ      0.345550
     18 HN1A       -4.1460   -2.5680    6.4560 hn        1 SPJ      0.345550
     19 H1C        -2.1030   -3.6330    5.1790 h1        1 SPJ      0.059200
     20 H1A        -0.9540   -2.9190    7.0630 hc        1 SPJ      0.037367
     21 H1AA       -2.1820   -2.0000    7.4970 hc        1 SPJ      0.037367
     22 H1AB       -2.3190   -3.5870    7.5450 hc        1 SPJ      0.037367
     23 H1D        -2.5850   -0.8800    4.9970 hc        1 SPJ      0.045950
     24 H1DA       -1.0830   -1.3020    5.3290 hc        1 SPJ      0.045950
     25 H1E        -1.0390   -2.6460    3.3630 h1        1 SPJ      0.038700
     26 H1EA       -2.5280   -2.1870    3.0250 h1        1 SPJ      0.038700
     27 HN1F       -1.7990   -0.0840    2.7720 hn        1 SPJ      0.351300
     28 H1G        -0.3050   -1.8910    1.3660 h1        1 SPJ      0.029700
     29 H1GA       -1.6710   -1.2260    0.8840 h1        1 SPJ      0.029700
     30 H1H         0.8150    0.1630    1.1770 hc        1 SPJ      0.046700
     31 H1HA       -0.5520    0.9160    0.8550 hc        1 SPJ      0.046700
     32 H1I        -0.7250   -0.2330   -1.2040 hc        1 SPJ      0.046700
     33 H1IA        0.6020   -1.0530   -0.8740 hc        1 SPJ      0.046700
     34 H1J         1.8870    0.9250   -0.9880 h1        1 SPJ      0.029700
     35 H1JA        0.5690    1.7910   -1.2220 h1        1 SPJ      0.029700
     36 HN1K        1.5700   -0.0590   -2.9750 hn        1 SPJ      0.351300
     37 H1L         1.4130    2.6660   -3.1210 h1        1 SPJ      0.038700
     38 H1LA        2.7510    1.8000   -3.1650 h1        1 SPJ      0.038700
     39 H1M         2.0410    0.8690   -5.2540 hc        1 SPJ      0.045950
     40 H1MA        0.7650    1.8230   -5.2210 hc        1 SPJ      0.045950
     41 H1N         3.2340    3.1140   -4.9870 h1        1 SPJ      0.059200
     42 H1P         3.7530    1.6460   -6.7060 hc        1 SPJ      0.037367
     43 H1PA        2.4000    2.0150   -7.4650 hc        1 SPJ      0.037367
     44 H1PB        3.5640    3.0970   -7.3400 hc        1 SPJ      0.037367
     45 HN1O        1.4700    3.9830   -6.7350 hn        1 SPJ      0.345550
     46 HN1C        2.1150    4.7260   -5.6180 hn        1 SPJ      0.345550
@<TRIPOS>BOND
     1    1    2 1   
     2    1   17 1   
     3    1   18 1   
     4    2    3 1   
     5    2    4 1   
     6    2   19 1   
     7    3   20 1   
     8    3   21 1   
     9    3   22 1   
    10    4    5 1   
    11    4   23 1   
    12    4   24 1   
    13    5    6 1   
    14    5   25 1   
    15    5   26 1   
    16    6    7 1   
    17    6   27 1   
    18    7    8 1   
    19    7   28 1   
    20    7   29 1   
    21    8    9 1   
    22    8   30 1   
    23    8   31 1   
    24    9   10 1   
    25    9   32 1   
    26    9   33 1   
    27   10   11 1   
    28   10   34 1   
    29   10   35 1   
    30   11   12 1   
    31   11   36 1   
    32   12   13 1   
    33   12   37 1   
    34   12   38 1   
    35   13   14 1   
    36   13   39 1   
    37   13   40 1   
    38   14   15 1   
    39   14   16 1   
    40   14   41 1   
    41   15   42 1   
    42   15   43 1   
    43   15   44 1   
    44   16   45 1   
    45   16   46 1   
@<TRIPOS>SUBSTRUCTURE
     1 SPJ         1 TEMP              0 ****  ****    0 ROOT
