@<TRIPOS>MOLECULE
SPJ
   50    49     1     0     0
SMALL
bcc


@<TRIPOS>ATOM
      1 N1B         1.1500    0.0460    1.5790 n4        1 SPJ     -0.845600
      2 C1C         1.0980   -0.0210    0.0740 c3        1 SPJ      0.140500
      3 C1A         1.8540   -1.2500   -0.4200 c3        1 SPJ     -0.152100
      4 C1D         1.6510    1.2700   -0.5630 c3        1 SPJ     -0.138400
      5 C1E         1.2730    1.3210   -2.0460 c3        1 SPJ      0.110800
      6 N1F         1.7760    2.5550   -2.7350 n4        1 SPJ     -0.765000
      7 C1G         1.4110    2.5710   -4.1910 c3        1 SPJ      0.107800
      8 C1H         1.9170    3.8160   -4.9250 c3        1 SPJ     -0.106400
      9 C1I         1.5110    3.7510   -6.3910 c3        1 SPJ     -0.106400
     10 C1J         2.0200    4.9950   -7.1260 c3        1 SPJ      0.107800
     11 N1K         1.6640    5.0050   -8.5840 n4        1 SPJ     -0.765000
     12 C1L         2.1830    6.2310   -9.2770 c3        1 SPJ      0.110800
     13 C1M         1.8520    6.2560  -10.7720 c3        1 SPJ     -0.138400
     14 C1N         2.4130    7.5420  -11.4110 c3        1 SPJ      0.140500
     15 C1P         3.9340    7.5020  -11.4920 c3        1 SPJ     -0.152100
     16 N1O         1.8290    7.7710  -12.7820 n4        1 SPJ     -0.845600
     17 HN1B        0.6160    0.8480    1.9320 hn        1 SPJ      0.480800
     18 HN1A        0.7430   -0.8200    1.9670 hn        1 SPJ      0.480800
     19 H1C        -0.0010   -0.1250   -0.1910 hx        1 SPJ      0.123700
     20 H1A         1.5020   -2.1840    0.0900 hc        1 SPJ      0.098033
     21 H1AA        1.6610   -1.3870   -1.5130 hc        1 SPJ      0.098033
     22 H1AB        2.9570   -1.1510   -0.2580 hc        1 SPJ      0.098033
     23 H1D         1.2310    2.1710   -0.0370 hc        1 SPJ      0.094200
     24 H1DA        2.7690    1.2890   -0.4460 hc        1 SPJ      0.094200
     25 H1E         0.1490    1.2980   -2.1600 hx        1 SPJ      0.126200
     26 H1EA        1.7100    0.4290   -2.5860 hx        1 SPJ      0.126200
     27 HN1F        1.3800    3.3880   -2.2770 hn        1 SPJ      0.464300
     28 H1G         0.2850    2.5140   -4.2610 hx        1 SPJ      0.122200
     29 H1GA        1.8490    1.6430   -4.6630 hx        1 SPJ      0.122200
     30 H1H         1.4850    4.7430   -4.4580 hc        1 SPJ      0.087700
     31 H1HA        3.0360    3.8820   -4.8490 hc        1 SPJ      0.087700
     32 H1I         1.9400    2.8230   -6.8570 hc        1 SPJ      0.087700
     33 H1IA        0.3910    3.6880   -6.4670 hc        1 SPJ      0.087700
     34 H1J         1.5780    5.9240   -6.6600 hx        1 SPJ      0.122200
     35 H1JA        3.1460    5.0520   -7.0480 hx        1 SPJ      0.122200
     36 HN1K        0.6410    4.9620   -8.6840 hn        1 SPJ      0.464300
     37 H1L         3.3030    6.2550   -9.1300 hx        1 SPJ      0.126200
     38 H1LA        1.7310    7.1310   -8.7650 hx        1 SPJ      0.126200
     39 H1M         0.7370    6.2090  -10.9110 hc        1 SPJ      0.094200
     40 H1MA        2.3040    5.3620  -11.2850 hc        1 SPJ      0.094200
     41 H1N         2.0930    8.4360  -10.7890 hx        1 SPJ      0.123700
     42 H1P         4.3440    8.4050  -12.0170 hc        1 SPJ      0.098033
     43 H1PA        4.3590    7.5110  -10.4570 hc        1 SPJ      0.098033
     44 H1PB        4.2980    6.5880  -12.0240 hc        1 SPJ      0.098033
     45 HN1O        0.8060    7.8350  -12.7420 hn        1 SPJ      0.480800
     46 HN1C        2.2030    8.6550  -13.1620 hn        1 SPJ      0.480800
     47 H1B3        2.1210    0.1170    1.9060 hn        1 SPJ      0.480800
     48 H1F2        2.8000    2.6030   -2.6420 hn        1 SPJ      0.464300
     49 H1K2        2.0580    4.1670   -9.0350 hn        1 SPJ      0.464300
     50 H1O3        2.0940    7.0110  -13.4210 hn        1 SPJ      0.480800
@<TRIPOS>BOND
     1    1    2 1   
     2    1   17 1   
     3    1   18 1   
     4    1   47 1   
     5    2    3 1   
     6    2    4 1   
     7    2   19 1   
     8    3   20 1   
     9    3   21 1   
    10    3   22 1   
    11    4    5 1   
    12    4   23 1   
    13    4   24 1   
    14    5    6 1   
    15    5   25 1   
    16    5   26 1   
    17    6    7 1   
    18    6   27 1   
    19    6   48 1   
    20    7    8 1   
    21    7   28 1   
    22    7   29 1   
    23    8    9 1   
    24    8   30 1   
    25    8   31 1   
    26    9   10 1   
    27    9   32 1   
    28    9   33 1   
    29   10   11 1   
    30   10   34 1   
    31   10   35 1   
    32   11   12 1   
    33   11   36 1   
    34   11   49 1   
    35   12   13 1   
    36   12   37 1   
    37   12   38 1   
    38   13   14 1   
    39   13   39 1   
    40   13   40 1   
    41   14   15 1   
    42   14   16 1   
    43   14   41 1   
    44   15   42 1   
    45   15   43 1   
    46   15   44 1   
    47   16   45 1   
    48   16   46 1   
    49   16   50 1   
@<TRIPOS>SUBSTRUCTURE
     1 SPJ         1 TEMP              0 ****  ****    0 ROOT
