@<TRIPOS>MOLECULE
SPK
   44    43     1     0     0
SMALL
bcc


@<TRIPOS>ATOM
      1 N1         -6.7210    0.0030   -4.2650 n4        1 SPK     -0.837600
      2 C2         -5.2820    0.0030   -4.2650 c3        1 SPK      0.105800
      3 C3         -4.7720    0.0030   -2.8260 c3        1 SPK     -0.138400
      4 C4         -3.2330   -0.0060   -2.8260 c3        1 SPK      0.108800
      5 N5         -2.7470    0.0020   -1.4560 n4        1 SPK     -0.764000
      6 C6         -1.2910   -0.0100   -1.4570 c3        1 SPK      0.107800
      7 C7         -0.7730    0.0060    0.0010 c3        1 SPK     -0.106400
      8 C8          0.7730   -0.0140   -0.0010 c3        1 SPK     -0.106400
      9 C9          1.2910    0.0100    1.4570 c3        1 SPK      0.107800
     10 N10         2.7470   -0.0170    1.4570 n4        1 SPK     -0.764000
     11 C11         3.2330    0.0150    2.8260 c3        1 SPK      0.108800
     12 C12         4.7720   -0.0140    2.8260 c3        1 SPK     -0.138400
     13 C13         5.2820    0.0170    4.2650 c3        1 SPK      0.105800
     14 N14         6.7210    0.0010    4.2650 n4        1 SPK     -0.837600
     15 H1A        -7.0250   -0.7430   -3.8370 hn        1 SPK      0.485467
     16 H1B        -7.0250    0.0050   -5.1250 hn        1 SPK      0.485467
     17 H1C        -7.0250    0.7460   -3.8330 hn        1 SPK      0.485467
     18 H2A        -4.9570   -0.7940   -4.7250 hx        1 SPK      0.131700
     19 H2B        -4.9570    0.7990   -4.7250 hx        1 SPK      0.131700
     20 H3A        -5.0930    0.8020   -2.3670 hc        1 SPK      0.098700
     21 H3B        -5.1020   -0.7920   -2.3640 hc        1 SPK      0.098700
     22 H4A        -2.9120   -0.8080   -3.2800 hx        1 SPK      0.127700
     23 H4B        -2.9030    0.7850   -3.2930 hx        1 SPK      0.127700
     24 H5A        -3.0440    0.7530   -1.0330 hn        1 SPK      0.464800
     25 H5B        -3.0570   -0.7360   -1.0190 hn        1 SPK      0.464800
     26 H6A        -0.9730   -0.8170   -1.9060 hx        1 SPK      0.122700
     27 H6B        -0.9590    0.7770   -1.9290 hx        1 SPK      0.122700
     28 H7A        -1.1080   -0.7790    0.4740 hc        1 SPK      0.087700
     29 H7B        -1.0880    0.8140    0.4490 hc        1 SPK      0.087700
     30 H8A         1.1080    0.7690   -0.4780 hc        1 SPK      0.087700
     31 H8B         1.0880   -0.8250   -0.4440 hc        1 SPK      0.087700
     32 H9A         0.9510   -0.7700    1.9360 hx        1 SPK      0.122700
     33 H9B         0.9810    0.8240    1.8990 hx        1 SPK      0.122700
     34 H101        3.0360   -0.7790    1.0490 hn        1 SPK      0.464800
     35 H102        3.0640    0.7090    1.0040 hn        1 SPK      0.464800
     36 H111        2.9240    0.8320    3.2620 hx        1 SPK      0.127700
     37 H112        2.8930   -0.7610    3.3110 hx        1 SPK      0.127700
     38 H121        5.0820   -0.8310    2.3890 hc        1 SPK      0.098700
     39 H122        5.1130    0.7620    2.3430 hc        1 SPK      0.098700
     40 H131        4.9480   -0.7640    4.7460 hx        1 SPK      0.131700
     41 H132        4.9660    0.8290    4.7040 hx        1 SPK      0.131700
     42 H141        7.0250    0.0170    5.1240 hn        1 SPK      0.485467
     43 H142        7.0330    0.7320    3.8180 hn        1 SPK      0.485467
     44 H143        7.0170   -0.7560    3.8520 hn        1 SPK      0.485467
@<TRIPOS>BOND
     1    1    2 1   
     2    1   15 1   
     3    1   16 1   
     4    1   17 1   
     5    2    3 1   
     6    2   18 1   
     7    2   19 1   
     8    3    4 1   
     9    3   20 1   
    10    3   21 1   
    11    4    5 1   
    12    4   22 1   
    13    4   23 1   
    14    5    6 1   
    15    5   24 1   
    16    5   25 1   
    17    6    7 1   
    18    6   26 1   
    19    6   27 1   
    20    7    8 1   
    21    7   28 1   
    22    7   29 1   
    23    8    9 1   
    24    8   30 1   
    25    8   31 1   
    26    9   10 1   
    27    9   32 1   
    28    9   33 1   
    29   10   11 1   
    30   10   34 1   
    31   10   35 1   
    32   11   12 1   
    33   11   36 1   
    34   11   37 1   
    35   12   13 1   
    36   12   38 1   
    37   12   39 1   
    38   13   14 1   
    39   13   40 1   
    40   13   41 1   
    41   14   42 1   
    42   14   43 1   
    43   14   44 1   
@<TRIPOS>SUBSTRUCTURE
     1 SPK         1 TEMP              0 ****  ****    0 ROOT
