@<TRIPOS>MOLECULE
SPK
   44    43     1     0     0
SMALL
bcc


@<TRIPOS>ATOM
      1 N1         -8.1820    0.1910   -0.0000 n4        1 SPK     -0.837600
      2 C2         -6.8610   -0.4970   -0.0000 c3        1 SPK      0.105800
      3 C3         -5.6650    0.4600   -0.0000 c3        1 SPK     -0.138400
      4 C4         -4.3770   -0.3690   -0.0000 c3        1 SPK      0.108800
      5 N5         -3.1360    0.4720   -0.0000 n4        1 SPK     -0.764000
      6 C6         -1.8920   -0.3690   -0.0000 c3        1 SPK      0.107800
      7 C7         -0.6050    0.4620   -0.0000 c3        1 SPK     -0.106400
      8 C8          0.6050   -0.4620   -0.0000 c3        1 SPK     -0.106400
      9 C9          1.8920    0.3690    0.0000 c3        1 SPK      0.107800
     10 N10         3.1360   -0.4720   -0.0000 n4        1 SPK     -0.764000
     11 C11         4.3770    0.3690    0.0000 c3        1 SPK      0.108800
     12 C12         5.6650   -0.4600   -0.0000 c3        1 SPK     -0.138400
     13 C13         6.8610    0.4970   -0.0000 c3        1 SPK      0.105800
     14 N14         8.1820   -0.1910   -0.0000 n4        1 SPK     -0.837600
     15 H1A        -8.2920    0.7810   -0.8350 hn        1 SPK      0.485467
     16 H1B        -8.2920    0.7810    0.8350 hn        1 SPK      0.485467
     17 H1C        -8.9350   -0.5160    0.0000 hn        1 SPK      0.485467
     18 H2A        -6.8250   -1.1590    0.9180 hx        1 SPK      0.131700
     19 H2B        -6.8250   -1.1590   -0.9180 hx        1 SPK      0.131700
     20 H3A        -5.7020    1.1210   -0.9090 hc        1 SPK      0.098700
     21 H3B        -5.7020    1.1210    0.9090 hc        1 SPK      0.098700
     22 H4A        -4.3440   -1.0290    0.9180 hx        1 SPK      0.127700
     23 H4B        -4.3440   -1.0290   -0.9180 hx        1 SPK      0.127700
     24 H5A        -3.1360    1.0790   -0.8320 hn        1 SPK      0.464800
     25 H5B        -3.1360    1.0790    0.8320 hn        1 SPK      0.464800
     26 H6A        -1.9240   -1.0270    0.9180 hx        1 SPK      0.122700
     27 H6B        -1.9240   -1.0270   -0.9180 hx        1 SPK      0.122700
     28 H7A        -0.5710    1.1230   -0.9080 hc        1 SPK      0.087700
     29 H7B        -0.5710    1.1230    0.9080 hc        1 SPK      0.087700
     30 H8A         0.5710   -1.1230    0.9080 hc        1 SPK      0.087700
     31 H8B         0.5710   -1.1230   -0.9080 hc        1 SPK      0.087700
     32 H9A         1.9240    1.0270   -0.9180 hx        1 SPK      0.122700
     33 H9B         1.9240    1.0270    0.9180 hx        1 SPK      0.122700
     34 H101        3.1360   -1.0790    0.8320 hn        1 SPK      0.464800
     35 H102        3.1360   -1.0790   -0.8320 hn        1 SPK      0.464800
     36 H111        4.3440    1.0290   -0.9180 hx        1 SPK      0.127700
     37 H112        4.3440    1.0290    0.9180 hx        1 SPK      0.127700
     38 H121        5.7020   -1.1210    0.9090 hc        1 SPK      0.098700
     39 H122        5.7020   -1.1210   -0.9090 hc        1 SPK      0.098700
     40 H131        6.8250    1.1590   -0.9180 hx        1 SPK      0.131700
     41 H132        6.8250    1.1590    0.9180 hx        1 SPK      0.131700
     42 H141        8.2920   -0.7810    0.8350 hn        1 SPK      0.485467
     43 H142        8.2920   -0.7810   -0.8350 hn        1 SPK      0.485467
     44 H143        8.9350    0.5160    0.0000 hn        1 SPK      0.485467
@<TRIPOS>BOND
     1    1    2 1   
     2    1   15 1   
     3    1   16 1   
     4    1   17 1   
     5    2    3 1   
     6    2   18 1   
     7    2   19 1   
     8    3    4 1   
     9    3   20 1   
    10    3   21 1   
    11    4    5 1   
    12    4   22 1   
    13    4   23 1   
    14    5    6 1   
    15    5   24 1   
    16    5   25 1   
    17    6    7 1   
    18    6   26 1   
    19    6   27 1   
    20    7    8 1   
    21    7   28 1   
    22    7   29 1   
    23    8    9 1   
    24    8   30 1   
    25    8   31 1   
    26    9   10 1   
    27    9   32 1   
    28    9   33 1   
    29   10   11 1   
    30   10   34 1   
    31   10   35 1   
    32   11   12 1   
    33   11   36 1   
    34   11   37 1   
    35   12   13 1   
    36   12   38 1   
    37   12   39 1   
    38   13   14 1   
    39   13   40 1   
    40   13   41 1   
    41   14   42 1   
    42   14   43 1   
    43   14   44 1   
@<TRIPOS>SUBSTRUCTURE
     1 SPK         1 TEMP              0 ****  ****    0 ROOT
