@<TRIPOS>MOLECULE
SPK
   44    43     1     0     0
SMALL
bcc


@<TRIPOS>ATOM
      1 N1         -0.1050    0.0000   -0.2120 n4        1 SPK     -0.837600
      2 C2          1.3730    0.0000   -0.0300 c3        1 SPK      0.105800
      3 C3          1.8150   -0.0000    1.4360 c3        1 SPK     -0.138400
      4 C4          3.3460   -0.0000    1.4840 c3        1 SPK      0.108800
      5 N5          3.8920   -0.0000    2.8810 n4        1 SPK     -0.764000
      6 C6          5.3930   -0.0000    2.8940 c3        1 SPK      0.107800
      7 C7          5.9820   -0.0000    4.3080 c3        1 SPK     -0.106400
      8 C8          7.5030    0.0000    4.2320 c3        1 SPK     -0.106400
      9 C9          8.0910    0.0000    5.6460 c3        1 SPK      0.107800
     10 N10         9.5930    0.0000    5.6600 n4        1 SPK     -0.764000
     11 C11        10.1380    0.0000    7.0560 c3        1 SPK      0.108800
     12 C12        11.6690    0.0000    7.1040 c3        1 SPK     -0.138400
     13 C13        12.1110    0.0000    8.5710 c3        1 SPK      0.105800
     14 N14        13.5900    0.0000    8.7520 n4        1 SPK     -0.837600
     15 H1A        -0.5310   -0.8350    0.2110 hn        1 SPK      0.485467
     16 H1B        -0.3250    0.0000   -1.2220 hn        1 SPK      0.485467
     17 H1C        -0.5310    0.8350    0.2110 hn        1 SPK      0.485467
     18 H2A         1.7780   -0.9180   -0.5550 hx        1 SPK      0.131700
     19 H2B         1.7780    0.9180   -0.5550 hx        1 SPK      0.131700
     20 H3A         1.4100   -0.9090    1.9600 hc        1 SPK      0.098700
     21 H3B         1.4100    0.9090    1.9600 hc        1 SPK      0.098700
     22 H4A         3.7470   -0.9180    0.9590 hx        1 SPK      0.127700
     23 H4B         3.7470    0.9180    0.9590 hx        1 SPK      0.127700
     24 H5A         3.5480   -0.8320    3.3810 hn        1 SPK      0.464800
     25 H5B         3.5480    0.8320    3.3810 hn        1 SPK      0.464800
     26 H6A         5.7400    0.9180    2.3330 hx        1 SPK      0.122700
     27 H6B         5.7400   -0.9180    2.3330 hx        1 SPK      0.122700
     28 H7A         5.6350   -0.9080    4.8720 hc        1 SPK      0.087700
     29 H7B         5.6350    0.9080    4.8720 hc        1 SPK      0.087700
     30 H8A         7.8500   -0.9080    3.6690 hc        1 SPK      0.087700
     31 H8B         7.8500    0.9080    3.6690 hc        1 SPK      0.087700
     32 H9A         7.7450    0.9180    6.2070 hx        1 SPK      0.122700
     33 H9B         7.7450   -0.9180    6.2070 hx        1 SPK      0.122700
     34 H101        9.9370    0.8320    5.1600 hn        1 SPK      0.464800
     35 H102        9.9370   -0.8320    5.1600 hn        1 SPK      0.464800
     36 H111        9.7370    0.9180    7.5810 hx        1 SPK      0.127700
     37 H112        9.7370   -0.9180    7.5810 hx        1 SPK      0.127700
     38 H121       12.0740    0.9090    6.5810 hc        1 SPK      0.098700
     39 H122       12.0740   -0.9090    6.5810 hc        1 SPK      0.098700
     40 H131       11.7060   -0.9180    9.0950 hx        1 SPK      0.131700
     41 H132       11.7060    0.9180    9.0950 hx        1 SPK      0.131700
     42 H141       14.0150    0.8350    8.3290 hn        1 SPK      0.485467
     43 H142       13.8090    0.0000    9.7620 hn        1 SPK      0.485467
     44 H143       14.0150   -0.8350    8.3290 hn        1 SPK      0.485467
@<TRIPOS>BOND
     1    1    2 1   
     2    1   15 1   
     3    1   16 1   
     4    1   17 1   
     5    2    3 1   
     6    2   18 1   
     7    2   19 1   
     8    3    4 1   
     9    3   20 1   
    10    3   21 1   
    11    4    5 1   
    12    4   22 1   
    13    4   23 1   
    14    5    6 1   
    15    5   24 1   
    16    5   25 1   
    17    6    7 1   
    18    6   26 1   
    19    6   27 1   
    20    7    8 1   
    21    7   28 1   
    22    7   29 1   
    23    8    9 1   
    24    8   30 1   
    25    8   31 1   
    26    9   10 1   
    27    9   32 1   
    28    9   33 1   
    29   10   11 1   
    30   10   34 1   
    31   10   35 1   
    32   11   12 1   
    33   11   36 1   
    34   11   37 1   
    35   12   13 1   
    36   12   38 1   
    37   12   39 1   
    38   13   14 1   
    39   13   40 1   
    40   13   41 1   
    41   14   42 1   
    42   14   43 1   
    43   14   44 1   
@<TRIPOS>SUBSTRUCTURE
     1 SPK         1 TEMP              0 ****  ****    0 ROOT
