@<TRIPOS>MOLECULE
SPK
   44    43     1     0     0
SMALL
bcc


@<TRIPOS>ATOM
      1 N1         -0.1040   -0.0010   -0.2130 n4        1 SPK     -0.837600
      2 C2          1.3740   -0.0000   -0.0320 c3        1 SPK      0.105800
      3 C3          1.8160    0.0000    1.4350 c3        1 SPK     -0.138400
      4 C4          3.3470   -0.0000    1.4830 c3        1 SPK      0.108800
      5 N5          3.8920    0.0010    2.8800 n4        1 SPK     -0.764000
      6 C6          5.3930   -0.0000    2.8930 c3        1 SPK      0.107800
      7 C7          5.9810    0.0010    4.3080 c3        1 SPK     -0.106400
      8 C8          7.5030   -0.0000    4.2330 c3        1 SPK     -0.106400
      9 C9          8.0910    0.0000    5.6470 c3        1 SPK      0.107800
     10 N10         9.5930   -0.0000    5.6600 n4        1 SPK     -0.764000
     11 C11        10.1380   -0.0000    7.0570 c3        1 SPK      0.108800
     12 C12        11.6690    0.0000    7.1050 c3        1 SPK     -0.138400
     13 C13        12.1110   -0.0000    8.5720 c3        1 SPK      0.105800
     14 N14        13.5890    0.0000    8.7530 n4        1 SPK     -0.837600
     15 H1A        -0.5300    0.8350    0.2100 hn        1 SPK      0.485467
     16 H1B        -0.5300   -0.8360    0.2090 hn        1 SPK      0.485467
     17 H1C        -0.3230   -0.0010   -1.2240 hn        1 SPK      0.485467
     18 H2A         1.7790    0.9170   -0.5560 hx        1 SPK      0.131700
     19 H2B         1.7800   -0.9180   -0.5560 hx        1 SPK      0.131700
     20 H3A         1.4110   -0.9090    1.9590 hc        1 SPK      0.098700
     21 H3B         1.4110    0.9100    1.9580 hc        1 SPK      0.098700
     22 H4A         3.7480   -0.9190    0.9600 hx        1 SPK      0.127700
     23 H4B         3.7480    0.9170    0.9580 hx        1 SPK      0.127700
     24 H5A         3.5480    0.8330    3.3790 hn        1 SPK      0.464800
     25 H5B         3.5470   -0.8300    3.3810 hn        1 SPK      0.464800
     26 H6A         5.7390   -0.9190    2.3340 hx        1 SPK      0.122700
     27 H6B         5.7400    0.9170    2.3320 hx        1 SPK      0.122700
     28 H7A         5.6340   -0.9070    4.8720 hc        1 SPK      0.087700
     29 H7B         5.6350    0.9100    4.8700 hc        1 SPK      0.087700
     30 H8A         7.8500    0.9080    3.6680 hc        1 SPK      0.087700
     31 H8B         7.8490   -0.9090    3.6700 hc        1 SPK      0.087700
     32 H9A         7.7450    0.9180    6.2070 hx        1 SPK      0.122700
     33 H9B         7.7450   -0.9170    6.2070 hx        1 SPK      0.122700
     34 H101        9.9370    0.8310    5.1600 hn        1 SPK      0.464800
     35 H102        9.9370   -0.8320    5.1600 hn        1 SPK      0.464800
     36 H111        9.7370    0.9180    7.5820 hx        1 SPK      0.127700
     37 H112        9.7370   -0.9180    7.5810 hx        1 SPK      0.127700
     38 H121       12.0740    0.9100    6.5820 hc        1 SPK      0.098700
     39 H122       12.0740   -0.9090    6.5820 hc        1 SPK      0.098700
     40 H131       11.7060   -0.9180    9.0960 hx        1 SPK      0.131700
     41 H132       11.7050    0.9170    9.0960 hx        1 SPK      0.131700
     42 H141       14.0140    0.8360    8.3310 hn        1 SPK      0.485467
     43 H142       13.8080   -0.0000    9.7640 hn        1 SPK      0.485467
     44 H143       14.0150   -0.8350    8.3300 hn        1 SPK      0.485467
@<TRIPOS>BOND
     1    1    2 1   
     2    1   15 1   
     3    1   16 1   
     4    1   17 1   
     5    2    3 1   
     6    2   18 1   
     7    2   19 1   
     8    3    4 1   
     9    3   20 1   
    10    3   21 1   
    11    4    5 1   
    12    4   22 1   
    13    4   23 1   
    14    5    6 1   
    15    5   24 1   
    16    5   25 1   
    17    6    7 1   
    18    6   26 1   
    19    6   27 1   
    20    7    8 1   
    21    7   28 1   
    22    7   29 1   
    23    8    9 1   
    24    8   30 1   
    25    8   31 1   
    26    9   10 1   
    27    9   32 1   
    28    9   33 1   
    29   10   11 1   
    30   10   34 1   
    31   10   35 1   
    32   11   12 1   
    33   11   36 1   
    34   11   37 1   
    35   12   13 1   
    36   12   38 1   
    37   12   39 1   
    38   13   14 1   
    39   13   40 1   
    40   13   41 1   
    41   14   42 1   
    42   14   43 1   
    43   14   44 1   
@<TRIPOS>SUBSTRUCTURE
     1 SPK         1 TEMP              0 ****  ****    0 ROOT
