@<TRIPOS>MOLECULE
SPL
   82    81     1     0     0
SMALL
bcc


@<TRIPOS>ATOM
      1 C1          1.7150   -0.1010    1.0800 c3        1 SPL      0.112400
      2 O1          2.5870    0.9490    1.4440 oh        1 SPL     -0.622800
      3 C2          2.0560   -0.5930   -0.3430 c3        1 SPL      0.050500
      4 N2          3.5330   -0.7780   -0.5230 n4        1 SPL     -0.679800
      5 C3          1.4910    0.4160   -1.3950 c3        1 SPL      0.178300
      6 O3          0.1050    0.5240   -1.1580 oh        1 SPL     -0.570800
      7 C4          1.8240   -0.0350   -2.7750 c2        1 SPL     -0.289200
      8 C5          2.8010    0.4590   -3.5430 c2        1 SPL     -0.098200
      9 C6          3.7440    1.5440   -3.1850 c3        1 SPL     -0.077200
     10 C7          5.1490    1.2830   -3.6910 c3        1 SPL     -0.089400
     11 C8          5.7970    0.1040   -2.9970 c3        1 SPL     -0.075400
     12 C9          7.2080   -0.1220   -3.4950 c3        1 SPL     -0.085400
     13 C10         7.8550   -1.3030   -2.8030 c3        1 SPL     -0.077400
     14 C11         9.2680   -1.5210   -3.3000 c3        1 SPL     -0.080400
     15 C12         9.9170   -2.7020   -2.6100 c3        1 SPL     -0.077400
     16 C13        11.3300   -2.9180   -3.1070 c3        1 SPL     -0.080400
     17 C14        11.9790   -4.0990   -2.4170 c3        1 SPL     -0.078400
     18 C15        13.3920   -4.3150   -2.9150 c3        1 SPL     -0.079400
     19 C16        14.0430   -5.4950   -2.2260 c3        1 SPL     -0.079400
     20 C17        15.4560   -5.7120   -2.7240 c3        1 SPL     -0.080400
     21 C18        16.1080   -6.8860   -2.0400 c3        1 SPL     -0.093100
     22 C19         4.0420   -2.0070    0.2100 c         1 SPL      0.553100
     23 O19         3.7980   -3.0740   -0.3290 o         1 SPL     -0.412100
     24 C20         4.7870   -1.7300    1.4820 c3        1 SPL     -0.156400
     25 C21         4.9450   -2.9990    2.2980 c3        1 SPL     -0.081400
     26 C22         5.7560   -2.7200    3.5460 c3        1 SPL     -0.080400
     27 C23         5.9100   -3.9770    4.3770 c3        1 SPL     -0.079400
     28 C24         6.7220   -3.7060    5.6260 c3        1 SPL     -0.079400
     29 C25         6.8780   -4.9600    6.4600 c3        1 SPL     -0.079400
     30 C26         7.6850   -4.6960    7.7050 c3        1 SPL     -0.095100
     31 H11         0.6340    0.2050    1.0910 h1        1 SPL      0.093200
     32 H12         1.8850   -0.9250    1.8260 h1        1 SPL      0.093200
     33 HO1         2.0910    1.7780    1.4250 ho        1 SPL      0.443000
     34 H2          1.5640   -1.5960   -0.5080 hx        1 SPL      0.117700
     35 HN2         3.7330   -0.8600   -1.5340 hn        1 SPL      0.466800
     36 H3          1.8930    1.4470   -1.1650 h1        1 SPL      0.094700
     37 HO3        -0.3630   -0.1140   -1.7160 ho        1 SPL      0.430000
     38 H4          1.1560   -0.8200   -3.1730 ha        1 SPL      0.150000
     39 H5          2.9360    0.0560   -4.5660 ha        1 SPL      0.156000
     40 H61         3.7750    1.7160   -2.0760 hc        1 SPL      0.058700
     41 H62         3.3620    2.4970   -3.6530 hc        1 SPL      0.058700
     42 H71         5.1250    1.0990   -4.7980 hc        1 SPL      0.069700
     43 H72         5.7710    2.2030   -3.5230 hc        1 SPL      0.069700
     44 H81         5.8190    0.2850   -1.8890 hc        1 SPL      0.011200
     45 H82         5.1850   -0.8210   -3.1780 hc        1 SPL      0.011200
     46 H91         7.1900   -0.3000   -4.6030 hc        1 SPL      0.058200
     47 H92         7.8210    0.8010   -3.3180 hc        1 SPL      0.058200
     48 H101        7.8720   -1.1280   -1.6950 hc        1 SPL      0.030200
     49 H102        7.2470   -2.2280   -2.9860 hc        1 SPL      0.030200
     50 H111        9.2540   -1.6960   -4.4090 hc        1 SPL      0.048700
     51 H112        9.8780   -0.5970   -3.1190 hc        1 SPL      0.048700
     52 H121        9.9320   -2.5280   -1.5010 hc        1 SPL      0.036700
     53 H122        9.3080   -3.6270   -2.7920 hc        1 SPL      0.036700
     54 H131       11.3160   -3.0920   -4.2160 hc        1 SPL      0.044200
     55 H132       11.9390   -1.9940   -2.9250 hc        1 SPL      0.044200
     56 H141       11.9940   -3.9260   -1.3090 hc        1 SPL      0.038700
     57 H142       11.3710   -5.0230   -2.6000 hc        1 SPL      0.038700
     58 H151       14.0010   -3.3900   -2.7330 hc        1 SPL      0.042200
     59 H152       13.3780   -4.4880   -4.0240 hc        1 SPL      0.042200
     60 H161       13.4350   -6.4200   -2.4080 hc        1 SPL      0.039200
     61 H162       14.0580   -5.3220   -1.1170 hc        1 SPL      0.039200
     62 H171       15.4400   -5.8830   -3.8330 hc        1 SPL      0.040200
     63 H172       16.0630   -4.7860   -2.5420 hc        1 SPL      0.040200
     64 H181       16.1570   -6.7230   -0.9360 hc        1 SPL      0.034700
     65 H182       15.5320   -7.8240   -2.2300 hc        1 SPL      0.034700
     66 H183       17.1480   -7.0280   -2.4210 hc        1 SPL      0.034700
     67 H201        5.8000   -1.3190    1.2110 hc        1 SPL      0.108200
     68 H202        4.2470   -0.9450    2.0840 hc        1 SPL      0.108200
     69 H211        3.9340   -3.3960    2.5810 hc        1 SPL      0.068200
     70 H212        5.4510   -3.7870    1.6800 hc        1 SPL      0.068200
     71 H221        6.7700   -2.3320    3.2610 hc        1 SPL      0.049200
     72 H222        5.2530   -1.9250    4.1570 hc        1 SPL      0.049200
     73 H231        6.4120   -4.7730    3.7670 hc        1 SPL      0.047700
     74 H232        4.8980   -4.3660    4.6640 hc        1 SPL      0.047700
     75 H241        6.2210   -2.9090    6.2370 hc        1 SPL      0.043200
     76 H242        7.7350   -3.3170    5.3410 hc        1 SPL      0.043200
     77 H251        5.8640   -5.3490    6.7440 hc        1 SPL      0.042200
     78 H252        7.3780   -5.7560    5.8480 hc        1 SPL      0.042200
     79 H261        7.7880   -5.6330    8.3040 hc        1 SPL      0.038367
     80 H262        7.1900   -3.9230    8.3410 hc        1 SPL      0.038367
     81 H263        8.7080   -4.3320    7.4420 hc        1 SPL      0.038367
     82 H22         4.0050    0.0600   -0.1580 hn        1 SPL      0.466800
@<TRIPOS>BOND
     1    1    2 1   
     2    1    3 1   
     3    1   31 1   
     4    1   32 1   
     5    2   33 1   
     6    3    4 1   
     7    3    5 1   
     8    3   34 1   
     9    4   22 1   
    10    4   35 1   
    11    4   82 1   
    12    5    6 1   
    13    5    7 1   
    14    5   36 1   
    15    6   37 1   
    16    7    8 2   
    17    7   38 1   
    18    8    9 1   
    19    8   39 1   
    20    9   10 1   
    21    9   40 1   
    22    9   41 1   
    23   10   11 1   
    24   10   42 1   
    25   10   43 1   
    26   11   12 1   
    27   11   44 1   
    28   11   45 1   
    29   12   13 1   
    30   12   46 1   
    31   12   47 1   
    32   13   14 1   
    33   13   48 1   
    34   13   49 1   
    35   14   15 1   
    36   14   50 1   
    37   14   51 1   
    38   15   16 1   
    39   15   52 1   
    40   15   53 1   
    41   16   17 1   
    42   16   54 1   
    43   16   55 1   
    44   17   18 1   
    45   17   56 1   
    46   17   57 1   
    47   18   19 1   
    48   18   58 1   
    49   18   59 1   
    50   19   20 1   
    51   19   60 1   
    52   19   61 1   
    53   20   21 1   
    54   20   62 1   
    55   20   63 1   
    56   21   64 1   
    57   21   65 1   
    58   21   66 1   
    59   22   23 2   
    60   22   24 1   
    61   24   25 1   
    62   24   67 1   
    63   24   68 1   
    64   25   26 1   
    65   25   69 1   
    66   25   70 1   
    67   26   27 1   
    68   26   71 1   
    69   26   72 1   
    70   27   28 1   
    71   27   73 1   
    72   27   74 1   
    73   28   29 1   
    74   28   75 1   
    75   28   76 1   
    76   29   30 1   
    77   29   77 1   
    78   29   78 1   
    79   30   79 1   
    80   30   80 1   
    81   30   81 1   
@<TRIPOS>SUBSTRUCTURE
     1 SPL         1 TEMP              0 ****  ****    0 ROOT
