@<TRIPOS>MOLECULE
SPL
   81    80     1     0     0
SMALL
bcc


@<TRIPOS>ATOM
      1 C1         -3.4520    1.6900   -5.4010 c3        1 SPL      0.125400
      2 O1         -4.2310    0.7620   -6.1230 oh        1 SPL     -0.607800
      3 C2         -2.3050    1.0020   -4.6270 c3        1 SPL      0.039700
      4 N2         -1.3320    0.4350   -5.5250 n         1 SPL     -0.572900
      5 C3         -2.8980   -0.0710   -3.6590 c3        1 SPL      0.152300
      6 O3         -4.1970    0.3210   -3.2390 oh        1 SPL     -0.609800
      7 C4         -1.9660   -0.3210   -2.5210 c2        1 SPL     -0.223200
      8 C5         -2.3780   -0.7090   -1.3110 c2        1 SPL     -0.149200
      9 C6         -1.4560   -0.9930   -0.1850 c3        1 SPL     -0.053200
     10 C7         -1.9780   -0.4230    1.1200 c3        1 SPL     -0.076400
     11 C8         -1.0380   -0.7380    2.2640 c3        1 SPL     -0.079400
     12 C9         -1.5560   -0.1730    3.5700 c3        1 SPL     -0.078400
     13 C10        -0.6170   -0.4870    4.7150 c3        1 SPL     -0.079400
     14 C11        -1.1350    0.0780    6.0200 c3        1 SPL     -0.079400
     15 C12        -0.1960   -0.2360    7.1650 c3        1 SPL     -0.079400
     16 C13        -0.7140    0.3290    8.4710 c3        1 SPL     -0.079400
     17 C14         0.2260    0.0150    9.6160 c3        1 SPL     -0.079400
     18 C15        -0.2920    0.5800   10.9210 c3        1 SPL     -0.079400
     19 C16         0.6470    0.2670   12.0660 c3        1 SPL     -0.079400
     20 C17         0.1310    0.8310   13.3730 c3        1 SPL     -0.080400
     21 C18         1.0620    0.5210   14.5160 c3        1 SPL     -0.092100
     22 C19         0.0300    0.5200   -5.3150 c         1 SPL      0.660100
     23 O19         0.4890    1.0710   -4.2940 o         1 SPL     -0.616100
     24 C20         0.9210   -0.0890   -6.3830 c3        1 SPL     -0.148400
     25 C21         2.3820    0.0700   -6.0260 c3        1 SPL     -0.073400
     26 C22         3.2690   -0.5340   -7.0930 c3        1 SPL     -0.079400
     27 C23         4.7320   -0.3770   -6.7390 c3        1 SPL     -0.078400
     28 C24         5.6220   -0.9800   -7.8030 c3        1 SPL     -0.079400
     29 C25         7.0860   -0.8240   -7.4500 c3        1 SPL     -0.080400
     30 C26         7.9770   -1.4230   -8.5070 c3        1 SPL     -0.093100
     31 H11        -4.0850    2.2600   -4.6700 h1        1 SPL      0.054700
     32 H12        -3.0480    2.3950   -6.1760 h1        1 SPL      0.054700
     33 HO1        -4.7290    0.2440   -5.4760 ho        1 SPL      0.418000
     34 H2         -1.7900    1.7900   -3.9990 h1        1 SPL      0.089700
     35 HN2        -1.6850   -0.0110   -6.3370 hn        1 SPL      0.320500
     36 H3         -3.0870   -1.0350   -4.2200 h1        1 SPL      0.082700
     37 HO3        -4.0920    1.0260   -2.5890 ho        1 SPL      0.408000
     38 H4         -0.8970   -0.1680   -2.7540 ha        1 SPL      0.156000
     39 H5         -3.4510   -0.8530   -1.0960 ha        1 SPL      0.126000
     40 H61        -0.4340   -0.5770   -0.3940 hc        1 SPL      0.052700
     41 H62        -1.3460   -2.1080   -0.0860 hc        1 SPL      0.052700
     42 H71        -2.9930   -0.8470    1.3380 hc        1 SPL      0.041200
     43 H72        -2.0950    0.6880    1.0240 hc        1 SPL      0.041200
     44 H81        -0.0240   -0.3120    2.0460 hc        1 SPL      0.041200
     45 H82        -0.9180   -1.8500    2.3570 hc        1 SPL      0.041200
     46 H91        -2.5710   -0.5990    3.7880 hc        1 SPL      0.039700
     47 H92        -1.6770    0.9390    3.4770 hc        1 SPL      0.039700
     48 H101        0.3970   -0.0610    4.4970 hc        1 SPL      0.040200
     49 H102       -0.4960   -1.5980    4.8080 hc        1 SPL      0.040200
     50 H111       -2.1500   -0.3480    6.2390 hc        1 SPL      0.039700
     51 H112       -1.2570    1.1890    5.9270 hc        1 SPL      0.039700
     52 H121        0.8190    0.1900    6.9470 hc        1 SPL      0.039700
     53 H122       -0.0740   -1.3470    7.2580 hc        1 SPL      0.039700
     54 H131       -1.7280   -0.0980    8.6890 hc        1 SPL      0.039700
     55 H132       -0.8350    1.4400    8.3780 hc        1 SPL      0.039700
     56 H141        1.2400    0.4420    9.3980 hc        1 SPL      0.039700
     57 H142        0.3470   -1.0960    9.7090 hc        1 SPL      0.039700
     58 H151       -1.3070    0.1530   11.1400 hc        1 SPL      0.039700
     59 H152       -0.4140    1.6910   10.8280 hc        1 SPL      0.039700
     60 H161        1.6620    0.6930   11.8480 hc        1 SPL      0.039700
     61 H162        0.7690   -0.8450   12.1600 hc        1 SPL      0.039700
     62 H171       -0.8850    0.4050   13.5880 hc        1 SPL      0.038700
     63 H172        0.0080    1.9420   13.2770 hc        1 SPL      0.038700
     64 H181        0.6630    0.9460   15.4690 hc        1 SPL      0.032700
     65 H182        1.1780   -0.5820   14.6430 hc        1 SPL      0.032700
     66 H183        2.0730    0.9600   14.3310 hc        1 SPL      0.032700
     67 H201        0.7120    0.4120   -7.3650 hc        1 SPL      0.063200
     68 H202        0.6720   -1.1770   -6.4940 hc        1 SPL      0.063200
     69 H211        2.5800   -0.4210   -5.0360 hc        1 SPL      0.059200
     70 H212        2.6190    1.1600   -5.8990 hc        1 SPL      0.059200
     71 H221        3.0660   -0.0380   -8.0790 hc        1 SPL      0.037700
     72 H222        3.0260   -1.6230   -7.2150 hc        1 SPL      0.037700
     73 H231        4.9350   -0.8730   -5.7530 hc        1 SPL      0.042700
     74 H232        4.9740    0.7120   -6.6170 hc        1 SPL      0.042700
     75 H241        5.4200   -0.4840   -8.7890 hc        1 SPL      0.038700
     76 H242        5.3800   -2.0690   -7.9250 hc        1 SPL      0.038700
     77 H251        7.2870   -1.3190   -6.4630 hc        1 SPL      0.039700
     78 H252        7.3270    0.2650   -7.3270 hc        1 SPL      0.039700
     79 H261        9.0510   -1.2960   -8.2270 hc        1 SPL      0.032700
     80 H262        7.7700   -2.5140   -8.6270 hc        1 SPL      0.032700
     81 H263        7.8090   -0.9250   -9.4930 hc        1 SPL      0.032700
@<TRIPOS>BOND
     1    1    2 1   
     2    1    3 1   
     3    1   31 1   
     4    1   32 1   
     5    2   33 1   
     6    3    4 1   
     7    3    5 1   
     8    3   34 1   
     9    4   22 1   
    10    4   35 1   
    11    5    6 1   
    12    5    7 1   
    13    5   36 1   
    14    6   37 1   
    15    7    8 2   
    16    7   38 1   
    17    8    9 1   
    18    8   39 1   
    19    9   10 1   
    20    9   40 1   
    21    9   41 1   
    22   10   11 1   
    23   10   42 1   
    24   10   43 1   
    25   11   12 1   
    26   11   44 1   
    27   11   45 1   
    28   12   13 1   
    29   12   46 1   
    30   12   47 1   
    31   13   14 1   
    32   13   48 1   
    33   13   49 1   
    34   14   15 1   
    35   14   50 1   
    36   14   51 1   
    37   15   16 1   
    38   15   52 1   
    39   15   53 1   
    40   16   17 1   
    41   16   54 1   
    42   16   55 1   
    43   17   18 1   
    44   17   56 1   
    45   17   57 1   
    46   18   19 1   
    47   18   58 1   
    48   18   59 1   
    49   19   20 1   
    50   19   60 1   
    51   19   61 1   
    52   20   21 1   
    53   20   62 1   
    54   20   63 1   
    55   21   64 1   
    56   21   65 1   
    57   21   66 1   
    58   22   23 2   
    59   22   24 1   
    60   24   25 1   
    61   24   67 1   
    62   24   68 1   
    63   25   26 1   
    64   25   69 1   
    65   25   70 1   
    66   26   27 1   
    67   26   71 1   
    68   26   72 1   
    69   27   28 1   
    70   27   73 1   
    71   27   74 1   
    72   28   29 1   
    73   28   75 1   
    74   28   76 1   
    75   29   30 1   
    76   29   77 1   
    77   29   78 1   
    78   30   79 1   
    79   30   80 1   
    80   30   81 1   
@<TRIPOS>SUBSTRUCTURE
     1 SPL         1 TEMP              0 ****  ****    0 ROOT
