@<TRIPOS>MOLECULE
SPL
   82    81     1     0     0
SMALL
bcc


@<TRIPOS>ATOM
      1 C1          1.8770    0.2020    1.4350 c3        1 SPL      0.111400
      2 O1          3.0220    0.9570    1.7700 oh        1 SPL     -0.624800
      3 C2          2.1930   -0.7210    0.2390 c3        1 SPL      0.052500
      4 N2          3.5050   -1.4260    0.4140 n4        1 SPL     -0.675800
      5 C3          2.1880    0.1150   -1.0810 c3        1 SPL      0.182300
      6 O3          0.9010    0.6860   -1.1940 oh        1 SPL     -0.573800
      7 C4          2.5590   -0.7420   -2.2400 c2        1 SPL     -0.336200
      8 C5          3.4800   -0.4430   -3.1640 c2        1 SPL     -0.051200
      9 C6          4.3180    0.7780   -3.2030 c3        1 SPL     -0.076200
     10 C7          5.5770    0.5970   -4.0290 c3        1 SPL     -0.086400
     11 C8          6.5490   -0.3670   -3.3840 c3        1 SPL     -0.077400
     12 C9          7.7870   -0.5480   -4.2370 c3        1 SPL     -0.082400
     13 C10         8.7620   -1.5100   -3.5920 c3        1 SPL     -0.077400
     14 C11         9.9980   -1.6900   -4.4470 c3        1 SPL     -0.080400
     15 C12        10.9740   -2.6520   -3.8050 c3        1 SPL     -0.078400
     16 C13        12.2100   -2.8320   -4.6610 c3        1 SPL     -0.079400
     17 C14        13.1870   -3.7950   -4.0200 c3        1 SPL     -0.078400
     18 C15        14.4210   -3.9750   -4.8770 c3        1 SPL     -0.079400
     19 C16        15.3990   -4.9370   -4.2370 c3        1 SPL     -0.079400
     20 C17        16.6330   -5.1190   -5.0940 c3        1 SPL     -0.080400
     21 C18        17.6100   -6.0760   -4.4610 c3        1 SPL     -0.093100
     22 C19         3.4330   -2.5020    1.4840 c         1 SPL      0.553100
     23 O19         2.9010   -3.5440    1.1370 o         1 SPL     -0.412100
     24 C20         4.0460   -2.1380    2.8030 c3        1 SPL     -0.156400
     25 C21         3.5920   -3.0970    3.8870 c3        1 SPL     -0.081400
     26 C22         4.2740   -2.7640    5.1980 c3        1 SPL     -0.080400
     27 C23         3.8170   -3.7050    6.2940 c3        1 SPL     -0.079400
     28 C24         4.4950   -3.3790    7.6070 c3        1 SPL     -0.079400
     29 C25         4.0400   -4.3170    8.7060 c3        1 SPL     -0.079400
     30 C26         4.7130   -3.9970   10.0150 c3        1 SPL     -0.095100
     31 H11         1.6240   -0.4110    2.3440 h1        1 SPL      0.093200
     32 H12         0.9970    0.8420    1.1530 h1        1 SPL      0.093200
     33 HO1         2.8700    1.8750    1.5090 ho        1 SPL      0.443000
     34 H2          1.3880   -1.5120    0.1700 hx        1 SPL      0.117700
     35 HN2         3.7640   -1.8460   -0.4900 hn        1 SPL      0.464800
     36 H3          2.8800    0.9980   -0.9520 h1        1 SPL      0.088700
     37 HO3         0.3550    0.1190   -1.7560 ho        1 SPL      0.432000
     38 H4          1.9510   -1.6580   -2.3440 ha        1 SPL      0.141000
     39 H5          3.6430   -1.1460   -4.0050 ha        1 SPL      0.152000
     40 H61         3.7010    1.6060   -3.6550 hc        1 SPL      0.063200
     41 H62         4.6000    1.1070   -2.1670 hc        1 SPL      0.063200
     42 H71         5.3080    0.2330   -5.0560 hc        1 SPL      0.062200
     43 H72         6.0710    1.5980   -4.1520 hc        1 SPL      0.062200
     44 H81         6.0490   -1.3600   -3.2340 hc        1 SPL      0.026700
     45 H82         6.8450    0.0150   -2.3720 hc        1 SPL      0.026700
     46 H91         7.4940   -0.9310   -5.2490 hc        1 SPL      0.050700
     47 H92         8.2850    0.4460   -4.3910 hc        1 SPL      0.050700
     48 H101        9.0590   -1.1250   -2.5800 hc        1 SPL      0.034700
     49 H102        8.2650   -2.5040   -3.4370 hc        1 SPL      0.034700
     50 H111        9.7030   -2.0730   -5.4590 hc        1 SPL      0.045700
     51 H112       10.4970   -0.6970   -4.6020 hc        1 SPL      0.045700
     52 H121       11.2710   -2.2690   -2.7930 hc        1 SPL      0.037700
     53 H122       10.4770   -3.6460   -3.6500 hc        1 SPL      0.037700
     54 H131       11.9140   -3.2150   -5.6730 hc        1 SPL      0.042700
     55 H132       12.7080   -1.8390   -4.8160 hc        1 SPL      0.042700
     56 H141       13.4840   -3.4120   -3.0090 hc        1 SPL      0.038700
     57 H142       12.6890   -4.7880   -3.8640 hc        1 SPL      0.038700
     58 H151       14.1240   -4.3590   -5.8890 hc        1 SPL      0.041700
     59 H152       14.9190   -2.9820   -5.0340 hc        1 SPL      0.041700
     60 H161       14.9010   -5.9310   -4.0800 hc        1 SPL      0.038700
     61 H162       15.6970   -4.5540   -3.2260 hc        1 SPL      0.038700
     62 H171       16.3330   -5.5020   -6.1050 hc        1 SPL      0.039700
     63 H172       17.1280   -4.1250   -5.2520 hc        1 SPL      0.039700
     64 H181       17.9400   -5.7000   -3.4620 hc        1 SPL      0.034033
     65 H182       17.1420   -7.0800   -4.3190 hc        1 SPL      0.034033
     66 H183       18.5110   -6.1950   -5.1090 hc        1 SPL      0.034033
     67 H201        5.1660   -2.1870    2.6920 hc        1 SPL      0.109200
     68 H202        3.7730   -1.0800    3.0810 hc        1 SPL      0.109200
     69 H211        3.8330   -4.1520    3.5870 hc        1 SPL      0.068200
     70 H212        2.4790   -3.0310    4.0090 hc        1 SPL      0.068200
     71 H221        5.3870   -2.8410    5.0780 hc        1 SPL      0.049200
     72 H222        4.0410   -1.7060    5.4900 hc        1 SPL      0.049200
     73 H231        4.0490   -4.7640    6.0030 hc        1 SPL      0.047700
     74 H232        2.7040   -3.6300    6.4160 hc        1 SPL      0.047700
     75 H241        5.6080   -3.4550    7.4870 hc        1 SPL      0.043200
     76 H242        4.2650   -2.3200    7.8990 hc        1 SPL      0.043200
     77 H251        2.9270   -4.2410    8.8250 hc        1 SPL      0.042200
     78 H252        4.2700   -5.3750    8.4120 hc        1 SPL      0.042200
     79 H261        5.8220   -4.0920    9.9240 hc        1 SPL      0.038367
     80 H262        4.4750   -2.9540   10.3380 hc        1 SPL      0.038367
     81 H263        4.3630   -4.6990   10.8100 hc        1 SPL      0.038367
     82 H22         4.2080   -0.7240    0.6800 hn        1 SPL      0.464800
@<TRIPOS>BOND
     1    1    2 1   
     2    1    3 1   
     3    1   31 1   
     4    1   32 1   
     5    2   33 1   
     6    3    4 1   
     7    3    5 1   
     8    3   34 1   
     9    4   22 1   
    10    4   35 1   
    11    4   82 1   
    12    5    6 1   
    13    5    7 1   
    14    5   36 1   
    15    6   37 1   
    16    7    8 2   
    17    7   38 1   
    18    8    9 1   
    19    8   39 1   
    20    9   10 1   
    21    9   40 1   
    22    9   41 1   
    23   10   11 1   
    24   10   42 1   
    25   10   43 1   
    26   11   12 1   
    27   11   44 1   
    28   11   45 1   
    29   12   13 1   
    30   12   46 1   
    31   12   47 1   
    32   13   14 1   
    33   13   48 1   
    34   13   49 1   
    35   14   15 1   
    36   14   50 1   
    37   14   51 1   
    38   15   16 1   
    39   15   52 1   
    40   15   53 1   
    41   16   17 1   
    42   16   54 1   
    43   16   55 1   
    44   17   18 1   
    45   17   56 1   
    46   17   57 1   
    47   18   19 1   
    48   18   58 1   
    49   18   59 1   
    50   19   20 1   
    51   19   60 1   
    52   19   61 1   
    53   20   21 1   
    54   20   62 1   
    55   20   63 1   
    56   21   64 1   
    57   21   65 1   
    58   21   66 1   
    59   22   23 2   
    60   22   24 1   
    61   24   25 1   
    62   24   67 1   
    63   24   68 1   
    64   25   26 1   
    65   25   69 1   
    66   25   70 1   
    67   26   27 1   
    68   26   71 1   
    69   26   72 1   
    70   27   28 1   
    71   27   73 1   
    72   27   74 1   
    73   28   29 1   
    74   28   75 1   
    75   28   76 1   
    76   29   30 1   
    77   29   77 1   
    78   29   78 1   
    79   30   79 1   
    80   30   80 1   
    81   30   81 1   
@<TRIPOS>SUBSTRUCTURE
     1 SPL         1 TEMP              0 ****  ****    0 ROOT
