@<TRIPOS>MOLECULE
SPL
   82    81     1     0     0
SMALL
bcc


@<TRIPOS>ATOM
      1 C1          1.7200   -0.0940    1.0740 c3        1 SPL      0.112400
      2 O1          2.5920    0.9510    1.4480 oh        1 SPL     -0.622800
      3 C2          2.0660   -0.5790   -0.3500 c3        1 SPL      0.050500
      4 N2          3.5430   -0.7660   -0.5250 ny        1 SPL     -0.679800
      5 C3          1.5070    0.4380   -1.3990 c3        1 SPL      0.178300
      6 O3          0.1200    0.5460   -1.1670 oh        1 SPL     -0.570800
      7 C4          1.8450   -0.0060   -2.7800 c2        1 SPL     -0.289200
      8 C5          2.8260    0.4890   -3.5410 c2        1 SPL     -0.098200
      9 C6          3.7700    1.5710   -3.1720 c3        1 SPL     -0.077200
     10 C7          5.1760    1.3090   -3.6750 c3        1 SPL     -0.089400
     11 C8          5.8190    0.1240   -2.9870 c3        1 SPL     -0.075400
     12 C9          7.2310   -0.1020   -3.4820 c3        1 SPL     -0.085400
     13 C10         7.8720   -1.2900   -2.7970 c3        1 SPL     -0.077400
     14 C11         9.2860   -1.5090   -3.2910 c3        1 SPL     -0.080400
     15 C12         9.9290   -2.6970   -2.6080 c3        1 SPL     -0.077400
     16 C13        11.3430   -2.9140   -3.1040 c3        1 SPL     -0.080400
     17 C14        11.9860   -4.1030   -2.4220 c3        1 SPL     -0.078400
     18 C15        13.4000   -4.3190   -2.9180 c3        1 SPL     -0.079400
     19 C16        14.0440   -5.5080   -2.2370 c3        1 SPL     -0.079400
     20 C17        15.4590   -5.7250   -2.7320 c3        1 SPL     -0.080400
     21 C18        16.1040   -6.9070   -2.0580 c3        1 SPL     -0.093100
     22 C19         4.0460   -2.0000    0.2030 c         1 SPL      0.553100
     23 O19         3.8040   -3.0630   -0.3450 o         1 SPL     -0.412100
     24 C20         4.7840   -1.7320    1.4800 c3        1 SPL     -0.156400
     25 C21         4.9300   -3.0060    2.2920 c3        1 SPL     -0.081400
     26 C22         5.7350   -2.7360    3.5470 c3        1 SPL     -0.080400
     27 C23         5.8760   -3.9970    4.3740 c3        1 SPL     -0.079400
     28 C24         6.6810   -3.7350    5.6300 c3        1 SPL     -0.079400
     29 C25         6.8240   -4.9940    6.4600 c3        1 SPL     -0.079400
     30 C26         7.6230   -4.7390    7.7110 c3        1 SPL     -0.095100
     31 H11         1.8850   -0.9230    1.8160 h1        1 SPL      0.093200
     32 H12         0.6400    0.2140    1.0830 h1        1 SPL      0.093200
     33 HO1         2.0980    1.7810    1.4320 ho        1 SPL      0.443000
     34 H2          1.5720   -1.5810   -0.5230 hx        1 SPL      0.117700
     35 HN2         4.0150    0.0690   -0.1530 hn        1 SPL      0.466800
     36 H3          1.9100    1.4660   -1.1610 h1        1 SPL      0.094700
     37 HO3        -0.3470   -0.0870   -1.7300 ho        1 SPL      0.430000
     38 H4          1.1770   -0.7880   -3.1860 ha        1 SPL      0.150000
     39 H5          2.9650    0.0930   -4.5660 ha        1 SPL      0.156000
     40 H61         3.7970    1.7350   -2.0620 hc        1 SPL      0.058700
     41 H62         3.3920    2.5270   -3.6350 hc        1 SPL      0.058700
     42 H71         5.8000    2.2260   -3.4970 hc        1 SPL      0.069700
     43 H72         5.1560    1.1330   -4.7840 hc        1 SPL      0.069700
     44 H81         5.8380    0.2980   -1.8770 hc        1 SPL      0.011200
     45 H82         5.2050   -0.7980   -3.1760 hc        1 SPL      0.011200
     46 H91         7.8460    0.8180   -3.2960 hc        1 SPL      0.058200
     47 H92         7.2160   -0.2720   -4.5910 hc        1 SPL      0.058200
     48 H101        7.8860   -1.1240   -1.6870 hc        1 SPL      0.030200
     49 H102        7.2620   -2.2120   -2.9880 hc        1 SPL      0.030200
     50 H111        9.8980   -0.5880   -3.1000 hc        1 SPL      0.048700
     51 H112        9.2740   -1.6740   -4.4010 hc        1 SPL      0.048700
     52 H121        9.9410   -2.5330   -1.4980 hc        1 SPL      0.036700
     53 H122        9.3180   -3.6180   -2.8000 hc        1 SPL      0.036700
     54 H131       11.9540   -1.9930   -2.9120 hc        1 SPL      0.044200
     55 H132       11.3310   -3.0780   -4.2140 hc        1 SPL      0.044200
     56 H141       11.3750   -5.0240   -2.6150 hc        1 SPL      0.038700
     57 H142       11.9980   -3.9390   -1.3120 hc        1 SPL      0.038700
     58 H151       14.0120   -3.3980   -2.7250 hc        1 SPL      0.042200
     59 H152       13.3890   -4.4820   -4.0280 hc        1 SPL      0.042200
     60 H161       14.0570   -5.3450   -1.1270 hc        1 SPL      0.039200
     61 H162       13.4340   -6.4290   -2.4300 hc        1 SPL      0.039200
     62 H171       16.0680   -4.8030   -2.5400 hc        1 SPL      0.040200
     63 H172       15.4450   -5.8860   -3.8430 hc        1 SPL      0.040200
     64 H181       17.1450   -7.0500   -2.4370 hc        1 SPL      0.034700
     65 H182       15.5260   -7.8410   -2.2580 hc        1 SPL      0.034700
     66 H183       16.1500   -6.7550   -0.9520 hc        1 SPL      0.034700
     67 H201        5.8010   -1.3260    1.2180 hc        1 SPL      0.108200
     68 H202        4.2440   -0.9470    2.0830 hc        1 SPL      0.108200
     69 H211        3.9160   -3.3990    2.5670 hc        1 SPL      0.068200
     70 H212        5.4370   -3.7940    1.6740 hc        1 SPL      0.068200
     71 H221        6.7520   -2.3520    3.2710 hc        1 SPL      0.049200
     72 H222        5.2310   -1.9410    4.1580 hc        1 SPL      0.049200
     73 H231        6.3780   -4.7940    3.7640 hc        1 SPL      0.047700
     74 H232        4.8600   -4.3830    4.6520 hc        1 SPL      0.047700
     75 H241        6.1800   -2.9380    6.2400 hc        1 SPL      0.043200
     76 H242        7.6980   -3.3510    5.3530 hc        1 SPL      0.043200
     77 H251        5.8060   -5.3780    6.7350 hc        1 SPL      0.042200
     78 H252        7.3240   -5.7910    5.8480 hc        1 SPL      0.042200
     79 H261        7.7170   -5.6790    8.3080 hc        1 SPL      0.038367
     80 H262        8.6500   -4.3800    7.4580 hc        1 SPL      0.038367
     81 H263        7.1280   -3.9660    8.3470 hc        1 SPL      0.038367
     82 H22         3.7470   -0.8430   -1.5350 hn        1 SPL      0.466800
@<TRIPOS>BOND
     1    1    2 1   
     2    1    3 1   
     3    1   31 1   
     4    1   32 1   
     5    2   33 1   
     6    3    4 1   
     7    3    5 1   
     8    3   34 1   
     9    4   22 1   
    10    4   35 1   
    11    4   82 1   
    12    5    6 1   
    13    5    7 1   
    14    5   36 1   
    15    6   37 1   
    16    7    8 2   
    17    7   38 1   
    18    8    9 1   
    19    8   39 1   
    20    9   10 1   
    21    9   40 1   
    22    9   41 1   
    23   10   11 1   
    24   10   42 1   
    25   10   43 1   
    26   11   12 1   
    27   11   44 1   
    28   11   45 1   
    29   12   13 1   
    30   12   46 1   
    31   12   47 1   
    32   13   14 1   
    33   13   48 1   
    34   13   49 1   
    35   14   15 1   
    36   14   50 1   
    37   14   51 1   
    38   15   16 1   
    39   15   52 1   
    40   15   53 1   
    41   16   17 1   
    42   16   54 1   
    43   16   55 1   
    44   17   18 1   
    45   17   56 1   
    46   17   57 1   
    47   18   19 1   
    48   18   58 1   
    49   18   59 1   
    50   19   20 1   
    51   19   60 1   
    52   19   61 1   
    53   20   21 1   
    54   20   62 1   
    55   20   63 1   
    56   21   64 1   
    57   21   65 1   
    58   21   66 1   
    59   22   23 2   
    60   22   24 1   
    61   24   25 1   
    62   24   67 1   
    63   24   68 1   
    64   25   26 1   
    65   25   69 1   
    66   25   70 1   
    67   26   27 1   
    68   26   71 1   
    69   26   72 1   
    70   27   28 1   
    71   27   73 1   
    72   27   74 1   
    73   28   29 1   
    74   28   75 1   
    75   28   76 1   
    76   29   30 1   
    77   29   77 1   
    78   29   78 1   
    79   30   79 1   
    80   30   80 1   
    81   30   81 1   
@<TRIPOS>SUBSTRUCTURE
     1 SPL         1 TEMP              0 ****  ****    0 ROOT
