@<TRIPOS>MOLECULE
SPM
   44    43     1     0     0
SMALL
bcc


@<TRIPOS>ATOM
      1 N1         -0.1440    0.0000   -0.1820 n4        1 SPM     -0.837600
      2 C2          1.3380   -0.0000   -0.0370 c3        1 SPM      0.105800
      3 C3          1.8170    0.0000    1.4180 c3        1 SPM     -0.138400
      4 C4          3.3490   -0.0000    1.4280 c3        1 SPM      0.108800
      5 N5          3.9280   -0.0000    2.8110 n4        1 SPM     -0.764000
      6 C6          5.4300   -0.0000    2.7870 c3        1 SPM      0.107800
      7 C7          6.0530   -0.0010    4.1860 c3        1 SPM     -0.106400
      8 C8          7.5720   -0.0010    4.0730 c3        1 SPM     -0.106400
      9 C9          8.1950   -0.0010    5.4720 c3        1 SPM      0.107800
     10 N10         9.6970   -0.0010    5.4480 n4        1 SPM     -0.764000
     11 C11        10.2760   -0.0010    6.8310 c3        1 SPM      0.108800
     12 C12        11.8080   -0.0010    6.8410 c3        1 SPM     -0.138400
     13 C13        12.2870   -0.0010    8.2960 c3        1 SPM      0.105800
     14 N14        13.7690   -0.0010    8.4400 n4        1 SPM     -0.837600
     15 HN11       -0.5590   -0.8350    0.2520 hn        1 SPM      0.485467
     16 HN12       -0.3880    0.0000   -1.1860 hn        1 SPM      0.485467
     17 H21         1.7310    0.9170   -0.5710 hx        1 SPM      0.131700
     18 H22         1.7300   -0.9180   -0.5710 hx        1 SPM      0.131700
     19 H31         1.4250    0.9100    1.9520 hc        1 SPM      0.098700
     20 H32         1.4250   -0.9090    1.9520 hc        1 SPM      0.098700
     21 H41         3.7360   -0.9180    0.8940 hx        1 SPM      0.127700
     22 H42         3.7360    0.9170    0.8940 hx        1 SPM      0.127700
     23 HN5         3.5970    0.8310    3.3190 hn        1 SPM      0.464800
     24 H61         5.7620   -0.9180    2.2180 hx        1 SPM      0.122700
     25 H62         5.7620    0.9170    2.2180 hx        1 SPM      0.122700
     26 H71         5.7200    0.9080    4.7580 hc        1 SPM      0.087700
     27 H72         5.7200   -0.9090    4.7580 hc        1 SPM      0.087700
     28 H81         7.9050    0.9080    3.5010 hc        1 SPM      0.087700
     29 H82         7.9050   -0.9090    3.5010 hc        1 SPM      0.087700
     30 H91         7.8630   -0.9180    6.0410 hx        1 SPM      0.122700
     31 H92         7.8630    0.9170    6.0410 hx        1 SPM      0.122700
     32 HN0        10.0280    0.8310    4.9400 hn        1 SPM      0.464800
     33 H111        9.8890   -0.9190    7.3650 hx        1 SPM      0.127700
     34 H112        9.8890    0.9170    7.3650 hx        1 SPM      0.127700
     35 H121       12.2000   -0.9100    6.3070 hc        1 SPM      0.098700
     36 H122       12.2000    0.9080    6.3070 hc        1 SPM      0.098700
     37 H131       11.8950    0.9170    8.8300 hx        1 SPM      0.131700
     38 H132       11.8950   -0.9190    8.8300 hx        1 SPM      0.131700
     39 HN41       14.0130   -0.0010    9.4450 hn        1 SPM      0.485467
     40 HN42       14.1840   -0.8370    8.0070 hn        1 SPM      0.485467
     41 H13        -0.5590    0.8360    0.2520 hn        1 SPM      0.485467
     42 H52         3.5970   -0.8320    3.3200 hn        1 SPM      0.464800
     43 H102       10.0280   -0.8320    4.9390 hn        1 SPM      0.464800
     44 H143       14.1840    0.8340    8.0070 hn        1 SPM      0.485467
@<TRIPOS>BOND
     1    1    2 1   
     2    1   15 1   
     3    1   16 1   
     4    1   41 1   
     5    2    3 1   
     6    2   17 1   
     7    2   18 1   
     8    3    4 1   
     9    3   19 1   
    10    3   20 1   
    11    4    5 1   
    12    4   21 1   
    13    4   22 1   
    14    5    6 1   
    15    5   23 1   
    16    5   42 1   
    17    6    7 1   
    18    6   24 1   
    19    6   25 1   
    20    7    8 1   
    21    7   26 1   
    22    7   27 1   
    23    8    9 1   
    24    8   28 1   
    25    8   29 1   
    26    9   10 1   
    27    9   30 1   
    28    9   31 1   
    29   10   11 1   
    30   10   32 1   
    31   10   43 1   
    32   11   12 1   
    33   11   33 1   
    34   11   34 1   
    35   12   13 1   
    36   12   35 1   
    37   12   36 1   
    38   13   14 1   
    39   13   37 1   
    40   13   38 1   
    41   14   39 1   
    42   14   40 1   
    43   14   44 1   
@<TRIPOS>SUBSTRUCTURE
     1 SPM         1 TEMP              0 ****  ****    0 ROOT
