@<TRIPOS>MOLECULE
SPM
   40    39     1     0     0
SMALL
bcc


@<TRIPOS>ATOM
      1 N1         -0.2130   -0.1610    8.0230 n3        1 SPM     -0.916300
      2 C2          0.5020   -0.0440    6.7740 c3        1 SPM      0.159800
      3 C3         -0.4200    0.0410    5.5590 c3        1 SPM     -0.087900
      4 C4          0.4290    0.0880    4.2900 c3        1 SPM      0.164800
      5 N5         -0.3630    0.2400    3.0850 n3        1 SPM     -0.824700
      6 C6          0.4180    0.0860    1.8730 c3        1 SPM      0.164800
      7 C7         -0.4400    0.0520    0.6100 c3        1 SPM     -0.083400
      8 C8          0.4460   -0.0450   -0.6130 c3        1 SPM     -0.083400
      9 C9         -0.4120   -0.0830   -1.8770 c3        1 SPM      0.164800
     10 N10         0.3690   -0.2290   -3.0890 n3        1 SPM     -0.824700
     11 C11        -0.4240   -0.0890   -4.2930 c3        1 SPM      0.164800
     12 C12         0.4220   -0.0380   -5.5640 c3        1 SPM     -0.087900
     13 C13        -0.5020    0.0530   -6.7770 c3        1 SPM      0.159800
     14 N14         0.2070    0.0620   -8.0340 n3        1 SPM     -0.916300
     15 HN11       -0.9190    0.5440    8.1020 hn        1 SPM      0.349050
     16 HN12        0.4200   -0.0810    8.7930 hn        1 SPM      0.349050
     17 H21         1.1920    0.8530    6.7520 h1        1 SPM      0.024700
     18 H22         1.1530   -0.9600    6.6760 h1        1 SPM      0.024700
     19 H31        -1.1020   -0.8480    5.5340 hc        1 SPM      0.053700
     20 H32        -1.0610    0.9580    5.6250 hc        1 SPM      0.053700
     21 H41         1.1250    0.9740    4.3430 h1        1 SPM      0.028700
     22 H42         1.0770   -0.8400    4.2600 h1        1 SPM      0.028700
     23 HN5        -1.1390   -0.3960    3.0890 hn        1 SPM      0.356300
     24 H61         1.1200    0.9660    1.8160 h1        1 SPM      0.028950
     25 H62         1.0580   -0.8470    1.8930 h1        1 SPM      0.028950
     26 H71        -1.1360   -0.8270    0.6420 hc        1 SPM      0.047700
     27 H72        -1.0710    0.9770    0.5500 hc        1 SPM      0.047700
     28 H81         1.1410    0.8340   -0.6460 hc        1 SPM      0.047700
     29 H82         1.0780   -0.9700   -0.5530 hc        1 SPM      0.047700
     30 H91        -1.1090   -0.9660   -1.8210 h1        1 SPM      0.028950
     31 H92        -1.0570    0.8470   -1.8950 h1        1 SPM      0.028950
     32 HN0         1.1400    0.4130   -3.0940 hn        1 SPM      0.356300
     33 H111       -1.1110   -0.9820   -4.3450 h1        1 SPM      0.028700
     34 H112       -1.0810    0.8320   -4.2640 h1        1 SPM      0.028700
     35 H121        1.1070    0.8500   -5.5350 hc        1 SPM      0.053700
     36 H122        1.0610   -0.9560   -5.6370 hc        1 SPM      0.053700
     37 H131       -1.1820   -0.8480   -6.7840 h1        1 SPM      0.024700
     38 H132       -1.1630    0.9630   -6.6470 h1        1 SPM      0.024700
     39 HN41       -0.4250    0.2400   -8.7880 hn        1 SPM      0.349050
     40 HN42        0.9290    0.7540   -8.0370 hn        1 SPM      0.349050
@<TRIPOS>BOND
     1    1    2 1   
     2    1   15 1   
     3    1   16 1   
     4    2    3 1   
     5    2   17 1   
     6    2   18 1   
     7    3    4 1   
     8    3   19 1   
     9    3   20 1   
    10    4    5 1   
    11    4   21 1   
    12    4   22 1   
    13    5    6 1   
    14    5   23 1   
    15    6    7 1   
    16    6   24 1   
    17    6   25 1   
    18    7    8 1   
    19    7   26 1   
    20    7   27 1   
    21    8    9 1   
    22    8   28 1   
    23    8   29 1   
    24    9   10 1   
    25    9   30 1   
    26    9   31 1   
    27   10   11 1   
    28   10   32 1   
    29   11   12 1   
    30   11   33 1   
    31   11   34 1   
    32   12   13 1   
    33   12   35 1   
    34   12   36 1   
    35   13   14 1   
    36   13   37 1   
    37   13   38 1   
    38   14   39 1   
    39   14   40 1   
@<TRIPOS>SUBSTRUCTURE
     1 SPM         1 TEMP              0 ****  ****    0 ROOT
