@<TRIPOS>MOLECULE
SPN
  113   112     1     0     0
SMALL
bcc


@<TRIPOS>ATOM
      1 CMA         0.3000   -0.9340   -2.3540 c3        1 SPN      0.118700
      2 O1          1.6710   -0.8590   -2.0080 os        1 SPN     -0.426600
      3 CM1         2.4160    0.2330   -4.0570 c3        1 SPN     -0.117100
      4 CM2         1.7430    1.5810   -2.0500 c3        1 SPN     -0.117100
      5 C1          2.3680    0.2790   -2.5340 c3        1 SPN      0.051800
      6 C2          3.8040    0.1820   -1.9960 c         1 SPN      0.586100
      7 O2          4.6070    1.0850   -2.2440 o         1 SPN     -0.534100
      8 C3          4.1330   -1.0380   -1.1910 c3        1 SPN     -0.134200
      9 C4          5.5400   -1.1020   -0.7410 c2        1 SPN     -0.174200
     10 C5          6.0530   -2.1560   -0.0860 c2        1 SPN     -0.120400
     11 CM3         5.2460   -3.3580    0.2310 c3        1 SPN     -0.061900
     12 C6          7.4820   -2.1830    0.3370 c3        1 SPN     -0.039200
     13 C7          7.6270   -1.9670    1.8330 c3        1 SPN     -0.043200
     14 C8          9.0420   -2.0350    2.2680 c2        1 SPN     -0.173200
     15 C9          9.4480   -1.7300    3.5110 c2        1 SPN     -0.124400
     16 CM4         8.5020   -1.2870    4.5630 c3        1 SPN     -0.058900
     17 C10        10.8820   -1.8310    3.9060 c3        1 SPN     -0.038200
     18 C11        11.4890   -0.4630    4.1640 c3        1 SPN     -0.043200
     19 C12        12.8980   -0.5560    4.6110 c2        1 SPN     -0.174200
     20 C13        13.7010    0.5110    4.7520 c2        1 SPN     -0.122400
     21 CM5        13.2390    1.8890    4.4590 c3        1 SPN     -0.058900
     22 C14        15.1080    0.3670    5.2210 c3        1 SPN     -0.040200
     23 C15        16.1040    0.6990    4.1260 c3        1 SPN     -0.076400
     24 C16        17.5250    0.6070    4.6380 c3        1 SPN     -0.076400
     25 C17        18.5210    0.9250    3.5390 c3        1 SPN     -0.040200
     26 C18        19.9250    0.8970    4.0390 c2        1 SPN     -0.123400
     27 CM6        20.3080    1.9670    4.9910 c3        1 SPN     -0.057900
     28 C19        20.7920   -0.0470    3.6380 c2        1 SPN     -0.173200
     29 C20        22.2010   -0.1090    4.0920 c3        1 SPN     -0.046200
     30 C21        22.8820   -1.3910    3.6570 c3        1 SPN     -0.074400
     31 C22        24.3110   -1.4900    4.1750 c3        1 SPN     -0.065700
     32 CM7        25.2250   -0.5420    3.4260 c3        1 SPN     -0.090100
     33 C23        24.8020   -2.9270    4.0540 c3        1 SPN     -0.074400
     34 C24        26.0450   -3.1820    4.8830 c3        1 SPN     -0.047200
     35 C25        26.4790   -4.5960    4.8120 c2        1 SPN     -0.172200
     36 C26        27.4390   -5.1180    5.5930 c2        1 SPN     -0.125400
     37 CM8        28.1450   -4.3150    6.6200 c3        1 SPN     -0.058900
     38 C27        27.8310   -6.5520    5.4870 c3        1 SPN     -0.039200
     39 C28        29.1570   -6.7190    4.7660 c3        1 SPN     -0.042200
     40 C29        29.5750   -8.1380    4.6930 c2        1 SPN     -0.177200
     41 C30        30.7480   -8.5360    4.1760 c2        1 SPN     -0.124400
     42 CM9        31.1310   -9.9670    4.1160 c3        1 SPN     -0.057400
     43 CMB        31.7400   -7.5750    3.6360 c3        1 SPN     -0.057400
     44 HMA1       -0.2670   -0.0690   -1.9320 h1        1 SPN      0.036367
     45 HMA2       -0.0440   -1.8910   -1.8840 h1        1 SPN      0.036367
     46 HMA3        0.1670   -0.9770   -3.4630 h1        1 SPN      0.036367
     47 HM11        3.1810    0.9580   -4.4260 hc        1 SPN      0.052867
     48 HM12        2.6860   -0.7940   -4.4000 hc        1 SPN      0.052867
     49 HM13        1.4250    0.5070   -4.4890 hc        1 SPN      0.052867
     50 HM21        2.4500    2.4250   -2.2400 hc        1 SPN      0.052867
     51 HM22        0.7890    1.7820   -2.5930 hc        1 SPN      0.052867
     52 HM23        1.5290    1.5200   -0.9570 hc        1 SPN      0.052867
     53 H31         3.8770   -1.9430   -1.8120 hc        1 SPN      0.086700
     54 H32         3.4370   -1.0600   -0.3040 hc        1 SPN      0.086700
     55 H4          6.1610   -0.2210   -0.9760 ha        1 SPN      0.146000
     56 HM31        4.2780   -3.0670    0.7120 hc        1 SPN      0.041700
     57 HM32        5.7910   -4.0450    0.9230 hc        1 SPN      0.041700
     58 HM33        5.0080   -3.9200   -0.7080 hc        1 SPN      0.041700
     59 H61         7.9280   -3.1760    0.0580 hc        1 SPN      0.047700
     60 H62         8.0640   -1.3920   -0.2070 hc        1 SPN      0.047700
     61 H71         7.0300   -2.7440    2.3850 hc        1 SPN      0.050200
     62 H72         7.1930   -0.9680    2.1110 hc        1 SPN      0.050200
     63 H8          9.7680   -2.3590    1.5050 ha        1 SPN      0.123000
     64 HM41        7.6220   -1.9780    4.6150 hc        1 SPN      0.041033
     65 HM42        8.9910   -1.2610    5.5670 hc        1 SPN      0.041033
     66 HM43        8.1200   -0.2610    4.3290 hc        1 SPN      0.041033
     67 H101       11.4730   -2.3510    3.1060 hc        1 SPN      0.045700
     68 H102       10.9620   -2.4570    4.8360 hc        1 SPN      0.045700
     69 H111       10.8830    0.0730    4.9460 hc        1 SPN      0.050700
     70 H112       11.4280    0.1560    3.2270 hc        1 SPN      0.050700
     71 H12        13.2690   -1.5700    4.8330 ha        1 SPN      0.122000
     72 HM51       13.1140    2.0260    3.3550 hc        1 SPN      0.041367
     73 HM52       12.2490    2.0820    4.9440 hc        1 SPN      0.041367
     74 HM53       13.9690    2.6510    4.8280 hc        1 SPN      0.041367
     75 H141       15.2730    1.0530    6.0960 hc        1 SPN      0.044200
     76 H142       15.2950   -0.6800    5.5830 hc        1 SPN      0.044200
     77 H151       15.9650   -0.0070    3.2660 hc        1 SPN      0.042700
     78 H152       15.9060    1.7340    3.7410 hc        1 SPN      0.042700
     79 H161       17.7180   -0.4260    5.0320 hc        1 SPN      0.042200
     80 H162       17.6690    1.3200    5.4920 hc        1 SPN      0.042200
     81 H171       18.3910    0.1900    2.6990 hc        1 SPN      0.044700
     82 H172       18.3030    1.9450    3.1220 hc        1 SPN      0.044700
     83 HM61       21.2820    2.4300    4.6900 hc        1 SPN      0.040367
     84 HM62       19.5330    2.7700    5.0350 hc        1 SPN      0.040367
     85 HM63       20.4320    1.5400    6.0190 hc        1 SPN      0.040367
     86 H19        20.4780   -0.8320    2.9300 ha        1 SPN      0.122000
     87 H201       22.2410   -0.0220    5.2130 hc        1 SPN      0.047700
     88 H202       22.7590    0.7780    3.6800 hc        1 SPN      0.047700
     89 H211       22.2870   -2.2630    4.0390 hc        1 SPN      0.041700
     90 H212       22.8860   -1.4560    2.5380 hc        1 SPN      0.041700
     91 H22        24.3140   -1.2050    5.2650 hc        1 SPN      0.047700
     92 HM71       24.8700    0.5110    3.5360 hc        1 SPN      0.033700
     93 HM72       25.2490   -0.7950    2.3390 hc        1 SPN      0.033700
     94 HM73       26.2650   -0.6030    3.8270 hc        1 SPN      0.033700
     95 H231       23.9920   -3.6260    4.3940 hc        1 SPN      0.042200
     96 H232       25.0120   -3.1600    2.9770 hc        1 SPN      0.042200
     97 H241       25.8470   -2.9010    5.9550 hc        1 SPN      0.047700
     98 H242       26.8830   -2.5220    4.5260 hc        1 SPN      0.047700
     99 H25        25.9670   -5.2220    4.0630 ha        1 SPN      0.123000
    100 HM81       29.0510   -4.8470    7.0010 hc        1 SPN      0.041033
    101 HM82       28.4640   -3.3280    6.2000 hc        1 SPN      0.041033
    102 HM83       27.4620   -4.1160    7.4860 hc        1 SPN      0.041033
    103 H271       27.0400   -7.1330    4.9420 hc        1 SPN      0.046200
    104 H272       27.9120   -6.9880    6.5200 hc        1 SPN      0.046200
    105 H281       29.9500   -6.1180    5.2910 hc        1 SPN      0.050200
    106 H282       29.0720   -6.3000    3.7250 hc        1 SPN      0.050200
    107 H29        28.8580   -8.8760    5.0890 ha        1 SPN      0.122000
    108 HM91       32.0890  -10.1320    4.6710 hc        1 SPN      0.040367
    109 HM92       31.2870  -10.2780    3.0530 hc        1 SPN      0.040367
    110 HM93       30.3460  -10.6250    4.5640 hc        1 SPN      0.040367
    111 HMB1       31.2640   -6.9130    2.8690 hc        1 SPN      0.040367
    112 HMB2       32.6030   -8.1040    3.1620 hc        1 SPN      0.040367
    113 HMB3       32.1320   -6.9230    4.4570 hc        1 SPN      0.040367
@<TRIPOS>BOND
     1    1    2 1   
     2    1   44 1   
     3    1   45 1   
     4    1   46 1   
     5    2    5 1   
     6    3    5 1   
     7    3   47 1   
     8    3   48 1   
     9    3   49 1   
    10    4    5 1   
    11    4   50 1   
    12    4   51 1   
    13    4   52 1   
    14    5    6 1   
    15    6    7 2   
    16    6    8 1   
    17    8    9 1   
    18    8   53 1   
    19    8   54 1   
    20    9   10 2   
    21    9   55 1   
    22   10   11 1   
    23   10   12 1   
    24   11   56 1   
    25   11   57 1   
    26   11   58 1   
    27   12   13 1   
    28   12   59 1   
    29   12   60 1   
    30   13   14 1   
    31   13   61 1   
    32   13   62 1   
    33   14   15 2   
    34   14   63 1   
    35   15   16 1   
    36   15   17 1   
    37   16   64 1   
    38   16   65 1   
    39   16   66 1   
    40   17   18 1   
    41   17   67 1   
    42   17   68 1   
    43   18   19 1   
    44   18   69 1   
    45   18   70 1   
    46   19   20 2   
    47   19   71 1   
    48   20   21 1   
    49   20   22 1   
    50   21   72 1   
    51   21   73 1   
    52   21   74 1   
    53   22   23 1   
    54   22   75 1   
    55   22   76 1   
    56   23   24 1   
    57   23   77 1   
    58   23   78 1   
    59   24   25 1   
    60   24   79 1   
    61   24   80 1   
    62   25   26 1   
    63   25   81 1   
    64   25   82 1   
    65   26   27 1   
    66   26   28 2   
    67   27   83 1   
    68   27   84 1   
    69   27   85 1   
    70   28   29 1   
    71   28   86 1   
    72   29   30 1   
    73   29   87 1   
    74   29   88 1   
    75   30   31 1   
    76   30   89 1   
    77   30   90 1   
    78   31   32 1   
    79   31   33 1   
    80   31   91 1   
    81   32   92 1   
    82   32   93 1   
    83   32   94 1   
    84   33   34 1   
    85   33   95 1   
    86   33   96 1   
    87   34   35 1   
    88   34   97 1   
    89   34   98 1   
    90   35   36 2   
    91   35   99 1   
    92   36   37 1   
    93   36   38 1   
    94   37  100 1   
    95   37  101 1   
    96   37  102 1   
    97   38   39 1   
    98   38  103 1   
    99   38  104 1   
   100   39   40 1   
   101   39  105 1   
   102   39  106 1   
   103   40   41 2   
   104   40  107 1   
   105   41   42 1   
   106   41   43 1   
   107   42  108 1   
   108   42  109 1   
   109   42  110 1   
   110   43  111 1   
   111   43  112 1   
   112   43  113 1   
@<TRIPOS>SUBSTRUCTURE
     1 SPN         1 TEMP              0 ****  ****    0 ROOT
