@<TRIPOS>MOLECULE
SPN
  113   112     1     0     0
SMALL
bcc


@<TRIPOS>ATOM
      1 CMA         0.5440   -2.5130   15.9970 c3        1 SPN      0.118700
      2 O1          0.3220   -2.2980   14.6150 os        1 SPN     -0.426600
      3 CM1        -1.7530   -3.5720   14.4670 c3        1 SPN     -0.117100
      4 CM2        -1.7850   -1.1080   14.9440 c3        1 SPN     -0.117100
      5 C1         -1.0580   -2.2370   14.2260 c3        1 SPN      0.051800
      6 C2         -1.0580   -1.9520   12.7150 c         1 SPN      0.586100
      7 O2         -2.1320   -1.7820   12.1310 o         1 SPN     -0.534100
      8 C3          0.2810   -1.9040   12.0460 c3        1 SPN     -0.134200
      9 C4          0.2170   -1.6730   10.5860 c2        1 SPN     -0.174200
     10 C5          1.3020   -1.6860    9.7940 c2        1 SPN     -0.120400
     11 CM3         2.6620   -1.9460   10.3220 c3        1 SPN     -0.061900
     12 C6          1.1890   -1.4610    8.3250 c3        1 SPN     -0.039200
     13 C7          1.6800   -0.0800    7.9300 c3        1 SPN     -0.043200
     14 C8          1.6210    0.1310    6.4650 c2        1 SPN     -0.173200
     15 C9          2.1430    1.2040    5.8490 c2        1 SPN     -0.124400
     16 CM4         2.8480    2.2760    6.5930 c3        1 SPN     -0.058900
     17 C10         2.0650    1.3640    4.3690 c3        1 SPN     -0.038200
     18 C11         1.0140    2.3860    3.9710 c3        1 SPN     -0.043200
     19 C12         0.9530    2.5750    2.5030 c2        1 SPN     -0.175200
     20 C13         0.0030    3.2990    1.8900 c2        1 SPN     -0.122400
     21 CM5        -1.0850    3.9700    2.6410 c3        1 SPN     -0.058900
     22 C14        -0.0060    3.4730    0.4100 c3        1 SPN     -0.040200
     23 C15        -1.1830    2.7650   -0.2340 c3        1 SPN     -0.076400
     24 C16        -1.2100    3.0040   -1.7280 c3        1 SPN     -0.076400
     25 C17        -2.3780    2.2840   -2.3740 c3        1 SPN     -0.040200
     26 C18        -2.4570    2.5560   -3.8370 c2        1 SPN     -0.123400
     27 CM6        -2.8130    3.9400   -4.2330 c3        1 SPN     -0.057900
     28 C19        -2.2210    1.5920   -4.7420 c2        1 SPN     -0.173200
     29 C20        -2.3030    1.8080   -6.2060 c3        1 SPN     -0.047200
     30 C21        -1.7800    0.6170   -6.9840 c3        1 SPN     -0.074400
     31 C22        -1.8020    0.8570   -8.4890 c3        1 SPN     -0.065700
     32 CM7        -3.2180    0.8100   -9.0240 c3        1 SPN     -0.090100
     33 C23        -0.9230   -0.1750   -9.1850 c3        1 SPN     -0.074400
     34 C24        -0.5910    0.2210  -10.6100 c3        1 SPN     -0.047200
     35 C25         0.3150   -0.7550  -11.2590 c2        1 SPN     -0.172200
     36 C26         0.9010   -0.5440  -12.4500 c2        1 SPN     -0.125400
     37 CM8         0.7010    0.7080  -13.2180 c3        1 SPN     -0.058900
     38 C27         1.8130   -1.5560  -13.0550 c3        1 SPN     -0.039200
     39 C28         1.1410   -2.3110  -14.1880 c3        1 SPN     -0.042200
     40 C29         2.0540   -3.2890  -14.8220 c2        1 SPN     -0.177200
     41 C30         1.7210   -4.0190  -15.8990 c2        1 SPN     -0.124400
     42 CM9         2.6600   -4.9930  -16.5050 c3        1 SPN     -0.057400
     43 CMB         0.3960   -3.9000  -16.5550 c3        1 SPN     -0.057400
     44 HMA1        0.0860   -3.4750   16.3330 h1        1 SPN      0.036367
     45 HMA2        1.6590   -2.5610   16.0860 h1        1 SPN      0.036367
     46 HMA3        0.1430   -1.6630   16.6030 h1        1 SPN      0.036367
     47 HM11       -1.1090   -4.4100   14.1080 hc        1 SPN      0.052867
     48 HM12       -1.9560   -3.7160   15.5550 hc        1 SPN      0.052867
     49 HM13       -2.7240   -3.5900   13.9150 hc        1 SPN      0.052867
     50 HM21       -1.1630   -0.1810   14.9290 hc        1 SPN      0.052867
     51 HM22       -2.7570   -0.9070   14.4320 hc        1 SPN      0.052867
     52 HM23       -1.9880   -1.3880   16.0050 hc        1 SPN      0.052867
     53 H31         0.8840   -1.0920   12.5430 hc        1 SPN      0.086700
     54 H32         0.8150   -2.8710   12.2680 hc        1 SPN      0.086700
     55 H4         -0.7890   -1.4870   10.1720 ha        1 SPN      0.146000
     56 HM31        2.8720   -1.2950   11.2080 hc        1 SPN      0.041700
     57 HM32        2.7480   -3.0130   10.6520 hc        1 SPN      0.041700
     58 HM33        3.4440   -1.7530    9.5480 hc        1 SPN      0.041700
     59 H61         1.7940   -2.2400    7.7870 hc        1 SPN      0.047700
     60 H62         0.1220   -1.5820    7.9930 hc        1 SPN      0.047700
     61 H71         1.0540    0.7000    8.4440 hc        1 SPN      0.050200
     62 H72         2.7360    0.0620    8.2920 hc        1 SPN      0.050200
     63 H8          1.1090   -0.6530    5.8830 ha        1 SPN      0.123000
     64 HM41        2.2640    2.5770    7.4980 hc        1 SPN      0.041033
     65 HM42        3.8490    1.9100    6.9340 hc        1 SPN      0.041033
     66 HM43        3.0020    3.1800    5.9540 hc        1 SPN      0.041033
     67 H101        3.0680    1.6890    3.9810 hc        1 SPN      0.045200
     68 H102        1.8240    0.3810    3.8830 hc        1 SPN      0.045200
     69 H111        0.0090    2.0580    4.3540 hc        1 SPN      0.050700
     70 H112        1.2420    3.3710    4.4650 hc        1 SPN      0.050700
     71 H12         1.7480    2.0840    1.9180 ha        1 SPN      0.122000
     72 HM51       -1.8060    3.2100    3.0350 hc        1 SPN      0.041367
     73 HM52       -0.6690    4.5340    3.5140 hc        1 SPN      0.041367
     74 HM53       -1.6470    4.6860    1.9930 hc        1 SPN      0.041367
     75 H141       -0.0560    4.5710    0.1720 hc        1 SPN      0.044200
     76 H142        0.9480    3.0830   -0.0360 hc        1 SPN      0.044200
     77 H151       -1.1170    1.6640   -0.0290 hc        1 SPN      0.042700
     78 H152       -2.1390    3.1310    0.2260 hc        1 SPN      0.042700
     79 H161       -1.2870    4.1040   -1.9350 hc        1 SPN      0.042200
     80 H162       -0.2500    2.6470   -2.1850 hc        1 SPN      0.042200
     81 H171       -2.2800    1.1810   -2.1860 hc        1 SPN      0.044700
     82 H172       -3.3360    2.6170   -1.8890 hc        1 SPN      0.044700
     83 HM61       -3.6150    3.9300   -5.0140 hc        1 SPN      0.040367
     84 HM62       -3.1780    4.5330   -3.3590 hc        1 SPN      0.040367
     85 HM63       -1.9190    4.4590   -4.6630 hc        1 SPN      0.040367
     86 H19        -1.9560    0.5730   -4.4180 ha        1 SPN      0.122000
     87 H201       -3.3730    2.0080   -6.4890 hc        1 SPN      0.047700
     88 H202       -1.7180    2.7270   -6.4860 hc        1 SPN      0.047700
     89 H211       -0.7280    0.4060   -6.6570 hc        1 SPN      0.041700
     90 H212       -2.3930   -0.2910   -6.7430 hc        1 SPN      0.041700
     91 H22        -1.3750    1.8800   -8.6910 hc        1 SPN      0.047700
     92 HM71       -3.6750   -0.1920   -8.8420 hc        1 SPN      0.033700
     93 HM72       -3.8510    1.5830   -8.5230 hc        1 SPN      0.033700
     94 HM73       -3.2280    1.0090  -10.1230 hc        1 SPN      0.033700
     95 H231        0.0340   -0.2960   -8.6110 hc        1 SPN      0.042200
     96 H232       -1.4420   -1.1700   -9.1800 hc        1 SPN      0.042200
     97 H241       -1.5370    0.3020  -11.2130 hc        1 SPN      0.047700
     98 H242       -0.1160    1.2410  -10.6160 hc        1 SPN      0.047700
     99 H25         0.4900   -1.6930  -10.7090 ha        1 SPN      0.123000
    100 HM81        1.2530    1.5500  -12.7280 hc        1 SPN      0.041033
    101 HM82        1.0740    0.6050  -14.2670 hc        1 SPN      0.041033
    102 HM83       -0.3840    0.9810  -13.2530 hc        1 SPN      0.041033
    103 H271        2.7300   -1.0370  -13.4450 hc        1 SPN      0.046200
    104 H272        2.1540   -2.2890  -12.2760 hc        1 SPN      0.046200
    105 H281        0.2330   -2.8460  -13.7940 hc        1 SPN      0.050200
    106 H282        0.7730   -1.5800  -14.9610 hc        1 SPN      0.050200
    107 H29         3.0470   -3.3980  -14.3580 ha        1 SPN      0.122000
    108 HM91        2.8430   -4.7330  -17.5770 hc        1 SPN      0.040367
    109 HM92        3.6420   -5.0060  -15.9720 hc        1 SPN      0.040367
    110 HM93        2.2230   -6.0220  -16.4660 hc        1 SPN      0.040367
    111 HMB1       -0.4240   -4.0430  -15.8070 hc        1 SPN      0.040367
    112 HMB2        0.2780   -2.8810  -17.0030 hc        1 SPN      0.040367
    113 HMB3        0.2730   -4.6590  -17.3660 hc        1 SPN      0.040367
@<TRIPOS>BOND
     1    1    2 1   
     2    1   44 1   
     3    1   45 1   
     4    1   46 1   
     5    2    5 1   
     6    3    5 1   
     7    3   47 1   
     8    3   48 1   
     9    3   49 1   
    10    4    5 1   
    11    4   50 1   
    12    4   51 1   
    13    4   52 1   
    14    5    6 1   
    15    6    7 2   
    16    6    8 1   
    17    8    9 1   
    18    8   53 1   
    19    8   54 1   
    20    9   10 2   
    21    9   55 1   
    22   10   11 1   
    23   10   12 1   
    24   11   56 1   
    25   11   57 1   
    26   11   58 1   
    27   12   13 1   
    28   12   59 1   
    29   12   60 1   
    30   13   14 1   
    31   13   61 1   
    32   13   62 1   
    33   14   15 2   
    34   14   63 1   
    35   15   16 1   
    36   15   17 1   
    37   16   64 1   
    38   16   65 1   
    39   16   66 1   
    40   17   18 1   
    41   17   67 1   
    42   17   68 1   
    43   18   19 1   
    44   18   69 1   
    45   18   70 1   
    46   19   20 2   
    47   19   71 1   
    48   20   21 1   
    49   20   22 1   
    50   21   72 1   
    51   21   73 1   
    52   21   74 1   
    53   22   23 1   
    54   22   75 1   
    55   22   76 1   
    56   23   24 1   
    57   23   77 1   
    58   23   78 1   
    59   24   25 1   
    60   24   79 1   
    61   24   80 1   
    62   25   26 1   
    63   25   81 1   
    64   25   82 1   
    65   26   27 1   
    66   26   28 2   
    67   27   83 1   
    68   27   84 1   
    69   27   85 1   
    70   28   29 1   
    71   28   86 1   
    72   29   30 1   
    73   29   87 1   
    74   29   88 1   
    75   30   31 1   
    76   30   89 1   
    77   30   90 1   
    78   31   32 1   
    79   31   33 1   
    80   31   91 1   
    81   32   92 1   
    82   32   93 1   
    83   32   94 1   
    84   33   34 1   
    85   33   95 1   
    86   33   96 1   
    87   34   35 1   
    88   34   97 1   
    89   34   98 1   
    90   35   36 2   
    91   35   99 1   
    92   36   37 1   
    93   36   38 1   
    94   37  100 1   
    95   37  101 1   
    96   37  102 1   
    97   38   39 1   
    98   38  103 1   
    99   38  104 1   
   100   39   40 1   
   101   39  105 1   
   102   39  106 1   
   103   40   41 2   
   104   40  107 1   
   105   41   42 1   
   106   41   43 1   
   107   42  108 1   
   108   42  109 1   
   109   42  110 1   
   110   43  111 1   
   111   43  112 1   
   112   43  113 1   
@<TRIPOS>SUBSTRUCTURE
     1 SPN         1 TEMP              0 ****  ****    0 ROOT
