@<TRIPOS>MOLECULE
SPN
  113   112     1     0     0
SMALL
bcc


@<TRIPOS>ATOM
      1 CMA         0.2300   -0.9530   -2.2230 c3        1 SPN      0.118700
      2 O1          1.6050   -0.8780   -1.8930 os        1 SPN     -0.426600
      3 CM1         2.3230    0.1920   -3.9650 c3        1 SPN     -0.117100
      4 CM2         1.6870    1.5610   -1.9600 c3        1 SPN     -0.117100
      5 C1          2.2980    0.2520   -2.4420 c3        1 SPN      0.051800
      6 C2          3.7420    0.1530   -1.9240 c         1 SPN      0.586100
      7 O2          4.5460    1.0480   -2.1990 o         1 SPN     -0.534100
      8 C3          4.0770   -1.0570   -1.1080 c3        1 SPN     -0.134200
      9 C4          5.4900   -1.1220   -0.6760 c2        1 SPN     -0.174200
     10 C5          6.0060   -2.1680   -0.0110 c2        1 SPN     -0.120400
     11 CM3         5.1970   -3.3610    0.3360 c3        1 SPN     -0.061900
     12 C6          7.4400   -2.1950    0.3940 c3        1 SPN     -0.039200
     13 C7          7.6060   -1.9550    1.8840 c3        1 SPN     -0.043200
     14 C8          9.0260   -2.0220    2.3020 c2        1 SPN     -0.173200
     15 C9          9.4500   -1.6950    3.5330 c2        1 SPN     -0.124400
     16 CM4         8.5200   -1.2250    4.5880 c3        1 SPN     -0.058900
     17 C10        10.8880   -1.7950    3.9110 c3        1 SPN     -0.038200
     18 C11        11.5060   -0.4250    4.1300 c3        1 SPN     -0.044200
     19 C12        12.9190   -0.5160    4.5640 c2        1 SPN     -0.174200
     20 C13        13.7320    0.5480    4.6650 c2        1 SPN     -0.122400
     21 CM5        13.2780    1.9200    4.3340 c3        1 SPN     -0.058900
     22 C14        15.1430    0.4070    5.1240 c3        1 SPN     -0.040200
     23 C15        16.1300    0.6960    4.0090 c3        1 SPN     -0.076400
     24 C16        17.5560    0.6140    4.5110 c3        1 SPN     -0.076400
     25 C17        18.5430    0.8840    3.3910 c3        1 SPN     -0.040200
     26 C18        19.9510    0.8730    3.8810 c2        1 SPN     -0.123400
     27 CM6        20.3450    1.9810    4.7840 c3        1 SPN     -0.057900
     28 C19        20.8120   -0.0900    3.5140 c2        1 SPN     -0.173200
     29 C20        22.2250   -0.1370    3.9580 c3        1 SPN     -0.047200
     30 C21        22.8970   -1.4410    3.5780 c3        1 SPN     -0.074400
     31 C22        24.3310   -1.5200    4.0850 c3        1 SPN     -0.065700
     32 CM7        25.2410   -0.6160    3.2780 c3        1 SPN     -0.090100
     33 C23        24.8150   -2.9640    4.0340 c3        1 SPN     -0.074400
     34 C24        26.0660   -3.1800    4.8600 c3        1 SPN     -0.047200
     35 C25        26.4940   -4.5990    4.8590 c2        1 SPN     -0.172200
     36 C26        27.4590   -5.0830    5.6580 c2        1 SPN     -0.125400
     37 CM8        28.1790   -4.2300    6.6340 c3        1 SPN     -0.058900
     38 C27        27.8450   -6.5220    5.6240 c3        1 SPN     -0.039200
     39 C28        29.1630   -6.7330    4.9000 c3        1 SPN     -0.042200
     40 C29        29.5740   -8.1560    4.8990 c2        1 SPN     -0.177200
     41 C30        30.7450   -8.5860    4.4020 c2        1 SPN     -0.124400
     42 CM9        31.1210  -10.0200    4.4140 c3        1 SPN     -0.057400
     43 CMB        31.7390   -7.6590    3.8100 c3        1 SPN     -0.057400
     44 HMA1       -0.1130   -1.9010   -1.7340 h1        1 SPN      0.036367
     45 HMA2       -0.3290   -0.0790   -1.8070 h1        1 SPN      0.036367
     46 HMA3        0.0840   -1.0130   -3.3290 h1        1 SPN      0.036367
     47 HM11        3.0850    0.9100   -4.3520 hc        1 SPN      0.052700
     48 HM12        1.3250    0.4670   -4.3830 hc        1 SPN      0.052700
     49 HM13        2.5820   -0.8400   -4.3030 hc        1 SPN      0.052700
     50 HM21        1.4890    1.5110   -0.8620 hc        1 SPN      0.052700
     51 HM22        0.7260    1.7620   -2.4890 hc        1 SPN      0.052700
     52 HM23        2.3950    2.4000   -2.1670 hc        1 SPN      0.052700
     53 H31         3.8080   -1.9690   -1.7130 hc        1 SPN      0.086700
     54 H32         3.3930   -1.0640   -0.2110 hc        1 SPN      0.086700
     55 H4          6.1120   -0.2470   -0.9330 ha        1 SPN      0.146000
     56 HM31        5.7480   -4.0390    1.0320 hc        1 SPN      0.041700
     57 HM32        4.2370   -3.0570    0.8250 hc        1 SPN      0.041700
     58 HM33        4.9440   -3.9350   -0.5910 hc        1 SPN      0.041700
     59 H61         8.0190   -1.4170   -0.1710 hc        1 SPN      0.047700
     60 H62         7.8780   -3.1950    0.1260 hc        1 SPN      0.047700
     61 H71         7.0120   -2.7200    2.4570 hc        1 SPN      0.050200
     62 H72         7.1790   -0.9490    2.1500 hc        1 SPN      0.050200
     63 H8          9.7400   -2.3650    1.5360 ha        1 SPN      0.123000
     64 HM41        8.1400   -0.2020    4.3380 hc        1 SPN      0.041033
     65 HM42        7.6380   -1.9100    4.6660 hc        1 SPN      0.041033
     66 HM43        9.0220   -1.1790    5.5850 hc        1 SPN      0.041033
     67 H101       11.4660   -2.3370    3.1150 hc        1 SPN      0.045700
     68 H102       10.9770   -2.4000    4.8540 hc        1 SPN      0.045700
     69 H111       10.9110    0.1340    4.9050 hc        1 SPN      0.050700
     70 H112       11.4380    0.1720    3.1790 hc        1 SPN      0.050700
     71 H12        13.2850   -1.5260    4.8140 ha        1 SPN      0.122000
     72 HM51       14.0170    2.6870    4.6740 hc        1 SPN      0.041367
     73 HM52       12.2940    2.1360    4.8210 hc        1 SPN      0.041367
     74 HM53       13.1450    2.0250    3.2270 hc        1 SPN      0.041367
     75 H141       15.3240   -0.6290    5.5170 hc        1 SPN      0.044200
     76 H142       15.3220    1.1190    5.9750 hc        1 SPN      0.044200
     77 H151       15.9330    1.7180    3.5900 hc        1 SPN      0.042700
     78 H152       15.9800   -0.0390    3.1750 hc        1 SPN      0.042700
     79 H161       17.7110    1.3580    5.3360 hc        1 SPN      0.042200
     80 H162       17.7460   -0.4040    4.9420 hc        1 SPN      0.042200
     81 H171       18.4040    0.1160    2.5840 hc        1 SPN      0.044700
     82 H172       18.3240    1.8870    2.9350 hc        1 SPN      0.044700
     83 HM61       21.3180    2.4280    4.4550 hc        1 SPN      0.040367
     84 HM62       19.5730    2.7880    4.8000 hc        1 SPN      0.040367
     85 HM63       20.4770    1.5980    5.8270 hc        1 SPN      0.040367
     86 H19        20.4900   -0.9030    2.8420 ha        1 SPN      0.122000
     87 H201       22.2740    0.0010    5.0740 hc        1 SPN      0.047700
     88 H202       22.7820    0.7270    3.5010 hc        1 SPN      0.047700
     89 H211       22.8890   -1.5590    2.4620 hc        1 SPN      0.041700
     90 H212       22.3030   -2.2920    4.0060 hc        1 SPN      0.041700
     91 H22        24.3470   -1.1780    5.1590 hc        1 SPN      0.047700
     92 HM71       25.2540   -0.9270    2.2060 hc        1 SPN      0.033700
     93 HM72       26.2850   -0.6590    3.6720 hc        1 SPN      0.033700
     94 HM73       24.8900    0.4420    3.3340 hc        1 SPN      0.033700
     95 H231       25.0110   -3.2540    2.9680 hc        1 SPN      0.042200
     96 H232       24.0060   -3.6400    4.4190 hc        1 SPN      0.042200
     97 H241       26.9030   -2.5440    4.4580 hc        1 SPN      0.047700
     98 H242       25.8830   -2.8410    5.9170 hc        1 SPN      0.047700
     99 H25        25.9720   -5.2600    4.1490 ha        1 SPN      0.123000
    100 HM81       27.5060   -3.9810    7.4930 hc        1 SPN      0.041033
    101 HM82       29.0850   -4.7460    7.0350 hc        1 SPN      0.041033
    102 HM83       28.5000   -3.2690    6.1570 hc        1 SPN      0.041033
    103 H271       27.0460   -7.1270    5.1170 hc        1 SPN      0.046200
    104 H272       27.9320   -6.9040    6.6770 hc        1 SPN      0.046200
    105 H281       29.9630   -6.1090    5.3860 hc        1 SPN      0.050200
    106 H282       29.0700   -6.3700    3.8400 hc        1 SPN      0.050200
    107 H29        28.8560   -8.8700    5.3350 ha        1 SPN      0.122000
    108 HM91       31.2710  -10.3860    3.3680 hc        1 SPN      0.040367
    109 HM92       30.3350  -10.6490    4.8990 hc        1 SPN      0.040367
    110 HM93       32.0800  -10.1600    4.9730 hc        1 SPN      0.040367
    111 HMB1       32.5950   -8.2150    3.3560 hc        1 SPN      0.040367
    112 HMB2       32.1420   -6.9710    4.5970 hc        1 SPN      0.040367
    113 HMB3       31.2630   -7.0300    3.0160 hc        1 SPN      0.040367
@<TRIPOS>BOND
     1    1    2 1   
     2    1   44 1   
     3    1   45 1   
     4    1   46 1   
     5    2    5 1   
     6    3    5 1   
     7    3   47 1   
     8    3   48 1   
     9    3   49 1   
    10    4    5 1   
    11    4   50 1   
    12    4   51 1   
    13    4   52 1   
    14    5    6 1   
    15    6    7 2   
    16    6    8 1   
    17    8    9 1   
    18    8   53 1   
    19    8   54 1   
    20    9   10 2   
    21    9   55 1   
    22   10   11 1   
    23   10   12 1   
    24   11   56 1   
    25   11   57 1   
    26   11   58 1   
    27   12   13 1   
    28   12   59 1   
    29   12   60 1   
    30   13   14 1   
    31   13   61 1   
    32   13   62 1   
    33   14   15 2   
    34   14   63 1   
    35   15   16 1   
    36   15   17 1   
    37   16   64 1   
    38   16   65 1   
    39   16   66 1   
    40   17   18 1   
    41   17   67 1   
    42   17   68 1   
    43   18   19 1   
    44   18   69 1   
    45   18   70 1   
    46   19   20 2   
    47   19   71 1   
    48   20   21 1   
    49   20   22 1   
    50   21   72 1   
    51   21   73 1   
    52   21   74 1   
    53   22   23 1   
    54   22   75 1   
    55   22   76 1   
    56   23   24 1   
    57   23   77 1   
    58   23   78 1   
    59   24   25 1   
    60   24   79 1   
    61   24   80 1   
    62   25   26 1   
    63   25   81 1   
    64   25   82 1   
    65   26   27 1   
    66   26   28 2   
    67   27   83 1   
    68   27   84 1   
    69   27   85 1   
    70   28   29 1   
    71   28   86 1   
    72   29   30 1   
    73   29   87 1   
    74   29   88 1   
    75   30   31 1   
    76   30   89 1   
    77   30   90 1   
    78   31   32 1   
    79   31   33 1   
    80   31   91 1   
    81   32   92 1   
    82   32   93 1   
    83   32   94 1   
    84   33   34 1   
    85   33   95 1   
    86   33   96 1   
    87   34   35 1   
    88   34   97 1   
    89   34   98 1   
    90   35   36 2   
    91   35   99 1   
    92   36   37 1   
    93   36   38 1   
    94   37  100 1   
    95   37  101 1   
    96   37  102 1   
    97   38   39 1   
    98   38  103 1   
    99   38  104 1   
   100   39   40 1   
   101   39  105 1   
   102   39  106 1   
   103   40   41 2   
   104   40  107 1   
   105   41   42 1   
   106   41   43 1   
   107   42  108 1   
   108   42  109 1   
   109   42  110 1   
   110   43  111 1   
   111   43  112 1   
   112   43  113 1   
@<TRIPOS>SUBSTRUCTURE
     1 SPN         1 TEMP              0 ****  ****    0 ROOT
