@<TRIPOS>MOLECULE
SPN
  113   106     1     0     0
SMALL
bcc


@<TRIPOS>ATOM
      1 CMA         5.5710   -3.2360  -12.2550 c3        1 SPN     -0.071000
      2 O1          5.2160   -3.6220  -10.9320 os        1 SPN     -0.283000
      3 CM1         5.8600   -5.9010  -11.4140 c3        1 SPN     -0.235000
      4 CM2         7.4390   -4.3190  -10.2770 c3        1 SPN     -0.235000
      5 C1          5.9640   -4.7270  -10.4330 c3        1 SPN      0.030000
      6 C2          5.4020   -5.1510   -9.0640 c2        1 SPN      0.247000
      7 O2          6.0420   -5.9010   -8.3490 o         1 SPN     -0.295000
      8 C3          4.0200   -4.6530   -8.6130 c3        1 SPN     -0.167000
      9 C4          3.7790   -5.0620   -7.1490 c2        1 SPN     -0.170000
     10 C5          2.7660   -4.4760   -6.4290 c1        1 SPN     -0.112000
     11 CM3         1.8760   -3.4150   -7.0840 c2        1 SPN     -0.181800
     12 C6          2.5250   -4.8860   -4.9610 c3        1 SPN     -0.122000
     13 C7          1.1080   -5.4780   -4.8190 c3        1 SPN     -0.126000
     14 C8          0.5170   -5.0730   -3.4540 c2        1 SPN     -0.169000
     15 C9         -0.4370   -5.8650   -2.8530 c1        1 SPN     -0.116000
     16 CM4        -0.9100   -7.1510   -3.5420 c2        1 SPN     -0.181800
     17 C10        -1.0290   -5.4590   -1.4860 c3        1 SPN     -0.122000
     18 C11        -2.4350   -4.8560   -1.6920 c3        1 SPN     -0.126000
     19 C12        -2.7980   -3.9710   -0.4800 c2        1 SPN     -0.170000
     20 C13        -4.1170   -3.6650   -0.2200 c1        1 SPN     -0.115000
     21 CM5        -5.2240   -4.2020   -1.1350 c2        1 SPN     -0.181800
     22 C14        -4.4800   -2.7790    0.9940 c3        1 SPN     -0.123000
     23 C15        -4.6320   -1.3120    0.5350 c3        1 SPN     -0.155000
     24 C16        -5.1370   -0.4510    1.7160 c3        1 SPN     -0.156000
     25 C17        -4.6640    1.0110    1.5290 c3        1 SPN     -0.128000
     26 C18        -5.3150    1.9070    2.6110 c2        1 SPN     -0.104000
     27 CM6        -6.5460    1.4100    3.3800 c3        1 SPN     -0.181000
     28 C19        -4.7850    3.1600    2.8870 c1        1 SPN     -0.173000
     29 C20        -3.5460    3.6610    2.1150 c2        1 SPN     -0.129000
     30 C21        -2.4050    3.9800    3.1180 c3        1 SPN     -0.151000
     31 C22        -2.2260    5.4910    3.2230 c3        1 SPN     -0.106000
     32 CM7        -2.1290    6.0850    1.8380 c3        1 SPN     -0.209000
     33 C23        -0.9500    5.8000    3.9990 c3        1 SPN     -0.154000
     34 C24        -1.3120    6.5070    5.3260 c3        1 SPN     -0.130000
     35 C25        -0.0220    6.7690    6.1400 c2        1 SPN     -0.168000
     36 C26        -0.1060    7.2300    7.4360 c1        1 SPN     -0.117000
     37 CM8        -1.4810    7.4840    8.0730 c2        1 SPN     -0.181800
     38 C27         1.1860    7.4930    8.2520 c3        1 SPN     -0.121000
     39 C28         1.5710    6.2150    9.0360 c3        1 SPN     -0.125000
     40 C29         2.5390    6.5850   10.1790 c2        1 SPN     -0.173000
     41 C30         3.2130    5.5940   10.8590 c1        1 SPN     -0.116000
     42 CM9         3.0000    4.1260   10.4820 c2        1 SPN     -0.181800
     43 CMB         4.1750    5.9610   11.9940 c3        1 SPN     -0.178000
     44 HMA1        5.5120   -2.2580  -12.3380 h1        1 SPN      0.075333
     45 HMA2        4.9540   -3.6570  -12.8960 h1        1 SPN      0.075333
     46 HMA3        6.4880   -3.5260  -12.4460 h1        1 SPN      0.075333
     47 HM11        6.1180   -6.7330  -10.9590 hc        1 SPN      0.092167
     48 HM12        4.9340   -5.9780  -11.7360 hc        1 SPN      0.092167
     49 HM13        6.4600   -5.7450  -12.1780 hc        1 SPN      0.092167
     50 HM21        7.9030   -4.4330  -11.1360 hc        1 SPN      0.092167
     51 HM22        7.4910   -3.3780   -9.9980 hc        1 SPN      0.092167
     52 HM23        7.8660   -4.8870   -9.5960 hc        1 SPN      0.092167
     53 H31         3.9840   -3.6750   -8.6900 hc        1 SPN      0.126000
     54 H32         3.3270   -5.0520   -9.1830 hc        1 SPN      0.126000
     55 H4          4.3490   -5.7420   -6.7290 ha        1 SPN      0.146000
     56 HM31        1.2590   -3.0470   -6.4150 ha        1 SPN      0.080400
     57 HM32        1.3620   -3.8240   -7.8150 ha        1 SPN      0.080400
     58 HM33        2.4380   -2.6920   -7.4430 ha        1 SPN      0.080400
     59 H61         2.6100   -4.0970   -4.3830 hc        1 SPN      0.087500
     60 H62         3.1890   -5.5600   -4.6960 hc        1 SPN      0.087500
     61 H71         1.1550   -6.4580   -4.8780 hc        1 SPN      0.090000
     62 H72         0.5360   -5.1340   -5.5380 hc        1 SPN      0.090000
     63 H8          0.8200   -4.2500   -3.0130 ha        1 SPN      0.123000
     64 HM41       -1.2540   -6.9350   -4.4370 ha        1 SPN      0.080400
     65 HM42       -0.1550   -7.7760   -3.6230 ha        1 SPN      0.080400
     66 HM43       -1.6230   -7.5650   -3.0080 ha        1 SPN      0.080400
     67 H101       -1.0950   -6.2530   -0.9090 hc        1 SPN      0.085500
     68 H102       -0.4460   -4.7930   -1.0610 hc        1 SPN      0.085500
     69 H111       -3.0930   -5.5800   -1.7780 hc        1 SPN      0.089500
     70 H112       -2.4400   -4.3100   -2.5090 hc        1 SPN      0.089500
     71 H12        -2.0900   -3.6280    0.1050 ha        1 SPN      0.122000
     72 HM51       -5.2370   -5.1850   -1.0920 ha        1 SPN      0.080400
     73 HM52       -6.0920   -3.8500   -0.8400 ha        1 SPN      0.080400
     74 HM53       -5.0520   -3.9180   -2.0600 ha        1 SPN      0.080400
     75 H141       -3.7670   -2.8400    1.6680 hc        1 SPN      0.083500
     76 H142       -5.3280   -3.0900    1.3840 hc        1 SPN      0.083500
     77 H151       -5.2780   -1.2650   -0.2050 hc        1 SPN      0.082500
     78 H152       -3.7610   -0.9730    0.2310 hc        1 SPN      0.082500
     79 H161       -6.1190   -0.4760    1.7430 hc        1 SPN      0.081000
     80 H162       -4.7770   -0.8070    2.5590 hc        1 SPN      0.081000
     81 H171       -4.9280    1.3300    0.6370 hc        1 SPN      0.087500
     82 H172       -3.6860    1.0520    1.6150 hc        1 SPN      0.087500
     83 HM61       -6.9320    2.1530    3.8960 hc        1 SPN      0.079667
     84 HM62       -6.2810    0.6890    3.9910 hc        1 SPN      0.079667
     85 HM63       -7.2140    1.0710    2.7440 hc        1 SPN      0.079667
     86 H19        -5.1990    3.7280    3.5740 ha        1 SPN      0.117000
     87 H201       -3.7790    4.4740    1.6150 ha        1 SPN      0.083000
     88 H202       -3.2470    2.9670    1.4890 ha        1 SPN      0.083000
     89 H211       -1.5670    3.5710    2.8020 hc        1 SPN      0.083000
     90 H212       -2.6350    3.6160    4.0010 hc        1 SPN      0.083000
     91 H22        -2.9970    5.8810    3.6930 hc        1 SPN      0.087000
     92 HM71       -1.6490    5.4620    1.2460 hc        1 SPN      0.072667
     93 HM72       -1.6410    6.9380    1.8800 hc        1 SPN      0.072667
     94 HM73       -3.0330    6.2420    1.4840 hc        1 SPN      0.072667
     95 H231       -0.3730    6.3870    3.4610 hc        1 SPN      0.082000
     96 H232       -0.4750    4.9620    4.1930 hc        1 SPN      0.082000
     97 H241       -1.9180    5.9360    5.8480 hc        1 SPN      0.087000
     98 H242       -1.7560    7.3630    5.1310 hc        1 SPN      0.087000
     99 H25         0.8570    6.6070    5.7330 ha        1 SPN      0.123000
    100 HM81       -1.7900    8.1690    8.7110 ha        1 SPN      0.080400
    101 HM82       -0.9790    7.2060    8.8690 ha        1 SPN      0.080400
    102 HM83       -1.4130    8.2810    7.5050 ha        1 SPN      0.080400
    103 H271        1.0310    8.2310    8.8830 hc        1 SPN      0.085000
    104 H272        1.9170    7.7330    7.6390 hc        1 SPN      0.085000
    105 H281        0.7620    5.8060    9.4130 hc        1 SPN      0.089000
    106 H282        2.0080    5.5780    8.4300 hc        1 SPN      0.089000
    107 H29         2.6750    7.5260   10.4220 ha        1 SPN      0.122000
    108 HM91        3.3010    3.9780    9.5580 ha        1 SPN      0.080400
    109 HM92        3.5190    3.5520   11.0900 ha        1 SPN      0.080400
    110 HM93        2.0470    3.9030   10.5550 ha        1 SPN      0.080400
    111 HMB1        4.0890    5.3050   12.7220 hc        1 SPN      0.079333
    112 HMB2        5.0970    5.9570   11.6560 hc        1 SPN      0.079333
    113 HMB3        3.9550    6.8560   12.3330 hc        1 SPN      0.079333
@<TRIPOS>BOND
     1    1    2 1   
     2    1   44 1   
     3    1   45 1   
     4    1   46 1   
     5    2    5 1   
     6    3    5 1   
     7    3   47 1   
     8    3   48 1   
     9    3   49 1   
    10    4    5 1   
    11    4   50 1   
    12    4   51 1   
    13    4   52 1   
    14    5    6 1   
    15    6    7 1   
    16    6    8 1   
    17    8    9 1   
    18    8   53 1   
    19    8   54 1   
    20    9   10 1   
    21    9   55 1   
    22   10   12 1   
    23   11   56 1   
    24   11   57 1   
    25   11   58 1   
    26   12   13 1   
    27   12   59 1   
    28   12   60 1   
    29   13   14 1   
    30   13   61 1   
    31   13   62 1   
    32   14   15 1   
    33   14   63 1   
    34   15   17 1   
    35   16   64 1   
    36   16   65 1   
    37   16   66 1   
    38   17   18 1   
    39   17   67 1   
    40   17   68 1   
    41   18   19 1   
    42   18   69 1   
    43   18   70 1   
    44   19   20 1   
    45   19   71 1   
    46   20   22 1   
    47   21   72 1   
    48   21   73 1   
    49   21   74 1   
    50   22   23 1   
    51   22   75 1   
    52   22   76 1   
    53   23   24 1   
    54   23   77 1   
    55   23   78 1   
    56   24   25 1   
    57   24   79 1   
    58   24   80 1   
    59   25   26 1   
    60   25   81 1   
    61   25   82 1   
    62   26   27 1   
    63   26   28 1   
    64   27   83 1   
    65   27   84 1   
    66   27   85 1   
    67   28   86 1   
    68   29   30 1   
    69   29   87 1   
    70   29   88 1   
    71   30   31 1   
    72   30   89 1   
    73   30   90 1   
    74   31   32 1   
    75   31   33 1   
    76   31   91 1   
    77   32   92 1   
    78   32   93 1   
    79   32   94 1   
    80   33   34 1   
    81   33   95 1   
    82   33   96 1   
    83   34   35 1   
    84   34   97 1   
    85   34   98 1   
    86   35   36 1   
    87   35   99 1   
    88   36   38 1   
    89   37  100 1   
    90   37  101 1   
    91   37  102 1   
    92   38   39 1   
    93   38  103 1   
    94   38  104 1   
    95   39   40 1   
    96   39  105 1   
    97   39  106 1   
    98   40   41 1   
    99   40  107 1   
   100   41   43 1   
   101   42  108 1   
   102   42  109 1   
   103   42  110 1   
   104   43  111 1   
   105   43  112 1   
   106   43  113 1   
@<TRIPOS>SUBSTRUCTURE
     1 SPN         1 TEMP              0 ****  ****    0 ROOT
