@<TRIPOS>MOLECULE
SPO
  102   101     1     0     0
SMALL
bcc


@<TRIPOS>ATOM
      1 CM1        -4.0790   -1.5500   14.2280 c3        1 SPO      0.117700
      2 O1         -4.0000   -0.6220   13.1640 os        1 SPO     -0.423600
      3 C1         -4.5800   -1.0580   11.9230 c3        1 SPO      0.152800
      4 C2         -4.0560   -2.4220   11.5030 c3        1 SPO     -0.118600
      5 C3         -6.1010   -1.0840   12.0360 c3        1 SPO     -0.118600
      6 C4         -4.1690    0.0200   10.9050 c3        1 SPO     -0.042200
      7 C5         -2.7030    0.0990   10.7130 c2        1 SPO     -0.142200
      8 C6         -2.1310    0.3030    9.5190 ce        1 SPO     -0.153000
      9 C7         -0.6950    0.4130    9.2940 ce        1 SPO     -0.056200
     10 C8          0.1620    0.5780   10.4930 c3        1 SPO     -0.063900
     11 C9         -0.2220    0.3560    8.0280 cf        1 SPO     -0.142000
     12 C10         1.1650    0.4210    7.6360 cf        1 SPO     -0.118000
     13 C11         1.5460    0.4220    6.3440 ce        1 SPO     -0.132000
     14 C12         2.9250    0.4870    5.8840 ce        1 SPO     -0.063200
     15 C13         3.9870    0.3420    6.9100 c3        1 SPO     -0.062900
     16 C14         3.1680    0.6760    4.5660 cf        1 SPO     -0.133000
     17 C15         4.4650    0.7890    3.9450 cf        1 SPO     -0.121000
     18 C16         4.6140    0.8940    2.6100 ce        1 SPO     -0.124000
     19 C17         5.8920    1.0200    1.9350 ce        1 SPO     -0.067200
     20 C18         7.0690    1.3700    2.7730 c3        1 SPO     -0.062900
     21 C19         6.0500    0.8400    0.6030 cf        1 SPO     -0.130000
     22 C20         5.0200    0.4730   -0.3360 cf        1 SPO     -0.124000
     23 C21         5.2550    0.3580   -1.6600 ce        1 SPO     -0.123000
     24 C22         4.2240   -0.0090   -2.5980 ce        1 SPO     -0.132000
     25 C23         4.3740   -0.1710   -3.9330 cf        1 SPO     -0.064200
     26 C24         5.6600   -0.0040   -4.6510 c3        1 SPO     -0.061900
     27 C25         3.2110   -0.5270   -4.7340 cf        1 SPO     -0.130000
     28 C26         3.1880   -0.5740   -6.0780 ce        1 SPO     -0.122000
     29 C27         2.0020   -0.9310   -6.8230 ce        1 SPO     -0.148000
     30 C28         1.9280   -0.9700   -8.1680 c2        1 SPO     -0.097400
     31 C29         3.0750   -0.6480   -9.0500 c3        1 SPO     -0.063900
     32 C30         0.6630   -1.3660   -8.8510 c3        1 SPO     -0.044200
     33 C31        -0.0170   -0.1730   -9.5010 c3        1 SPO     -0.043200
     34 C32        -1.2450   -0.5670  -10.2290 c2        1 SPO     -0.175200
     35 C33        -1.9420    0.2730  -11.0130 c2        1 SPO     -0.121400
     36 C34        -1.5260    1.6790  -11.2290 c3        1 SPO     -0.059900
     37 C35        -3.1680   -0.1760  -11.7330 c3        1 SPO     -0.039200
     38 C36        -4.4300    0.3480  -11.0720 c3        1 SPO     -0.042200
     39 C37        -5.6510   -0.0660  -11.8010 c2        1 SPO     -0.178200
     40 C38        -6.8940    0.1620  -11.3480 c2        1 SPO     -0.123400
     41 C39        -8.0940   -0.2640  -12.1090 c3        1 SPO     -0.057900
     42 C40        -7.1530    0.8460  -10.0590 c3        1 SPO     -0.057900
     43 HM11       -3.4210   -2.4330   14.0330 h1        1 SPO      0.031700
     44 HM12       -3.7050   -0.9780   15.1160 h1        1 SPO      0.031700
     45 HM13       -5.1300   -1.8870   14.4000 h1        1 SPO      0.031700
     46 H21A       -2.9410   -2.4330   11.5480 hc        1 SPO      0.044367
     47 H22A       -4.4540   -3.2200   12.1750 hc        1 SPO      0.044367
     48 H23        -4.3790   -2.6430   10.4580 hc        1 SPO      0.044367
     49 H31        -6.4660   -0.1220   12.4680 hc        1 SPO      0.044367
     50 H32A       -6.5530   -1.2270   11.0270 hc        1 SPO      0.044367
     51 H33        -6.4330   -1.9200   12.6960 hc        1 SPO      0.044367
     52 H41        -4.6960   -0.1950    9.9390 hc        1 SPO      0.058200
     53 H42        -4.5320    1.0150   11.2840 hc        1 SPO      0.058200
     54 H5         -2.1110   -0.0050   11.6390 ha        1 SPO      0.140000
     55 H6         -2.7580    0.3900    8.6130 ha        1 SPO      0.120000
     56 H81         0.2640   -0.4020   11.0250 hc        1 SPO      0.045367
     57 H82         1.1840    0.9450   10.2340 hc        1 SPO      0.045367
     58 H83        -0.2970    1.3140   11.2000 hc        1 SPO      0.045367
     59 H9         -0.9420    0.2420    7.1960 ha        1 SPO      0.121000
     60 H10         1.9170    0.4670    8.4420 ha        1 SPO      0.126000
     61 H11         0.7820    0.3820    5.5460 ha        1 SPO      0.122000
     62 H131        4.0300    1.2630    7.5450 hc        1 SPO      0.045033
     63 H132        3.7670   -0.5320    7.5720 hc        1 SPO      0.045033
     64 H133        4.9940    0.1810    6.4570 hc        1 SPO      0.045033
     65 H14         2.3070    0.7610    3.8750 ha        1 SPO      0.122000
     66 H15         5.3470    0.7920    4.6070 ha        1 SPO      0.126000
     67 H16         3.7210    0.8910    1.9600 ha        1 SPO      0.125000
     68 H181        7.9650    1.6030    2.1480 hc        1 SPO      0.044033
     69 H182        6.8430    2.2620    3.4090 hc        1 SPO      0.044033
     70 H183        7.3270    0.5140    3.4470 hc        1 SPO      0.044033
     71 H19         7.0590    0.9740    0.1670 ha        1 SPO      0.122000
     72 H20         4.0110    0.2770    0.0650 ha        1 SPO      0.125000
     73 H21         6.2650    0.5530   -2.0590 ha        1 SPO      0.124000
     74 H22         3.2210   -0.1630   -2.1540 ha        1 SPO      0.121000
     75 H241        5.6210    0.9120   -5.2940 hc        1 SPO      0.044367
     76 H242        6.5270    0.0940   -3.9550 hc        1 SPO      0.044367
     77 H243        5.8500   -0.8880   -5.3120 hc        1 SPO      0.044367
     78 H25         2.2960   -0.7640   -4.1610 ha        1 SPO      0.123000
     79 H26         4.0880   -0.3350   -6.6720 ha        1 SPO      0.125000
     80 H27         1.1120   -1.1850   -6.2200 ha        1 SPO      0.123000
     81 H291        3.4440    0.3900   -8.8510 hc        1 SPO      0.044367
     82 H292        3.9200   -1.3590   -8.8650 hc        1 SPO      0.044367
     83 H293        2.7910   -0.7170  -10.1280 hc        1 SPO      0.044367
     84 H301        0.8960   -2.1360   -9.6360 hc        1 SPO      0.048700
     85 H302       -0.0450   -1.8410   -8.1200 hc        1 SPO      0.048700
     86 H311       -0.2790    0.5840   -8.7110 hc        1 SPO      0.050700
     87 H312        0.6990    0.3300  -10.2070 hc        1 SPO      0.050700
     88 H32        -1.5760   -1.6100  -10.0940 ha        1 SPO      0.123000
     89 H341       -1.2660    2.1680  -10.2570 hc        1 SPO      0.041700
     90 H342       -0.6190    1.7130  -11.8850 hc        1 SPO      0.041700
     91 H343       -2.3370    2.2730  -11.7180 hc        1 SPO      0.041700
     92 H351       -3.1230    0.1900  -12.7950 hc        1 SPO      0.045700
     93 H352       -3.2100   -1.2970  -11.7700 hc        1 SPO      0.045700
     94 H361       -4.4780   -0.0230  -10.0110 hc        1 SPO      0.049700
     95 H362       -4.3890    1.4710  -11.0190 hc        1 SPO      0.049700
     96 H37        -5.4910   -0.5810  -12.7620 ha        1 SPO      0.122000
     97 H391       -8.7120    0.6290  -12.3800 hc        1 SPO      0.040700
     98 H392       -7.8180   -0.8000  -13.0490 hc        1 SPO      0.040700
     99 H393       -8.7230   -0.9460  -11.4840 hc        1 SPO      0.040700
    100 H401       -6.8090    0.2060   -9.2070 hc        1 SPO      0.040700
    101 H402       -6.5910    1.8130  -10.0090 hc        1 SPO      0.040700
    102 H403       -8.2400    1.0610   -9.9220 hc        1 SPO      0.040700
@<TRIPOS>BOND
     1    1    2 1   
     2    1   43 1   
     3    1   44 1   
     4    1   45 1   
     5    2    3 1   
     6    3    4 1   
     7    3    5 1   
     8    3    6 1   
     9    4   46 1   
    10    4   47 1   
    11    4   48 1   
    12    5   49 1   
    13    5   50 1   
    14    5   51 1   
    15    6    7 1   
    16    6   52 1   
    17    6   53 1   
    18    7    8 2   
    19    7   54 1   
    20    8    9 1   
    21    8   55 1   
    22    9   10 1   
    23    9   11 2   
    24   10   56 1   
    25   10   57 1   
    26   10   58 1   
    27   11   12 1   
    28   11   59 1   
    29   12   13 2   
    30   12   60 1   
    31   13   14 1   
    32   13   61 1   
    33   14   15 1   
    34   14   16 2   
    35   15   62 1   
    36   15   63 1   
    37   15   64 1   
    38   16   17 1   
    39   16   65 1   
    40   17   18 2   
    41   17   66 1   
    42   18   19 1   
    43   18   67 1   
    44   19   20 1   
    45   19   21 2   
    46   20   68 1   
    47   20   69 1   
    48   20   70 1   
    49   21   22 1   
    50   21   71 1   
    51   22   23 2   
    52   22   72 1   
    53   23   24 1   
    54   23   73 1   
    55   24   25 2   
    56   24   74 1   
    57   25   26 1   
    58   25   27 1   
    59   26   75 1   
    60   26   76 1   
    61   26   77 1   
    62   27   28 2   
    63   27   78 1   
    64   28   29 1   
    65   28   79 1   
    66   29   30 2   
    67   29   80 1   
    68   30   31 1   
    69   30   32 1   
    70   31   81 1   
    71   31   82 1   
    72   31   83 1   
    73   32   33 1   
    74   32   84 1   
    75   32   85 1   
    76   33   34 1   
    77   33   86 1   
    78   33   87 1   
    79   34   35 2   
    80   34   88 1   
    81   35   36 1   
    82   35   37 1   
    83   36   89 1   
    84   36   90 1   
    85   36   91 1   
    86   37   38 1   
    87   37   92 1   
    88   37   93 1   
    89   38   39 1   
    90   38   94 1   
    91   38   95 1   
    92   39   40 2   
    93   39   96 1   
    94   40   41 1   
    95   40   42 1   
    96   41   97 1   
    97   41   98 1   
    98   41   99 1   
    99   42  100 1   
   100   42  101 1   
   101   42  102 1   
@<TRIPOS>SUBSTRUCTURE
     1 SPO         1 TEMP              0 ****  ****    0 ROOT
