@<TRIPOS>MOLECULE
SPO
  102   101     1     0     0
SMALL
bcc


@<TRIPOS>ATOM
      1 CM1         0.9600   -0.0080   -0.0640 c3        1 SPO      0.117700
      2 O1          1.8120    0.9090    0.5930 os        1 SPO     -0.421600
      3 C1          1.5850    1.0590    2.0040 c3        1 SPO      0.155800
      4 C2          0.2920    1.8360    2.2400 c3        1 SPO     -0.119100
      5 C3          1.5230   -0.2850    2.7120 c3        1 SPO     -0.119100
      6 C4          2.7680    1.9100    2.5000 c3        1 SPO     -0.043200
      7 C5          4.0610    1.1890    2.5180 c2        1 SPO     -0.144200
      8 C6          5.1900    1.5850    1.9210 ce        1 SPO     -0.135000
      9 C7          5.3670    2.7690    1.0850 ce        1 SPO     -0.055200
     10 C8          4.5030    2.8880   -0.1150 c3        1 SPO     -0.071900
     11 C9          6.3210    3.6730    1.3980 cf        1 SPO     -0.152000
     12 C10         6.6020    4.8630    0.6290 cf        1 SPO     -0.116000
     13 C11         7.5450    5.7520    0.9910 ce        1 SPO     -0.135000
     14 C12         7.8750    6.9620    0.2520 ce        1 SPO     -0.060200
     15 C13         6.9970    7.3140   -0.8900 c3        1 SPO     -0.062900
     16 C14         8.9490    7.6920    0.6360 cf        1 SPO     -0.136000
     17 C15         9.4300    8.8980    0.0090 cf        1 SPO     -0.120000
     18 C16        10.4630    9.6040    0.5100 ce        1 SPO     -0.126000
     19 C17        10.9920   10.8170   -0.0850 ce        1 SPO     -0.066200
     20 C18        10.5870   11.1180   -1.4840 c3        1 SPO     -0.063900
     21 C19        11.8250   11.6620    0.5670 cf        1 SPO     -0.131000
     22 C20        12.2860   11.5260    1.9250 cf        1 SPO     -0.123000
     23 C21        13.1550   12.3930    2.4860 ce        1 SPO     -0.124000
     24 C22        13.6140   12.2560    3.8450 ce        1 SPO     -0.131000
     25 C23        14.4620   13.0880    4.4940 cf        1 SPO     -0.065200
     26 C24        15.0520   14.3080    3.8920 c3        1 SPO     -0.061900
     27 C25        14.8340   12.7820    5.8670 cf        1 SPO     -0.129000
     28 C26        15.7750   13.4360    6.5730 ce        1 SPO     -0.122000
     29 C27        16.1070   13.0850    7.9360 ce        1 SPO     -0.148000
     30 C28        17.0550   13.6980    8.6710 c2        1 SPO     -0.098400
     31 C29        17.8760   14.8210    8.1580 c3        1 SPO     -0.063900
     32 C30        17.3190   13.2780   10.0780 c3        1 SPO     -0.044200
     33 C31        18.6340   12.5290   10.2000 c3        1 SPO     -0.043200
     34 C32        18.9260   12.1460   11.6000 c2        1 SPO     -0.176200
     35 C33        19.9460   11.3470   11.9510 c2        1 SPO     -0.121400
     36 C34        20.8730   10.7670   10.9490 c3        1 SPO     -0.059900
     37 C35        20.2090   11.0040   13.3770 c3        1 SPO     -0.039200
     38 C36        19.9330    9.5390   13.6620 c3        1 SPO     -0.043200
     39 C37        20.2530    9.1750   15.0610 c2        1 SPO     -0.178200
     40 C38        20.1870    7.9180   15.5310 c2        1 SPO     -0.123400
     41 C39        20.5110    7.5930   16.9410 c3        1 SPO     -0.057900
     42 C40        19.7920    6.7750   14.6740 c3        1 SPO     -0.057900
     43 HM11        1.2230    0.1040   -1.1470 h1        1 SPO      0.031367
     44 HM12       -0.1160    0.2430    0.1000 h1        1 SPO      0.031367
     45 HM13        1.1630   -1.0540    0.2750 h1        1 SPO      0.031367
     46 H21A        0.1830    2.0700    3.3250 hc        1 SPO      0.043700
     47 H22A       -0.5920    1.2390    1.9150 hc        1 SPO      0.043700
     48 H23         0.3110    2.7900    1.6610 hc        1 SPO      0.043700
     49 H31         1.6350   -0.1360    3.8120 hc        1 SPO      0.043700
     50 H32A        2.3410   -0.9530    2.3500 hc        1 SPO      0.043700
     51 H33         0.5430   -0.7840    2.5170 hc        1 SPO      0.043700
     52 H41         2.8320    2.8260    1.8550 hc        1 SPO      0.060700
     53 H42         2.5310    2.2420    3.5480 hc        1 SPO      0.060700
     54 H5          4.0630    0.2590    3.1130 ha        1 SPO      0.118000
     55 H6          6.1100    0.9860    2.0520 ha        1 SPO      0.125000
     56 H81         3.9740    3.8730   -0.1240 hc        1 SPO      0.052367
     57 H82         3.7320    2.0750   -0.1400 hc        1 SPO      0.052367
     58 H83         5.1240    2.8160   -1.0430 hc        1 SPO      0.052367
     59 H9          6.0020    5.0100   -0.2860 ha        1 SPO      0.126000
     60 H10         6.9390    3.5210    2.3000 ha        1 SPO      0.123000
     61 H11         8.1390    5.5800    1.9070 ha        1 SPO      0.122000
     62 H131        7.1460    6.5820   -1.7240 hc        1 SPO      0.044700
     63 H132        5.9240    7.2760   -0.5770 hc        1 SPO      0.044700
     64 H133        7.2020    8.3380   -1.2840 hc        1 SPO      0.044700
     65 H14         9.5360    7.3510    1.5100 ha        1 SPO      0.121000
     66 H15         8.9220    9.2300   -0.9120 ha        1 SPO      0.126000
     67 H16        10.9620    9.2580    1.4320 ha        1 SPO      0.125000
     68 H181       10.7510   10.2250   -2.1370 hc        1 SPO      0.043700
     69 H182       11.1690   11.9740   -1.9050 hc        1 SPO      0.043700
     70 H183        9.5000   11.3840   -1.5180 hc        1 SPO      0.043700
     71 H19        12.1970   12.5560    0.0300 ha        1 SPO      0.122000
     72 H20        11.8950   10.6780    2.5140 ha        1 SPO      0.125000
     73 H21        13.5430   13.2410    1.8970 ha        1 SPO      0.124000
     74 H22        13.2220   11.3720    4.3850 ha        1 SPO      0.121000
     75 H241       14.5870   14.5660    2.9110 hc        1 SPO      0.044367
     76 H242       14.9130   15.1810    4.5780 hc        1 SPO      0.044367
     77 H243       16.1500   14.1600    3.7300 hc        1 SPO      0.044367
     78 H25        14.2880   11.9390    6.3300 ha        1 SPO      0.122000
     79 H26        16.3380   14.2750    6.1300 ha        1 SPO      0.125000
     80 H27        15.5260   12.2550    8.3760 ha        1 SPO      0.123000
     81 H291       17.2240   15.6910    7.8940 hc        1 SPO      0.044033
     82 H292       18.6200   15.1610    8.9200 hc        1 SPO      0.044033
     83 H293       18.4340   14.5120    7.2390 hc        1 SPO      0.044033
     84 H301       16.4870   12.6240   10.4540 hc        1 SPO      0.048700
     85 H302       17.3460   14.1900   10.7330 hc        1 SPO      0.048700
     86 H311       19.4700   13.1730    9.8070 hc        1 SPO      0.051200
     87 H312       18.6040   11.6100    9.5530 hc        1 SPO      0.051200
     88 H32        18.2510   12.5610   12.3670 ha        1 SPO      0.123000
     89 H341       21.7600   10.2950   11.4390 hc        1 SPO      0.041367
     90 H342       20.3460    9.9850   10.3450 hc        1 SPO      0.041367
     91 H343       21.2350   11.5580   10.2460 hc        1 SPO      0.041367
     92 H351       19.5770   11.6370   14.0550 hc        1 SPO      0.045700
     93 H352       21.2830   11.2340   13.6160 hc        1 SPO      0.045700
     94 H361       18.8500    9.3150   13.4560 hc        1 SPO      0.050200
     95 H362       20.5340    8.9000   12.9570 hc        1 SPO      0.050200
     96 H37        20.5520   10.0040   15.7230 ha        1 SPO      0.122000
     97 H391       20.8260    8.4990   17.5130 hc        1 SPO      0.040533
     98 H392       21.3400    6.8430   16.9800 hc        1 SPO      0.040533
     99 H393       19.6160    7.1500   17.4460 hc        1 SPO      0.040533
    100 H401       19.6860    5.8360   15.2710 hc        1 SPO      0.040533
    101 H402       20.5620    6.6030   13.8800 hc        1 SPO      0.040533
    102 H403       18.8170    6.9850   14.1670 hc        1 SPO      0.040533
@<TRIPOS>BOND
     1    1    2 1   
     2    1   43 1   
     3    1   44 1   
     4    1   45 1   
     5    2    3 1   
     6    3    4 1   
     7    3    5 1   
     8    3    6 1   
     9    4   46 1   
    10    4   47 1   
    11    4   48 1   
    12    5   49 1   
    13    5   50 1   
    14    5   51 1   
    15    6    7 1   
    16    6   52 1   
    17    6   53 1   
    18    7    8 2   
    19    7   54 1   
    20    8    9 1   
    21    8   55 1   
    22    9   10 1   
    23    9   11 2   
    24   10   56 1   
    25   10   57 1   
    26   10   58 1   
    27   11   12 1   
    28   11   60 1   
    29   12   13 2   
    30   12   59 1   
    31   13   14 1   
    32   13   61 1   
    33   14   15 1   
    34   14   16 2   
    35   15   62 1   
    36   15   63 1   
    37   15   64 1   
    38   16   17 1   
    39   16   65 1   
    40   17   18 2   
    41   17   66 1   
    42   18   19 1   
    43   18   67 1   
    44   19   20 1   
    45   19   21 2   
    46   20   68 1   
    47   20   69 1   
    48   20   70 1   
    49   21   22 1   
    50   21   71 1   
    51   22   23 2   
    52   22   72 1   
    53   23   24 1   
    54   23   73 1   
    55   24   25 2   
    56   24   74 1   
    57   25   26 1   
    58   25   27 1   
    59   26   75 1   
    60   26   76 1   
    61   26   77 1   
    62   27   28 2   
    63   27   78 1   
    64   28   29 1   
    65   28   79 1   
    66   29   30 2   
    67   29   80 1   
    68   30   31 1   
    69   30   32 1   
    70   31   81 1   
    71   31   82 1   
    72   31   83 1   
    73   32   33 1   
    74   32   84 1   
    75   32   85 1   
    76   33   34 1   
    77   33   86 1   
    78   33   87 1   
    79   34   35 2   
    80   34   88 1   
    81   35   36 1   
    82   35   37 1   
    83   36   89 1   
    84   36   90 1   
    85   36   91 1   
    86   37   38 1   
    87   37   92 1   
    88   37   93 1   
    89   38   39 1   
    90   38   94 1   
    91   38   95 1   
    92   39   40 2   
    93   39   96 1   
    94   40   41 1   
    95   40   42 1   
    96   41   97 1   
    97   41   98 1   
    98   41   99 1   
    99   42  100 1   
   100   42  101 1   
   101   42  102 1   
@<TRIPOS>SUBSTRUCTURE
     1 SPO         1 TEMP              0 ****  ****    0 ROOT
