@<TRIPOS>MOLECULE
SPO
  102   101     1     0     0
SMALL
bcc


@<TRIPOS>ATOM
      1 CM1         1.0100   -0.0370   -0.0480 c3        1 SPO      0.117700
      2 O1          1.8550    0.8870    0.6100 os        1 SPO     -0.421600
      3 C1          1.6250    1.0380    2.0200 c3        1 SPO      0.155800
      4 C2          0.3260    1.8070    2.2520 c3        1 SPO     -0.119100
      5 C3          1.5690   -0.3060    2.7300 c3        1 SPO     -0.119100
      6 C4          2.8010    1.8960    2.5180 c3        1 SPO     -0.043200
      7 C5          4.0980    1.1840    2.5380 c2        1 SPO     -0.144200
      8 C6          5.2260    1.5860    1.9430 ce        1 SPO     -0.135000
      9 C7          5.3970    2.7710    1.1060 ce        1 SPO     -0.055200
     10 C8          4.5350    2.8820   -0.0960 c3        1 SPO     -0.071900
     11 C9          6.3450    3.6810    1.4190 cf        1 SPO     -0.152000
     12 C10         6.6200    4.8710    0.6490 cf        1 SPO     -0.116000
     13 C11         7.5580    5.7660    1.0100 ce        1 SPO     -0.135000
     14 C12         7.8810    6.9770    0.2710 ce        1 SPO     -0.060200
     15 C13         7.0010    7.3250   -0.8710 c3        1 SPO     -0.062900
     16 C14         8.9530    7.7120    0.6530 cf        1 SPO     -0.136000
     17 C15         9.4280    8.9190    0.0240 cf        1 SPO     -0.120000
     18 C16        10.4600    9.6290    0.5220 ce        1 SPO     -0.126000
     19 C17        10.9840   10.8430   -0.0730 ce        1 SPO     -0.066200
     20 C18        10.5700   11.1460   -1.4700 c3        1 SPO     -0.063900
     21 C19        11.8180   11.6900    0.5750 cf        1 SPO     -0.131000
     22 C20        12.2870   11.5520    1.9310 cf        1 SPO     -0.123000
     23 C21        13.1600   12.4180    2.4860 ce        1 SPO     -0.124000
     24 C22        13.6260   12.2800    3.8430 ce        1 SPO     -0.131000
     25 C23        14.4820   13.1090    4.4860 cf        1 SPO     -0.065200
     26 C24        15.0730   14.3260    3.8790 c3        1 SPO     -0.061900
     27 C25        14.8620   12.8020    5.8570 cf        1 SPO     -0.129000
     28 C26        15.8170   13.4460    6.5530 ce        1 SPO     -0.122000
     29 C27        16.1570   13.0950    7.9130 ce        1 SPO     -0.148000
     30 C28        17.1210   13.6950    8.6380 c2        1 SPO     -0.098400
     31 C29        17.9560   14.8020    8.1120 c3        1 SPO     -0.063900
     32 C30        17.3920   13.2760   10.0430 c3        1 SPO     -0.044200
     33 C31        18.6940   12.5040   10.1550 c3        1 SPO     -0.043200
     34 C32        18.9920   12.1200   11.5550 c2        1 SPO     -0.176200
     35 C33        19.9990   11.3010   11.8980 c2        1 SPO     -0.121400
     36 C34        20.9030   10.6980   10.8900 c3        1 SPO     -0.059900
     37 C35        20.2700   10.9590   13.3230 c3        1 SPO     -0.039200
     38 C36        19.9670    9.5010   13.6160 c3        1 SPO     -0.043200
     39 C37        20.2850    9.1370   15.0160 c2        1 SPO     -0.178200
     40 C38        19.9920    7.9420   15.5550 c2        1 SPO     -0.123400
     41 C39        20.3310    7.6140   16.9600 c3        1 SPO     -0.057900
     42 C40        19.3070    6.8760   14.7850 c3        1 SPO     -0.057900
     43 HM11        1.2750    0.0750   -1.1300 h1        1 SPO      0.031367
     44 HM12       -0.0680    0.2080    0.1140 h1        1 SPO      0.031367
     45 HM13        1.2190   -1.0810    0.2940 h1        1 SPO      0.031367
     46 H21A        0.2140    2.0420    3.3370 hc        1 SPO      0.043700
     47 H22A       -0.5540    1.2040    1.9260 hc        1 SPO      0.043700
     48 H23         0.3400    2.7600    1.6710 hc        1 SPO      0.043700
     49 H31         1.6780   -0.1550    3.8300 hc        1 SPO      0.043700
     50 H32A        2.3930   -0.9690    2.3710 hc        1 SPO      0.043700
     51 H33         0.5940   -0.8120    2.5340 hc        1 SPO      0.043700
     52 H41         2.8610    2.8130    1.8700 hc        1 SPO      0.060700
     53 H42         2.5600    2.2280    3.5640 hc        1 SPO      0.060700
     54 H5          4.1060    0.2550    3.1350 ha        1 SPO      0.118000
     55 H6          6.1500    0.9930    2.0760 ha        1 SPO      0.125000
     56 H81         3.9990    3.8640   -0.1070 hc        1 SPO      0.052367
     57 H82         3.7690    2.0650   -0.1220 hc        1 SPO      0.052367
     58 H83         5.1580    2.8130   -1.0230 hc        1 SPO      0.052367
     59 H9          6.0200    5.0140   -0.2670 ha        1 SPO      0.126000
     60 H10         6.9630    3.5340    2.3220 ha        1 SPO      0.123000
     61 H11         8.1520    5.5980    1.9270 ha        1 SPO      0.122000
     62 H131        7.1530    6.5940   -1.7050 hc        1 SPO      0.045033
     63 H132        5.9280    7.2790   -0.5570 hc        1 SPO      0.045033
     64 H133        7.1990    8.3510   -1.2640 hc        1 SPO      0.045033
     65 H14         9.5420    7.3740    1.5260 ha        1 SPO      0.121000
     66 H15         8.9160    9.2500   -0.8960 ha        1 SPO      0.126000
     67 H16        10.9630    9.2850    1.4430 ha        1 SPO      0.125000
     68 H181       10.7350   10.2550   -2.1250 hc        1 SPO      0.043700
     69 H182       11.1480   12.0050   -1.8930 hc        1 SPO      0.043700
     70 H183        9.4830   11.4080   -1.4980 hc        1 SPO      0.043700
     71 H19        12.1860   12.5840    0.0370 ha        1 SPO      0.122000
     72 H20        11.8980   10.7050    2.5210 ha        1 SPO      0.125000
     73 H21        13.5460   13.2660    1.8950 ha        1 SPO      0.124000
     74 H22        13.2340   11.3980    4.3850 ha        1 SPO      0.121000
     75 H241       14.5940   14.5920    2.9070 hc        1 SPO      0.044367
     76 H242       14.9530   15.1980    4.5710 hc        1 SPO      0.044367
     77 H243       16.1670   14.1690    3.6990 hc        1 SPO      0.044367
     78 H25        14.3080   11.9680    6.3270 ha        1 SPO      0.123000
     79 H26        16.3880   14.2760    6.1020 ha        1 SPO      0.125000
     80 H27        15.5660   12.2760    8.3620 ha        1 SPO      0.123000
     81 H291       17.3160   15.6830    7.8530 hc        1 SPO      0.044033
     82 H292       18.7150   15.1310    8.8640 hc        1 SPO      0.044033
     83 H293       18.4980   14.4810    7.1870 hc        1 SPO      0.044033
     84 H301       16.5520   12.6390   10.4300 hc        1 SPO      0.048700
     85 H302       17.4410   14.1910   10.6940 hc        1 SPO      0.048700
     86 H311       19.5380   13.1310    9.7520 hc        1 SPO      0.051200
     87 H312       18.6410   11.5830    9.5120 hc        1 SPO      0.051200
     88 H32        18.3340   12.5530   12.3260 ha        1 SPO      0.123000
     89 H341       21.7850   10.2100   11.3720 hc        1 SPO      0.041367
     90 H342       20.3540    9.9250   10.2940 hc        1 SPO      0.041367
     91 H343       21.2750   11.4790   10.1800 hc        1 SPO      0.041367
     92 H351       19.6560   11.6070   14.0050 hc        1 SPO      0.046200
     93 H352       21.3500   11.1690   13.5500 hc        1 SPO      0.046200
     94 H361       18.8810    9.2940   13.4090 hc        1 SPO      0.050200
     95 H362       20.5580    8.8480   12.9160 hc        1 SPO      0.050200
     96 H37        20.7920    9.9110   15.6150 ha        1 SPO      0.122000
     97 H391       20.8140    8.4760   17.4820 hc        1 SPO      0.040533
     98 H392       21.0340    6.7440   16.9910 hc        1 SPO      0.040533
     99 H393       19.4050    7.3330   17.5220 hc        1 SPO      0.040533
    100 H401       19.2720    5.9190   15.3590 hc        1 SPO      0.040533
    101 H402       19.8370    6.6900   13.8170 hc        1 SPO      0.040533
    102 H403       18.2580    7.1860   14.5480 hc        1 SPO      0.040533
@<TRIPOS>BOND
     1    1    2 1   
     2    1   43 1   
     3    1   44 1   
     4    1   45 1   
     5    2    3 1   
     6    3    4 1   
     7    3    5 1   
     8    3    6 1   
     9    4   46 1   
    10    4   47 1   
    11    4   48 1   
    12    5   49 1   
    13    5   50 1   
    14    5   51 1   
    15    6    7 1   
    16    6   52 1   
    17    6   53 1   
    18    7    8 2   
    19    7   54 1   
    20    8    9 1   
    21    8   55 1   
    22    9   10 1   
    23    9   11 2   
    24   10   56 1   
    25   10   57 1   
    26   10   58 1   
    27   11   12 1   
    28   11   60 1   
    29   12   13 2   
    30   12   59 1   
    31   13   14 1   
    32   13   61 1   
    33   14   15 1   
    34   14   16 2   
    35   15   62 1   
    36   15   63 1   
    37   15   64 1   
    38   16   17 1   
    39   16   65 1   
    40   17   18 2   
    41   17   66 1   
    42   18   19 1   
    43   18   67 1   
    44   19   20 1   
    45   19   21 2   
    46   20   68 1   
    47   20   69 1   
    48   20   70 1   
    49   21   22 1   
    50   21   71 1   
    51   22   23 2   
    52   22   72 1   
    53   23   24 1   
    54   23   73 1   
    55   24   25 2   
    56   24   74 1   
    57   25   26 1   
    58   25   27 1   
    59   26   75 1   
    60   26   76 1   
    61   26   77 1   
    62   27   28 2   
    63   27   78 1   
    64   28   29 1   
    65   28   79 1   
    66   29   30 2   
    67   29   80 1   
    68   30   31 1   
    69   30   32 1   
    70   31   81 1   
    71   31   82 1   
    72   31   83 1   
    73   32   33 1   
    74   32   84 1   
    75   32   85 1   
    76   33   34 1   
    77   33   86 1   
    78   33   87 1   
    79   34   35 2   
    80   34   88 1   
    81   35   36 1   
    82   35   37 1   
    83   36   89 1   
    84   36   90 1   
    85   36   91 1   
    86   37   38 1   
    87   37   92 1   
    88   37   93 1   
    89   38   39 1   
    90   38   94 1   
    91   38   95 1   
    92   39   40 2   
    93   39   96 1   
    94   40   41 1   
    95   40   42 1   
    96   41   97 1   
    97   41   98 1   
    98   41   99 1   
    99   42  100 1   
   100   42  101 1   
   101   42  102 1   
@<TRIPOS>SUBSTRUCTURE
     1 SPO         1 TEMP              0 ****  ****    0 ROOT
