@<TRIPOS>MOLECULE
SPP
   60    63     1     0     0
SMALL
bcc


@<TRIPOS>ATOM
      1 C2          0.0310   -0.0410    0.1140 ca        1 SPP      0.512200
      2 C3          1.4520   -0.3120    0.2150 ca        1 SPP      0.072300
      3 C4          1.9790   -0.4580    1.5210 ca        1 SPP     -0.161000
      4 C5          1.1440   -0.3680    2.6270 ca        1 SPP     -0.210300
      5 C6         -0.2230   -0.1220    2.4230 ca        1 SPP      0.360200
      6 C8         -1.0730   -1.0620   -1.7700 c3        1 SPP      0.143300
      7 C9         -1.5750   -0.8530   -3.2150 c3        1 SPP      0.072000
      8 C11        -1.9550    1.4970   -2.7410 c3        1 SPP      0.072000
      9 C12        -1.4660    1.2750   -1.2900 c3        1 SPP      0.143300
     10 C          -3.8130    0.0800   -3.5680 c         1 SPP      0.674300
     11 C14        -4.6830    1.2600   -3.8120 cc        1 SPP     -0.118300
     12 C15        -5.9010    1.5430   -3.1930 cd        1 SPP     -0.125200
     13 C16        -7.5680    3.5010   -3.6090 ca        1 SPP     -0.104000
     14 C17        -7.7790    4.6420   -4.3970 ca        1 SPP      0.113600
     15 C18        -6.8130    5.0250   -5.3760 ca        1 SPP     -0.138000
     16 C19        -5.6650    4.2870   -5.5910 ca        1 SPP     -0.123000
     17 C20        -5.4500    3.1420   -4.8060 ca        1 SPP     -0.046200
     18 C21        -6.4130    2.7470   -3.8040 ca        1 SPP     -0.092800
     19 CA          3.6690   -0.3220   -0.8690 c3        1 SPP      0.192500
     20 CB          4.3250   -0.6950   -2.2000 c3        1 SPP     -0.114100
     21 CC          4.1040    1.0960   -0.4930 c3        1 SPP     -0.114100
     22 CE        -10.5360    4.8250   -6.1860 c3        1 SPP     -0.369300
     23 N           2.2290   -0.5260   -0.9260 nh        1 SPP     -0.715600
     24 N1         -0.7690    0.0340    1.2100 nb        1 SPP     -0.667000
     25 N7         -0.5210    0.1670   -1.2050 nh        1 SPP     -0.724300
     26 N10        -2.4420    0.2980   -3.3900 n         1 SPP     -0.451800
     27 N13        -4.3870    2.2400   -4.7750 na        1 SPP     -0.173400
     28 ND         -8.9390    5.4200   -4.2060 nh        1 SPP     -0.787500
     29 O          -4.2920   -1.0680   -3.6170 o         1 SPP     -0.569100
     30 OS1        -9.0560    6.8580   -6.2660 o         1 SPP     -0.653300
     31 OS2       -10.8720    6.8420   -4.6990 o         1 SPP     -0.653300
     32 S          -9.8420    6.1320   -5.3520 s6        1 SPP      1.469900
     33 H4          3.0520   -0.6480    1.6720 ha        1 SPP      0.141000
     34 H5          1.5430   -0.4840    3.6430 ha        1 SPP      0.143000
     35 H6         -0.9240   -0.0460    3.2730 h4        1 SPP      0.023100
     36 H81        -0.2520   -1.8310   -1.7940 h1        1 SPP      0.057450
     37 H82        -1.9180   -1.4700   -1.1440 h1        1 SPP      0.057450
     38 H91        -0.6880   -0.6950   -3.8940 h1        1 SPP      0.066950
     39 H92        -2.1110   -1.7910   -3.5340 h1        1 SPP      0.066950
     40 H111       -1.0990    1.8850   -3.3640 h1        1 SPP      0.066950
     41 H112       -2.7530    2.2880   -2.7010 h1        1 SPP      0.066950
     42 H121       -2.3680    1.1280   -0.6300 h1        1 SPP      0.057450
     43 H122       -0.9360    2.2090   -0.9550 h1        1 SPP      0.057450
     44 H15        -6.3780    0.9640   -2.4070 ha        1 SPP      0.171000
     45 H16        -8.2900    3.1950   -2.8380 ha        1 SPP      0.141000
     46 H18        -6.9810    5.9340   -5.9820 ha        1 SPP      0.172000
     47 H19        -4.9370    4.5970   -6.3530 ha        1 SPP      0.143000
     48 HA          4.0690   -1.0320   -0.0830 h1        1 SPP      0.058700
     49 HB1         3.9980   -0.0060   -3.0160 hc        1 SPP      0.043533
     50 HB2         4.0710   -1.7420   -2.4920 hc        1 SPP      0.043533
     51 HB3         5.4330   -0.6140   -2.0890 hc        1 SPP      0.043533
     52 HC1         5.2160    1.1330   -0.4120 hc        1 SPP      0.043533
     53 HC2         3.6640    1.3970    0.4890 hc        1 SPP      0.043533
     54 HC3         3.7800    1.8300   -1.2690 hc        1 SPP      0.043533
     55 HE1       -11.3080    4.2840   -5.5860 h1        1 SPP      0.117700
     56 HE2       -11.0550    5.1850   -7.1110 h1        1 SPP      0.117700
     57 HE3        -9.7990    4.0580   -6.5270 h1        1 SPP      0.117700
     58 HN          1.8280   -0.1580   -1.7660 hn        1 SPP      0.414800
     59 HN3        -3.6540    2.1860   -5.4320 hn        1 SPP      0.308700
     60 HND        -9.2180    5.4720   -3.2510 hn        1 SPP      0.458800
@<TRIPOS>BOND
     1    1    2 ar  
     2    1   24 ar  
     3    1   25 1   
     4    2    3 ar  
     5    2   23 1   
     6    3    4 ar  
     7    3   33 1   
     8    4    5 ar  
     9    4   34 1   
    10    5   24 ar  
    11    5   35 1   
    12    6    7 1   
    13    6   25 1   
    14    6   36 1   
    15    6   37 1   
    16    7   26 1   
    17    7   38 1   
    18    7   39 1   
    19    8    9 1   
    20    8   26 1   
    21    8   40 1   
    22    8   41 1   
    23    9   25 1   
    24    9   42 1   
    25    9   43 1   
    26   10   11 1   
    27   10   26 1   
    28   10   29 2   
    29   11   12 2   
    30   11   27 1   
    31   12   18 1   
    32   12   44 1   
    33   13   14 ar  
    34   13   18 ar  
    35   13   45 1   
    36   14   15 ar  
    37   14   28 1   
    38   15   16 ar  
    39   15   46 1   
    40   16   17 ar  
    41   16   47 1   
    42   17   18 ar  
    43   17   27 1   
    44   19   20 1   
    45   19   21 1   
    46   19   23 1   
    47   19   48 1   
    48   20   49 1   
    49   20   50 1   
    50   20   51 1   
    51   21   52 1   
    52   21   53 1   
    53   21   54 1   
    54   22   32 1   
    55   22   55 1   
    56   22   56 1   
    57   22   57 1   
    58   23   58 1   
    59   27   59 1   
    60   28   32 1   
    61   28   60 1   
    62   30   32 2   
    63   31   32 2   
@<TRIPOS>SUBSTRUCTURE
     1 SPP         1 TEMP              0 ****  ****    0 ROOT
