@<TRIPOS>MOLECULE
SPP
   60    53     1     0     0
SMALL
bcc


@<TRIPOS>ATOM
      1 C2          2.6220    0.8280    2.3800 c1        1 SPP     -0.017000
      2 C3          3.9160    1.3030    2.6140 c1        1 SPP      0.065000
      3 C4          4.5880    0.9240    3.7420 c1        1 SPP     -0.163000
      4 C5          3.9900    0.0760    4.6460 c1        1 SPP     -0.125500
      5 C6          2.7000   -0.3960    4.4110 c1        1 SPP     -0.125500
      6 C8          1.9920    0.2700    0.1760 c3        1 SPP     -0.093000
      7 C9          1.1170    0.5950   -1.0250 c3        1 SPP     -0.039000
      8 C11        -0.3440    1.8590    0.3660 c3        1 SPP     -0.039000
      9 C12         0.5250    1.5410    1.5770 c3        1 SPP     -0.093000
     10 C          -1.3810    0.2140   -1.2630 c1        1 SPP      0.357000
     11 C14        -2.7950    0.4200   -0.6580 c1        1 SPP     -0.069000
     12 C15        -4.0520   -0.0590   -1.0060 c1        1 SPP     -0.154000
     13 C16        -4.8530   -2.3660   -1.5430 c1        1 SPP     -0.108000
     14 C17        -4.3800   -3.6520   -1.7810 c1        1 SPP      0.034000
     15 C18        -3.1110   -4.0270   -1.3250 c1        1 SPP     -0.139000
     16 C19        -2.3190   -3.1090   -0.6330 c1        1 SPP     -0.118000
     17 C20        -2.8000   -1.8000   -0.3900 c1        1 SPP      0.001000
     18 C21        -4.0470   -1.4320   -0.8370 c1        1 SPP     -0.084000
     19 CA          4.7130    3.5520    1.8600 c3        1 SPP      0.004000
     20 CB          4.0870    4.3250    0.6960 c3        1 SPP     -0.224000
     21 CC          6.2050    3.9070    1.9660 c3        1 SPP     -0.224000
     22 CE         -6.7090   -3.5980   -5.2790 c3        1 SPP     -0.948000
     23 N           4.5700    2.1330    1.6280 n3        1 SPP     -0.285000
     24 N1          2.0280   -0.0170    3.2820 n1        1 SPP     -0.139000
     25 N7          1.8890    1.2690    1.2120 n3        1 SPP     -0.214000
     26 N10        -0.2250    0.8760   -0.6520 n3        1 SPP     -0.304000
     27 N13        -2.0240   -0.6480   -0.2800 n1        1 SPP     -0.178000
     28 ND         -5.5110   -3.4900   -2.6950 n3        1 SPP     -0.837000
     29 O          -1.2110   -0.6200   -2.1330 o         1 SPP     -0.365000
     30 OS1        -4.2570   -4.5330   -4.6900 o         1 SPP     -0.932500
     31 OS2        -5.9380   -5.7440   -3.8600 o         1 SPP     -0.932500
     32 S          -5.5740   -4.3730   -4.1130 s6        1 SPP      2.825000
     33 H4          5.4980    1.2580    3.9070 ha        1 SPP      0.143000
     34 H5          4.4750   -0.1980    5.4620 ha        1 SPP      0.151500
     35 H6          2.2750   -0.9990    5.0550 ha        1 SPP      0.151500
     36 H81         2.9330    0.2110   -0.1190 h1        1 SPP      0.096000
     37 H82         1.7160   -0.6020    0.5450 h1        1 SPP      0.096000
     38 H91         1.4900    1.3780   -1.4880 h1        1 SPP      0.107000
     39 H92         1.1230   -0.1710   -1.6390 h1        1 SPP      0.107000
     40 H111       -0.0750    2.7270    0.0020 h1        1 SPP      0.107000
     41 H112       -1.2820    1.9100    0.6520 h1        1 SPP      0.107000
     42 H121        0.1580    0.7610    2.0330 h1        1 SPP      0.096000
     43 H122        0.5060    2.3110    2.1950 h1        1 SPP      0.096000
     44 H15        -4.8220    0.4880   -1.3000 DU        1 SPP      0.216000
     45 H16        -5.7400   -2.1040   -1.8610 ha        1 SPP      0.139000
     46 H18        -2.7780   -4.9330   -1.4930 ha        1 SPP      0.172000
     47 H19        -1.4250   -3.3730   -0.3120 ha        1 SPP      0.145000
     48 HA          4.2570    3.7950    2.6980 h1        1 SPP      0.085000
     49 HB1         4.4640    4.0040   -0.1500 hc        1 SPP      0.082167
     50 HB2         4.2790    5.2830    0.7970 hc        1 SPP      0.082167
     51 HB3         3.1140    4.1860    0.6950 hc        1 SPP      0.082167
     52 HC1         6.4220    4.6210    1.3120 hc        1 SPP      0.082167
     53 HC2         6.7480    3.1060    1.7720 hc        1 SPP      0.082167
     54 HC3         6.4030    4.2250    2.8780 hc        1 SPP      0.082167
     55 HE1        -6.7460   -2.6260   -5.1070 h1        1 SPP      0.157000
     56 HE2        -7.6070   -3.9850   -5.1690 h1        1 SPP      0.157000
     57 HE3        -6.3960   -3.7560   -6.1940 h1        1 SPP      0.157000
     58 HN          4.9490    1.7490    0.8820 hn        1 SPP      0.219000
     59 HN3        -1.1750   -0.6040    0.0520 DU        1 SPP      0.216000
     60 HND        -6.1740   -2.8880   -2.5010 hn        1 SPP      0.253000
@<TRIPOS>BOND
     1    1   24 1   
     2    1   25 1   
     3    2    3 1   
     4    2   23 1   
     5    3   33 1   
     6    4    5 1   
     7    4   34 1   
     8    5   35 1   
     9    6    7 1   
    10    6   25 1   
    11    6   36 1   
    12    6   37 1   
    13    7   26 1   
    14    7   38 1   
    15    7   39 1   
    16    8    9 1   
    17    8   26 1   
    18    8   40 1   
    19    8   41 1   
    20    9   25 1   
    21    9   42 1   
    22    9   43 1   
    23   10   26 1   
    24   10   29 1   
    25   11   12 1   
    26   11   27 1   
    27   12   18 1   
    28   13   18 1   
    29   13   45 1   
    30   14   15 1   
    31   14   28 1   
    32   15   46 1   
    33   16   17 1   
    34   16   47 1   
    35   19   20 1   
    36   19   21 1   
    37   19   23 1   
    38   19   48 1   
    39   20   49 1   
    40   20   50 1   
    41   20   51 1   
    42   21   52 1   
    43   21   53 1   
    44   21   54 1   
    45   22   32 1   
    46   22   55 1   
    47   22   56 1   
    48   22   57 1   
    49   23   58 1   
    50   28   32 1   
    51   28   60 1   
    52   30   32 1   
    53   31   32 1   
@<TRIPOS>SUBSTRUCTURE
     1 SPP         1 TEMP              0 ****  ****    0 ROOT
