@<TRIPOS>MOLECULE
SPP
   60    63     1     0     0
SMALL
bcc


@<TRIPOS>ATOM
      1 C2          4.8720    0.0680   -1.0620 ca        1 SPP      0.512200
      2 C3          6.1870   -0.3050   -0.5790 ca        1 SPP      0.072300
      3 C4          7.1890   -0.5090   -1.5590 ca        1 SPP     -0.161000
      4 C5          6.9000   -0.3250   -2.9040 ca        1 SPP     -0.210300
      5 C6          5.5990    0.0570   -3.2700 ca        1 SPP      0.360200
      6 C8          3.6700    1.6180    0.3390 c3        1 SPP      0.143300
      7 C9          2.6080    1.7660    1.4500 c3        1 SPP      0.072500
      8 C11         1.4820   -0.2250    0.6370 c3        1 SPP      0.072500
      9 C12         2.5420   -0.3570   -0.4830 c3        1 SPP      0.143300
     10 C           0.2450    1.9150    0.8170 c         1 SPP      0.674300
     11 C14        -1.0620    1.2470    0.5870 cc        1 SPP     -0.118300
     12 C15        -1.9340    1.4600   -0.4810 cd        1 SPP     -0.125200
     13 C16        -4.2900    0.4470   -0.9390 ca        1 SPP     -0.104000
     14 C17        -5.2560   -0.4230   -0.4110 ca        1 SPP      0.113600
     15 C18        -5.0140   -1.0970    0.8240 ca        1 SPP     -0.138000
     16 C19        -3.8470   -0.9060    1.5380 ca        1 SPP     -0.123000
     17 C20        -2.8780   -0.0340    1.0160 ca        1 SPP     -0.046200
     18 C21        -3.1030    0.6480   -0.2380 ca        1 SPP     -0.092800
     19 CA          7.5790   -1.1560    1.2720 c3        1 SPP      0.192500
     20 CB          7.7540   -0.9900    2.7840 c3        1 SPP     -0.114100
     21 CC          7.4770   -2.6500    0.9560 c3        1 SPP     -0.114100
     22 CE         -8.2840    0.7450    0.1380 c3        1 SPP     -0.369300
     23 N           6.4670   -0.3500    0.7890 nh        1 SPP     -0.715600
     24 N1          4.6130    0.2520   -2.3840 nb        1 SPP     -0.667000
     25 N7          3.8180    0.2280   -0.0860 nh        1 SPP     -0.724300
     26 N10         1.3410    1.1170    1.1620 n         1 SPP     -0.451800
     27 N13        -1.6150    0.3200    1.4880 na        1 SPP     -0.173400
     28 ND         -6.4580   -0.6430   -1.1130 nh        1 SPP     -0.787500
     29 O           0.3220    3.1570    0.7910 o         1 SPP     -0.569100
     30 OS1        -7.9720   -1.7110    0.5890 o         1 SPP     -0.653300
     31 OS2        -8.8330   -1.0540   -1.5520 o         1 SPP     -0.653300
     32 S          -7.9460   -0.8000   -0.4840 s6        1 SPP      1.469900
     33 H4          8.2050   -0.8110   -1.2640 ha        1 SPP      0.141000
     34 H5          7.6710   -0.4760   -3.6710 ha        1 SPP      0.143000
     35 H6          5.3260    0.2170   -4.3280 h4        1 SPP      0.023100
     36 H81         3.3970    2.2940   -0.5210 h1        1 SPP      0.057450
     37 H82         4.6580    1.9610    0.7540 h1        1 SPP      0.057450
     38 H91         3.0000    1.3020    2.3990 h1        1 SPP      0.066950
     39 H92         2.4440    2.8660    1.6270 h1        1 SPP      0.066950
     40 H111        0.5100   -0.5990    0.2130 h1        1 SPP      0.066950
     41 H112        1.7740   -0.8890    1.5010 h1        1 SPP      0.066950
     42 H121        2.7080   -1.4520   -0.6770 h1        1 SPP      0.057450
     43 H122        2.1250    0.1070   -1.4230 h1        1 SPP      0.057450
     44 H15        -1.7700    2.1180   -1.3300 ha        1 SPP      0.171000
     45 H16        -4.4470    0.9650   -1.8970 ha        1 SPP      0.141000
     46 H18        -5.7740   -1.7920    1.2250 ha        1 SPP      0.172000
     47 H19        -3.6830   -1.4310    2.4900 ha        1 SPP      0.143000
     48 HA          8.5140   -0.7540    0.7760 h1        1 SPP      0.058700
     49 HB1         8.6680   -1.5470    3.1020 hc        1 SPP      0.043533
     50 HB2         7.8790    0.0850    3.0560 hc        1 SPP      0.043533
     51 HB3         6.8760   -1.4010    3.3370 hc        1 SPP      0.043533
     52 HC1         8.4020   -3.1660    1.3080 hc        1 SPP      0.043533
     53 HC2         6.5980   -3.1060    1.4700 hc        1 SPP      0.043533
     54 HC3         7.3730   -2.8140   -0.1440 hc        1 SPP      0.043533
     55 HE1        -8.4480    1.5110   -0.6590 h1        1 SPP      0.117700
     56 HE2        -9.2240    0.7220    0.7480 h1        1 SPP      0.117700
     57 HE3        -7.4910    1.1500    0.8120 h1        1 SPP      0.117700
     58 HN          5.6560   -0.4390    1.3680 hn        1 SPP      0.414800
     59 HN3        -1.2510    0.1110    2.3800 hn        1 SPP      0.308700
     60 HND        -6.3340   -0.6520   -2.1010 hn        1 SPP      0.458800
@<TRIPOS>BOND
     1    1    2 ar  
     2    1   24 ar  
     3    1   25 1   
     4    2    3 ar  
     5    2   23 1   
     6    3    4 ar  
     7    3   33 1   
     8    4    5 ar  
     9    4   34 1   
    10    5   24 ar  
    11    5   35 1   
    12    6    7 1   
    13    6   25 1   
    14    6   36 1   
    15    6   37 1   
    16    7   26 1   
    17    7   38 1   
    18    7   39 1   
    19    8    9 1   
    20    8   26 1   
    21    8   40 1   
    22    8   41 1   
    23    9   25 1   
    24    9   42 1   
    25    9   43 1   
    26   10   11 1   
    27   10   26 1   
    28   10   29 2   
    29   11   12 2   
    30   11   27 1   
    31   12   18 1   
    32   12   44 1   
    33   13   14 ar  
    34   13   18 ar  
    35   13   45 1   
    36   14   15 ar  
    37   14   28 1   
    38   15   16 ar  
    39   15   46 1   
    40   16   17 ar  
    41   16   47 1   
    42   17   18 ar  
    43   17   27 1   
    44   19   20 1   
    45   19   21 1   
    46   19   23 1   
    47   19   48 1   
    48   20   49 1   
    49   20   50 1   
    50   20   51 1   
    51   21   52 1   
    52   21   53 1   
    53   21   54 1   
    54   22   32 1   
    55   22   55 1   
    56   22   56 1   
    57   22   57 1   
    58   23   58 1   
    59   27   59 1   
    60   28   32 1   
    61   28   60 1   
    62   30   32 2   
    63   31   32 2   
@<TRIPOS>SUBSTRUCTURE
     1 SPP         1 TEMP              0 ****  ****    0 ROOT
