@<TRIPOS>MOLECULE
SPP
   62    65     1     0     0
SMALL
bcc


@<TRIPOS>ATOM
      1 C2          0.0660   -0.0250    0.0220 ca        1 SPP      0.613200
      2 C3          1.4830   -0.2470    0.1490 ca        1 SPP     -0.159700
      3 C4          2.0060   -0.5760    1.4140 ca        1 SPP     -0.058000
      4 C5          1.1400   -0.6900    2.4960 ca        1 SPP     -0.219300
      5 C6         -0.2350   -0.4650    2.2880 ca        1 SPP      0.468200
      6 C8         -1.1000   -0.8030   -1.9370 c3        1 SPP      0.127800
      7 C9         -1.6450   -0.4290   -3.3320 c3        1 SPP      0.066000
      8 C11        -1.8710    1.8770   -2.6480 c3        1 SPP      0.066000
      9 C12        -1.3120    1.5200   -1.2500 c3        1 SPP      0.127800
     10 C          -3.8720    0.5700   -3.2660 c         1 SPP      0.665300
     11 C14        -4.7580    1.7250   -3.5600 cc        1 SPP     -0.111300
     12 C15        -6.0350    1.9270   -3.0310 cd        1 SPP     -0.092200
     13 C16        -7.7840    3.7770   -3.5700 ca        1 SPP     -0.032000
     14 C17        -8.0020    4.8850   -4.3980 ca        1 SPP     -0.111400
     15 C18        -6.9980    5.3470   -5.2990 ca        1 SPP     -0.102000
     16 C19        -5.7880    4.6950   -5.4140 ca        1 SPP     -0.107000
     17 C20        -5.5580    3.5610   -4.6090 ca        1 SPP     -0.002200
     18 C21        -6.5740    3.0990   -3.6790 ca        1 SPP     -0.116800
     19 CA          3.7670   -0.5580   -0.9080 c3        1 SPP      0.131500
     20 CB          4.3160   -0.9430   -2.2790 c3        1 SPP     -0.136600
     21 CC          4.6410    0.5220   -0.2870 c3        1 SPP     -0.136600
     22 CE        -10.2830    3.9100   -6.1890 c3        1 SPP     -0.465300
     23 N           2.3260   -0.1050   -1.0360 n4        1 SPP     -0.620400
     24 N1         -0.7590   -0.1440    1.0970 nb        1 SPP     -0.664000
     25 N7         -0.4480    0.3370   -1.2820 nh        1 SPP     -0.754300
     26 N10        -2.4740    0.7630   -3.3520 n         1 SPP     -0.446800
     27 N13        -4.4580    2.7260   -4.5030 na        1 SPP     -0.150400
     28 ND         -9.2500    5.6260   -4.3150 n4        1 SPP     -0.564300
     29 O          -4.3700   -0.5460   -3.0540 o         1 SPP     -0.523100
     30 OS1        -9.5850    6.2820   -6.7740 o         1 SPP     -0.555800
     31 OS2       -11.5200    5.9530   -5.3790 o         1 SPP     -0.555800
     32 S         -10.3170    5.5200   -5.8920 s6        1 SPP      1.415900
     33 H4          3.0840   -0.7430    1.5740 ha        1 SPP      0.169000
     34 H5          1.5190   -0.9490    3.4980 ha        1 SPP      0.189000
     35 H6         -0.9630   -0.5500    3.1220 h4        1 SPP      0.067100
     36 H81        -1.9470   -1.2160   -1.3160 h1        1 SPP      0.068450
     37 H82        -0.3330   -1.6160   -2.0660 h1        1 SPP      0.068450
     38 H91        -2.2320   -1.3120   -3.7150 h1        1 SPP      0.077950
     39 H92        -0.7850   -0.2350   -4.0340 h1        1 SPP      0.077950
     40 H111       -2.6160    2.7070   -2.5040 h1        1 SPP      0.077950
     41 H112       -1.0300    2.2590   -3.2960 h1        1 SPP      0.077950
     42 H121       -2.1810    1.3920   -0.5420 h1        1 SPP      0.068450
     43 H122       -0.6920    2.3880   -0.8910 h1        1 SPP      0.068450
     44 H15        -6.5300    1.3080   -2.2850 ha        1 SPP      0.193000
     45 H16        -8.5350    3.4300   -2.8420 ha        1 SPP      0.160000
     46 H18        -7.1860    6.2380   -5.9270 ha        1 SPP      0.176000
     47 H19        -5.0220    5.0570   -6.1180 ha        1 SPP      0.174000
     48 HA          3.7610   -1.4810   -0.2530 hx        1 SPP      0.110700
     49 HB1         4.3350   -0.0700   -2.9760 hc        1 SPP      0.080367
     50 HB2         5.3680   -1.3020   -2.1410 hc        1 SPP      0.080367
     51 HB3         3.7280   -1.7730   -2.7420 hc        1 SPP      0.080367
     52 HC1         4.7510    1.3980   -0.9730 hc        1 SPP      0.080367
     53 HC2         5.6590    0.0890   -0.1100 hc        1 SPP      0.080367
     54 HC3         4.2380    0.8780    0.6920 hc        1 SPP      0.080367
     55 HE1       -10.4690    3.6720   -7.2810 h1        1 SPP      0.178700
     56 HE2       -11.0730    3.3170   -5.6450 h1        1 SPP      0.178700
     57 HE3        -9.3160    3.3740   -5.9730 h1        1 SPP      0.178700
     58 HN          1.8920   -0.6470   -1.7980 hn        1 SPP      0.456800
     59 HN3        -3.6520    2.7470   -5.0760 hn        1 SPP      0.328700
     60 HND        -9.7790    5.3110   -3.5010 hn        1 SPP      0.458300
     61 H2          2.3180    0.8870   -1.3100 hn        1 SPP      0.456800
     62 HD2        -9.0170    6.6090   -4.1500 hn        1 SPP      0.458300
@<TRIPOS>BOND
     1    1    2 ar  
     2    1   24 ar  
     3    1   25 1   
     4    2    3 ar  
     5    2   23 1   
     6    3    4 ar  
     7    3   33 1   
     8    4    5 ar  
     9    4   34 1   
    10    5   24 ar  
    11    5   35 1   
    12    6    7 1   
    13    6   25 1   
    14    6   36 1   
    15    6   37 1   
    16    7   26 1   
    17    7   38 1   
    18    7   39 1   
    19    8    9 1   
    20    8   26 1   
    21    8   40 1   
    22    8   41 1   
    23    9   25 1   
    24    9   42 1   
    25    9   43 1   
    26   10   11 1   
    27   10   26 1   
    28   10   29 2   
    29   11   12 2   
    30   11   27 1   
    31   12   18 1   
    32   12   44 1   
    33   13   14 ar  
    34   13   18 ar  
    35   13   45 1   
    36   14   15 ar  
    37   14   28 1   
    38   15   16 ar  
    39   15   46 1   
    40   16   17 ar  
    41   16   47 1   
    42   17   18 ar  
    43   17   27 1   
    44   19   20 1   
    45   19   21 1   
    46   19   23 1   
    47   19   48 1   
    48   20   49 1   
    49   20   50 1   
    50   20   51 1   
    51   21   52 1   
    52   21   53 1   
    53   21   54 1   
    54   22   32 1   
    55   22   55 1   
    56   22   56 1   
    57   22   57 1   
    58   23   58 1   
    59   23   61 1   
    60   27   59 1   
    61   28   32 1   
    62   28   60 1   
    63   28   62 1   
    64   30   32 2   
    65   31   32 2   
@<TRIPOS>SUBSTRUCTURE
     1 SPP         1 TEMP              0 ****  ****    0 ROOT
