@<TRIPOS>MOLECULE
SPP
   60    63     1     0     0
SMALL
bcc


@<TRIPOS>ATOM
      1 C2          0.0440   -0.0350    0.1070 ca        1 SPP      0.512200
      2 C3          1.4650   -0.3110    0.1990 ca        1 SPP      0.072300
      3 C4          2.0000   -0.4510    1.5030 ca        1 SPP     -0.161000
      4 C5          1.1740   -0.3520    2.6140 ca        1 SPP     -0.210300
      5 C6         -0.1940   -0.1020    2.4190 ca        1 SPP      0.360200
      6 C8         -1.0770   -1.0630   -1.7630 c3        1 SPP      0.143300
      7 C9         -1.5880   -0.8600   -3.2060 c3        1 SPP      0.072500
      8 C11        -1.9580    1.4940   -2.7430 c3        1 SPP      0.072500
      9 C12        -1.4590    1.2780   -1.2940 c3        1 SPP      0.143300
     10 C          -3.8260    0.0780   -3.5500 c         1 SPP      0.674300
     11 C14        -4.6930    1.2600   -3.7950 cc        1 SPP     -0.118300
     12 C15        -5.9060    1.5500   -3.1700 cd        1 SPP     -0.125200
     13 C16        -7.5700    3.5110   -3.5880 ca        1 SPP     -0.104000
     14 C17        -7.7820    4.6490   -4.3810 ca        1 SPP      0.113600
     15 C18        -6.8210    5.0230   -5.3670 ca        1 SPP     -0.138000
     16 C19        -5.6760    4.2810   -5.5840 ca        1 SPP     -0.123000
     17 C20        -5.4600    3.1390   -4.7950 ca        1 SPP     -0.046200
     18 C21        -6.4190    2.7520   -3.7850 ca        1 SPP     -0.092800
     19 CA          3.6730   -0.3340   -0.9000 c3        1 SPP      0.192500
     20 CB          4.3190   -0.7170   -2.2350 c3        1 SPP     -0.114100
     21 CC          4.1150    1.0850   -0.5350 c3        1 SPP     -0.114100
     22 CE        -10.5490    4.8310   -6.1550 c3        1 SPP     -0.369300
     23 N           2.2320   -0.5330   -0.9460 nu        1 SPP     -0.715600
     24 N1         -0.7490    0.0500    1.2090 nb        1 SPP     -0.667000
     25 N7         -0.5170    0.1680   -1.2090 nh        1 SPP     -0.724300
     26 N10        -2.4530    0.2920   -3.3810 n         1 SPP     -0.451800
     27 N13        -4.4000    2.2340   -4.7650 na        1 SPP     -0.173400
     28 ND         -8.9380    5.4300   -4.1870 nu        1 SPP     -0.787500
     29 O          -4.3090   -1.0680   -3.5890 o         1 SPP     -0.569100
     30 OS1        -9.0630    6.8590   -6.2540 o         1 SPP     -0.653300
     31 OS2       -10.8700    6.8560   -4.6760 o         1 SPP     -0.653300
     32 S          -9.8450    6.1400   -5.3320 s6        1 SPP      1.469900
     33 H4          3.0740   -0.6440    1.6470 ha        1 SPP      0.141000
     34 H5          1.5790   -0.4640    3.6280 ha        1 SPP      0.143000
     35 H6         -0.8890   -0.0190    3.2730 h4        1 SPP      0.023100
     36 H81        -0.2590   -1.8350   -1.7880 h1        1 SPP      0.057450
     37 H82        -1.9190   -1.4640   -1.1290 h1        1 SPP      0.057450
     38 H91        -2.1290   -1.7980   -3.5160 h1        1 SPP      0.066950
     39 H92        -0.7060   -0.7090   -3.8910 h1        1 SPP      0.066950
     40 H111       -2.7530    2.2880   -2.7000 h1        1 SPP      0.066950
     41 H112       -1.1040    1.8760   -3.3730 h1        1 SPP      0.066950
     42 H121       -0.9240    2.2120   -0.9670 h1        1 SPP      0.057450
     43 H122       -2.3570    1.1370   -0.6260 h1        1 SPP      0.057450
     44 H15        -6.3810    0.9760   -2.3790 ha        1 SPP      0.171000
     45 H16        -8.2890    3.2110   -2.8110 ha        1 SPP      0.141000
     46 H18        -6.9890    5.9300   -5.9770 ha        1 SPP      0.172000
     47 H19        -4.9510    4.5840   -6.3520 ha        1 SPP      0.143000
     48 HA          4.0770   -1.0410   -0.1130 h1        1 SPP      0.058700
     49 HB1         3.9870   -0.0320   -3.0510 hc        1 SPP      0.043533
     50 HB2         4.0590   -1.7650   -2.5180 hc        1 SPP      0.043533
     51 HB3         5.4270   -0.6380   -2.1310 hc        1 SPP      0.043533
     52 HC1         3.7880    1.8160   -1.3130 hc        1 SPP      0.043533
     53 HC2         3.6840    1.3930    0.4480 hc        1 SPP      0.043533
     54 HC3         5.2280    1.1180   -0.4630 hc        1 SPP      0.043533
     55 HE1        -9.8160    4.0590   -6.4960 h1        1 SPP      0.117700
     56 HE2       -11.3190    4.2950   -5.5480 h1        1 SPP      0.117700
     57 HE3       -11.0730    5.1880   -7.0780 h1        1 SPP      0.117700
     58 HN          1.8260   -0.1690   -1.7850 hn        1 SPP      0.414800
     59 HN3        -3.6710    2.1740   -5.4260 hn        1 SPP      0.308700
     60 HND        -9.2120    5.4880   -3.2310 hn        1 SPP      0.458800
@<TRIPOS>BOND
     1    1    2 ar  
     2    1   24 ar  
     3    1   25 1   
     4    2    3 ar  
     5    2   23 1   
     6    3    4 ar  
     7    3   33 1   
     8    4    5 ar  
     9    4   34 1   
    10    5   24 ar  
    11    5   35 1   
    12    6    7 1   
    13    6   25 1   
    14    6   36 1   
    15    6   37 1   
    16    7   26 1   
    17    7   38 1   
    18    7   39 1   
    19    8    9 1   
    20    8   26 1   
    21    8   40 1   
    22    8   41 1   
    23    9   25 1   
    24    9   42 1   
    25    9   43 1   
    26   10   11 1   
    27   10   26 1   
    28   10   29 2   
    29   11   12 2   
    30   11   27 1   
    31   12   18 1   
    32   12   44 1   
    33   13   14 ar  
    34   13   18 ar  
    35   13   45 1   
    36   14   15 ar  
    37   14   28 1   
    38   15   16 ar  
    39   15   46 1   
    40   16   17 ar  
    41   16   47 1   
    42   17   18 ar  
    43   17   27 1   
    44   19   20 1   
    45   19   21 1   
    46   19   23 1   
    47   19   48 1   
    48   20   49 1   
    49   20   50 1   
    50   20   51 1   
    51   21   52 1   
    52   21   53 1   
    53   21   54 1   
    54   22   32 1   
    55   22   55 1   
    56   22   56 1   
    57   22   57 1   
    58   23   58 1   
    59   27   59 1   
    60   28   32 1   
    61   28   60 1   
    62   30   32 2   
    63   31   32 2   
@<TRIPOS>SUBSTRUCTURE
     1 SPP         1 TEMP              0 ****  ****    0 ROOT
