@<TRIPOS>MOLECULE
SPQ
   36    36     1     0     0
SMALL
bcc


@<TRIPOS>ATOM
      1 O6P        -0.9150   -0.2040    5.5160 o         1 SPQ     -0.958167
      2 P2          0.1770   -1.0620    4.9240 p5        1 SPQ      1.402900
      3 O4P        -0.1640   -2.5340    4.9170 o         1 SPQ     -0.958167
      4 O5P         1.5310   -0.8190    5.5480 o         1 SPQ     -0.958167
      5 O10         0.2820   -0.6300    3.2120 os        1 SPQ     -0.602200
      6 C9         -0.2180    0.2890    2.3390 c3        1 SPQ      0.394600
      7 C8          0.4560    1.7080    2.4000 c         1 SPQ      0.890600
      8 O2'        -0.3050    2.7400    2.4140 o         1 SPQ     -0.895300
      9 O9          1.7090    1.8620    2.4510 o         1 SPQ     -0.895300
     10 C10        -1.7560    0.5490    2.4940 c3        1 SPQ      0.085900
     11 F          -2.5600   -0.5710    2.3690 f         1 SPQ     -0.291300
     12 O3          0.0350   -0.3870    1.0600 os        1 SPQ     -0.452600
     13 C5         -0.3470    0.2620   -0.1600 c3        1 SPQ      0.161100
     14 C4          0.7680   -0.0090   -1.2190 c3        1 SPQ      0.135100
     15 O2          1.4510    1.2330   -1.3770 oh        1 SPQ     -0.633800
     16 C6         -1.7110   -0.2800   -0.6270 c3        1 SPQ     -0.043200
     17 C1         -2.0220    0.0010   -2.0580 ce        1 SPQ     -0.184400
     18 C7         -3.4450    0.3220   -2.4410 c         1 SPQ      0.917800
     19 O5         -3.7640    1.4650   -2.9110 o         1 SPQ     -0.915300
     20 O4         -4.3590   -0.5640   -2.3290 o         1 SPQ     -0.915300
     21 C2         -1.0480   -0.1020   -2.9760 c2        1 SPQ     -0.172200
     22 C3          0.3390   -0.5670   -2.6250 c3        1 SPQ      0.217300
     23 O1          1.2740   -0.1830   -3.5830 os        1 SPQ     -0.606200
     24 P1          1.8780   -1.2520   -4.7810 p5        1 SPQ      1.342900
     25 O3P         3.3470   -0.8860   -4.8460 o         1 SPQ     -0.957833
     26 O2P         1.6090   -2.6600   -4.3120 o         1 SPQ     -0.957833
     27 O1P         1.1510   -0.8800   -6.0570 o         1 SPQ     -0.957833
     28 H101       -1.9210    0.9950    3.5130 h1        1 SPQ      0.039200
     29 H102       -2.0670    1.2940    1.7120 h1        1 SPQ      0.039200
     30 H5         -0.4150    1.3730    0.0030 h1        1 SPQ      0.060700
     31 H4          1.4970   -0.7450   -0.7750 h1        1 SPQ      0.033700
     32 HO2         1.9030    1.1970   -2.2300 ho        1 SPQ      0.405000
     33 H61        -1.7190   -1.3910   -0.4630 hc        1 SPQ      0.036700
     34 H62        -2.5140    0.1470    0.0270 hc        1 SPQ      0.036700
     35 H2         -1.2250    0.1220   -4.0370 ha        1 SPQ      0.110000
     36 H3          0.3270   -1.6980   -2.5660 h1        1 SPQ      0.045700
@<TRIPOS>BOND
     1    1    2 1   
     2    2    3 1   
     3    2    4 1   
     4    2    5 1   
     5    5    6 1   
     6    6    7 1   
     7    6   10 1   
     8    6   12 1   
     9    7    8 1   
    10    7    9 1   
    11   10   11 1   
    12   10   28 1   
    13   10   29 1   
    14   12   13 1   
    15   13   14 1   
    16   13   16 1   
    17   13   30 1   
    18   14   15 1   
    19   14   22 1   
    20   14   31 1   
    21   15   32 1   
    22   16   17 1   
    23   16   33 1   
    24   16   34 1   
    25   17   18 1   
    26   17   21 2   
    27   18   19 1   
    28   18   20 1   
    29   21   22 1   
    30   21   35 1   
    31   22   23 1   
    32   22   36 1   
    33   23   24 1   
    34   24   25 1   
    35   24   26 1   
    36   24   27 1   
@<TRIPOS>SUBSTRUCTURE
     1 SPQ         1 TEMP              0 ****  ****    0 ROOT
