@<TRIPOS>MOLECULE
SPQ
   36    36     1     0     0
SMALL
bcc


@<TRIPOS>ATOM
      1 O6P         0.0960   -1.8720   -0.4730 o         1 SPQ     -0.958167
      2 P2          0.4390   -0.6360    0.3240 p5        1 SPQ      1.402900
      3 O4P         0.2080   -0.8060    1.8080 o         1 SPQ     -0.958167
      4 O5P        -0.2330    0.6130   -0.1930 o         1 SPQ     -0.958167
      5 O10         2.1880   -0.4140    0.1770 os        1 SPQ     -0.602200
      6 C9          3.2470   -0.9270   -0.5100 c3        1 SPQ      0.394600
      7 C8          3.3900   -0.4280   -1.9940 c         1 SPQ      0.890600
      8 O2'         3.6190   -1.3000   -2.9060 o         1 SPQ     -0.895300
      9 O9          3.2710    0.7880   -2.3150 o         1 SPQ     -0.895300
     10 C10         3.2590   -2.4930   -0.5910 c3        1 SPQ      0.085900
     11 F           3.2430   -3.1480    0.6280 f         1 SPQ     -0.291300
     12 O3          4.3610   -0.4750    0.3330 os        1 SPQ     -0.452600
     13 C5          5.7030   -0.8070   -0.0450 c3        1 SPQ      0.161100
     14 C4          6.6080    0.4300    0.2540 c3        1 SPQ      0.135100
     15 O2          6.9330    0.9790   -1.0220 oh        1 SPQ     -0.633800
     16 C6          6.1690   -2.0490    0.7380 c3        1 SPQ     -0.043200
     17 C1          7.6460   -2.2470    0.7450 ce        1 SPQ     -0.184400
     18 C7          8.1880   -3.6540    0.6800 c         1 SPQ      0.917800
     19 O5          8.8790   -4.0530   -0.3170 o         1 SPQ     -0.915300
     20 O4          7.9900   -4.4670    1.6450 o         1 SPQ     -0.915300
     21 C2          8.4530   -1.1830    0.8750 c2        1 SPQ     -0.172200
     22 C3          7.9200    0.2060    1.0910 c3        1 SPQ      0.217300
     23 O1          8.8560    1.1810    0.7560 os        1 SPQ     -0.606200
     24 P1          9.7940    2.0180    1.9250 p5        1 SPQ      1.342900
     25 O3P         9.8100    3.4350    1.3880 o         1 SPQ     -0.957833
     26 O2P         9.1030    1.8660    3.2570 o         1 SPQ     -0.957833
     27 O1P        11.1680    1.3820    1.8700 o         1 SPQ     -0.957833
     28 H101        4.1840   -2.8080   -1.1470 h1        1 SPQ      0.039200
     29 H102        2.3530   -2.8060   -1.1770 h1        1 SPQ      0.039200
     30 H5          5.7470   -1.0170   -1.1500 h1        1 SPQ      0.060700
     31 H4          5.9850    1.1910    0.8040 h1        1 SPQ      0.033700
     32 HO2         7.7290    1.5140   -0.9010 ho        1 SPQ      0.405000
     33 H61         5.6650   -2.9550    0.3150 hc        1 SPQ      0.036700
     34 H62         5.8090   -1.9460    1.7980 hc        1 SPQ      0.036700
     35 H2          9.5480   -1.2800    0.8570 ha        1 SPQ      0.110000
     36 H3          7.6610    0.3180    2.1870 h1        1 SPQ      0.045700
@<TRIPOS>BOND
     1    1    2 1   
     2    2    3 1   
     3    2    4 1   
     4    2    5 1   
     5    5    6 1   
     6    6    7 1   
     7    6   10 1   
     8    6   12 1   
     9    7    8 1   
    10    7    9 1   
    11   10   11 1   
    12   10   28 1   
    13   10   29 1   
    14   12   13 1   
    15   13   14 1   
    16   13   16 1   
    17   13   30 1   
    18   14   15 1   
    19   14   22 1   
    20   14   31 1   
    21   15   32 1   
    22   16   17 1   
    23   16   33 1   
    24   16   34 1   
    25   17   18 1   
    26   17   21 2   
    27   18   19 1   
    28   18   20 1   
    29   21   22 1   
    30   21   35 1   
    31   22   23 1   
    32   22   36 1   
    33   23   24 1   
    34   24   25 1   
    35   24   26 1   
    36   24   27 1   
@<TRIPOS>SUBSTRUCTURE
     1 SPQ         1 TEMP              0 ****  ****    0 ROOT
