@<TRIPOS>MOLECULE
SPQ
   36    36     1     0     0
SMALL
bcc


@<TRIPOS>ATOM
      1 O6P         0.0940   -1.8550   -0.4870 o         1 SPQ     -0.958167
      2 P2          0.4390   -0.6130    0.2990 p5        1 SPQ      1.402900
      3 O4P         0.2010   -0.7680    1.7840 o         1 SPQ     -0.958167
      4 O5P        -0.2260    0.6340   -0.2330 o         1 SPQ     -0.958167
      5 O10         2.1890   -0.4000    0.1580 os        1 SPQ     -0.602200
      6 C9          3.2480   -0.9240   -0.5200 c3        1 SPQ      0.394600
      7 C8          3.4000   -0.4400   -2.0080 c         1 SPQ      0.890600
      8 O2'         3.6290   -1.3210   -2.9110 o         1 SPQ     -0.895300
      9 O9          3.2880    0.7740   -2.3410 o         1 SPQ     -0.895300
     10 C10         3.2540   -2.4910   -0.5870 c3        1 SPQ      0.085900
     11 F           3.2300   -3.1350    0.6380 f         1 SPQ     -0.291300
     12 O3          4.3610   -0.4690    0.3240 os        1 SPQ     -0.452600
     13 C5          5.7030   -0.8110   -0.0460 c3        1 SPQ      0.161100
     14 C4          6.6120    0.4260    0.2450 c3        1 SPQ      0.135100
     15 O2          6.9450    0.9620   -1.0340 oh        1 SPQ     -0.633800
     16 C6          6.1600   -2.0470    0.7510 c3        1 SPQ     -0.043200
     17 C1          7.6360   -2.2520    0.7650 ce        1 SPQ     -0.184400
     18 C7          8.1730   -3.6610    0.7160 c         1 SPQ      0.917800
     19 O5          8.8660   -4.0720   -0.2750 o         1 SPQ     -0.915300
     20 O4          7.9670   -4.4650    1.6870 o         1 SPQ     -0.915300
     21 C2          8.4480   -1.1900    0.8890 c2        1 SPQ     -0.172200
     22 C3          7.9200    0.2040    1.0900 c3        1 SPQ      0.217300
     23 O1          8.8620    1.1710    0.7500 os        1 SPQ     -0.606200
     24 P1          9.7980    2.0150    1.9150 p5        1 SPQ      1.342900
     25 O3P         9.8230    3.4270    1.3650 o         1 SPQ     -0.957833
     26 O2P         9.1010    1.8780    3.2460 o         1 SPQ     -0.957833
     27 O1P        11.1690    1.3720    1.8720 o         1 SPQ     -0.957833
     28 H101        2.3490   -2.8060   -1.1740 h1        1 SPQ      0.039200
     29 H102        4.1800   -2.8150   -1.1360 h1        1 SPQ      0.039200
     30 H5          5.7510   -1.0310   -1.1490 h1        1 SPQ      0.060700
     31 H4          5.9900    1.1940    0.7850 h1        1 SPQ      0.033700
     32 HO2         7.7420    1.4940   -0.9150 ho        1 SPQ      0.405000
     33 H61         5.6540   -2.9550    0.3330 hc        1 SPQ      0.036700
     34 H62         5.7970   -1.9330    1.8080 hc        1 SPQ      0.036700
     35 H2          9.5420   -1.2910    0.8770 ha        1 SPQ      0.110000
     36 H3          7.6560    0.3270    2.1840 h1        1 SPQ      0.045700
@<TRIPOS>BOND
     1    1    2 1   
     2    2    3 1   
     3    2    4 1   
     4    2    5 1   
     5    5    6 1   
     6    6    7 1   
     7    6   10 1   
     8    6   12 1   
     9    7    8 1   
    10    7    9 1   
    11   10   11 1   
    12   10   28 1   
    13   10   29 1   
    14   12   13 1   
    15   13   14 1   
    16   13   16 1   
    17   13   30 1   
    18   14   15 1   
    19   14   22 1   
    20   14   31 1   
    21   15   32 1   
    22   16   17 1   
    23   16   33 1   
    24   16   34 1   
    25   17   18 1   
    26   17   21 2   
    27   18   19 1   
    28   18   20 1   
    29   21   22 1   
    30   21   35 1   
    31   22   23 1   
    32   22   36 1   
    33   23   24 1   
    34   24   25 1   
    35   24   26 1   
    36   24   27 1   
@<TRIPOS>SUBSTRUCTURE
     1 SPQ         1 TEMP              0 ****  ****    0 ROOT
