@<TRIPOS>MOLECULE
SPS
   43    43     1     0     0
SMALL
bcc


@<TRIPOS>ATOM
      1 C1         -1.4020    0.9790    0.7980 c         1 SPS      0.761700
      2 O1         -2.1440    1.3750   -0.1300 o         1 SPS     -0.711500
      3 N2         -0.5670    1.9160    1.4080 ns        1 SPS     -0.564500
      4 C3          0.2800    1.5900    2.4780 c         1 SPS      0.804500
      5 O3          1.0110    2.4300    3.0280 o         1 SPS     -0.574500
      6 N4          0.2810    0.2430    2.9290 ns        1 SPS     -0.448100
      7 C5         -0.5000   -0.7230    2.3450 cc        1 SPS      0.195400
      8 C7         -0.4220   -2.1190    2.8770 c3        1 SPS     -0.102900
      9 C6         -1.3460   -0.4070    1.2860 cd        1 SPS     -0.327200
     10 C8         -2.1210   -1.4340    0.6340 cf        1 SPS      0.042000
     11 C9         -3.2950   -1.3330   -0.0060 ce        1 SPS     -0.286200
     12 C10        -4.1330   -0.1360   -0.0960 c         1 SPS      0.616300
     13 O10        -4.7280    0.4670    0.7850 o         1 SPS     -0.453100
     14 N11        -4.3400    0.3520   -1.5220 ny        1 SPS     -0.671800
     15 C12        -5.7340    0.8400   -1.8110 c3        1 SPS      0.172500
     16 C13        -5.7400    2.3670   -2.0500 c3        1 SPS      0.110400
     17 O13        -4.8180    2.6260   -3.0940 oh        1 SPS     -0.622800
     18 C14        -6.3610    0.1310   -3.0030 c3        1 SPS     -0.146100
     19 S15        -6.5830   -1.6220   -2.9820 s4        1 SPS      0.325600
     20 O15        -5.3910   -2.1020   -2.2060 o         1 SPS     -0.558200
     21 C16        -7.9490   -1.8560   -1.9330 c3        1 SPS     -0.084000
     22 S17        -8.7320   -3.1870   -2.7380 ss        1 SPS     -0.178200
     23 C18        -8.4870   -4.5570   -1.6760 c3        1 SPS     -0.064000
     24 HN2        -0.5680    2.8660    1.0940 hn        1 SPS      0.370500
     25 HN4         0.8790    0.0270    3.7010 hn        1 SPS      0.372500
     26 H71         0.1660   -2.1920    3.8260 hc        1 SPS      0.085700
     27 H72         0.0650   -2.7770    2.1120 hc        1 SPS      0.085700
     28 H73        -1.4550   -2.5010    3.0780 hc        1 SPS      0.085700
     29 H81        -1.6590   -2.4460    0.6650 ha        1 SPS      0.151000
     30 H91        -3.7480   -2.2130   -0.5130 ha        1 SPS      0.208000
     31 HN11       -4.1070   -0.4270   -2.1560 hn        1 SPS      0.484800
     32 H121       -6.3600    0.6450   -0.8870 hx        1 SPS      0.109700
     33 H131       -6.7760    2.6810   -2.3450 h1        1 SPS      0.066200
     34 H132       -5.4330    2.9090   -1.1150 h1        1 SPS      0.066200
     35 HO13       -4.8430    3.5750   -3.2720 ho        1 SPS      0.442000
     36 H141       -5.7580    0.3670   -3.9230 h1        1 SPS      0.120700
     37 H142       -7.3650    0.6040   -3.1700 h1        1 SPS      0.120700
     38 H161       -7.6860   -2.0820   -0.8740 h2        1 SPS      0.129200
     39 H162       -8.6400   -0.9800   -1.9120 h2        1 SPS      0.129200
     40 H181       -7.4110   -4.7950   -1.5210 h1        1 SPS      0.083367
     41 H182       -8.9790   -5.4180   -2.1910 h1        1 SPS      0.083367
     42 H183       -8.9690   -4.4090   -0.6840 h1        1 SPS      0.083367
     43 H112       -3.6680    1.1210   -1.6860 hn        1 SPS      0.484800
@<TRIPOS>BOND
     1    1    2 2   
     2    1    3 1   
     3    1    9 1   
     4    3    4 1   
     5    3   24 1   
     6    4    5 2   
     7    4    6 1   
     8    6    7 1   
     9    6   25 1   
    10    7    8 1   
    11    7    9 2   
    12    8   26 1   
    13    8   27 1   
    14    8   28 1   
    15    9   10 1   
    16   10   11 2   
    17   10   29 1   
    18   11   12 1   
    19   11   30 1   
    20   12   13 2   
    21   12   14 1   
    22   14   15 1   
    23   14   31 1   
    24   14   43 1   
    25   15   16 1   
    26   15   18 1   
    27   15   32 1   
    28   16   17 1   
    29   16   33 1   
    30   16   34 1   
    31   17   35 1   
    32   18   19 1   
    33   18   36 1   
    34   18   37 1   
    35   19   20 2   
    36   19   21 1   
    37   21   22 1   
    38   21   38 1   
    39   21   39 1   
    40   22   23 1   
    41   23   40 1   
    42   23   41 1   
    43   23   42 1   
@<TRIPOS>SUBSTRUCTURE
     1 SPS         1 TEMP              0 ****  ****    0 ROOT
