@<TRIPOS>MOLECULE
SPS
   42    42     1     0     0
SMALL
bcc


@<TRIPOS>ATOM
      1 C1          3.3660    0.9950    1.0320 c         1 SPS      0.728700
      2 O1          2.4510    1.0230    1.8730 o         1 SPS     -0.613500
      3 N2          4.5330    1.7220    1.3360 n         1 SPS     -0.582500
      4 C3          5.6410    1.7680    0.4880 c         1 SPS      0.805500
      5 O3          6.6730    2.4130    0.7670 o         1 SPS     -0.629500
      6 N4          5.5710    1.0490   -0.7270 n         1 SPS     -0.465100
      7 C5          4.4480    0.3250   -1.0850 cc        1 SPS      0.136400
      8 C7          4.4770   -0.3980   -2.3940 c3        1 SPS     -0.087900
      9 C6          3.3420    0.2730   -0.2550 cd        1 SPS     -0.251200
     10 C8          2.1640   -0.4680   -0.6460 cf        1 SPS     -0.033000
     11 C9          1.1480   -0.8280    0.1540 ce        1 SPS     -0.227200
     12 C10         0.0110   -1.6010   -0.4070 c         1 SPS      0.653300
     13 O10         0.0630   -2.1390   -1.5350 o         1 SPS     -0.623100
     14 N11        -1.1490   -1.6560    0.3550 n         1 SPS     -0.555900
     15 C12        -2.2290   -2.5590    0.0250 c3        1 SPS      0.123700
     16 C13        -2.2550   -3.8180    0.9240 c3        1 SPS      0.105400
     17 O13        -2.3710   -3.3930    2.2720 oh        1 SPS     -0.609800
     18 C14        -3.5940   -1.8770    0.1100 c3        1 SPS     -0.117100
     19 S15        -3.7170   -0.4940   -0.9720 s4        1 SPS      0.302600
     20 O15        -5.1350   -0.5410   -1.4350 o         1 SPS     -0.517200
     21 C16        -3.6650    0.8360    0.1670 c3        1 SPS     -0.059000
     22 S17        -3.3660    2.2930   -0.7450 ss        1 SPS     -0.226200
     23 C18        -4.9820    2.8230   -1.1780 c3        1 SPS     -0.061000
     24 HN2         4.5860    2.2320    2.1920 hn        1 SPS      0.358500
     25 HN4         6.3680    1.0840   -1.3240 hn        1 SPS      0.355500
     26 H71         5.4710   -0.3390   -2.9030 hc        1 SPS      0.074367
     27 H72         4.2330   -1.4780   -2.2290 hc        1 SPS      0.074367
     28 H73         3.7070    0.0430   -3.0770 hc        1 SPS      0.074367
     29 H81         2.1170   -0.7620   -1.7160 ha        1 SPS      0.145000
     30 H91         1.1140   -0.5700    1.2260 ha        1 SPS      0.170000
     31 HN11       -1.0940   -1.3930    1.3140 hn        1 SPS      0.318500
     32 H121       -2.0680   -2.9250   -1.0370 h1        1 SPS      0.092700
     33 H131       -3.1350   -4.4530    0.6390 h1        1 SPS      0.035700
     34 H132       -1.3100   -4.4110    0.7910 h1        1 SPS      0.035700
     35 HO13       -2.4210   -4.1910    2.8110 ho        1 SPS      0.408000
     36 H141       -4.3760   -2.6270   -0.1770 h1        1 SPS      0.100700
     37 H142       -3.8020   -1.6050    1.1750 h1        1 SPS      0.100700
     38 H161       -4.5880    0.9170    0.7850 h2        1 SPS      0.117200
     39 H162       -2.8060    0.7060    0.8680 h2        1 SPS      0.117200
     40 H181       -4.8490    3.6300   -1.9350 h1        1 SPS      0.075367
     41 H182       -5.5840    1.9940   -1.6210 h1        1 SPS      0.075367
     42 H183       -5.5300    3.2320   -0.3010 h1        1 SPS      0.075367
@<TRIPOS>BOND
     1    1    2 2   
     2    1    3 1   
     3    1    9 1   
     4    3    4 1   
     5    3   24 1   
     6    4    5 2   
     7    4    6 1   
     8    6    7 1   
     9    6   25 1   
    10    7    8 1   
    11    7    9 2   
    12    8   26 1   
    13    8   27 1   
    14    8   28 1   
    15    9   10 1   
    16   10   11 2   
    17   10   29 1   
    18   11   12 1   
    19   11   30 1   
    20   12   13 2   
    21   12   14 1   
    22   14   15 1   
    23   14   31 1   
    24   15   16 1   
    25   15   18 1   
    26   15   32 1   
    27   16   17 1   
    28   16   33 1   
    29   16   34 1   
    30   17   35 1   
    31   18   19 1   
    32   18   36 1   
    33   18   37 1   
    34   19   20 2   
    35   19   21 1   
    36   21   22 1   
    37   21   38 1   
    38   21   39 1   
    39   22   23 1   
    40   23   40 1   
    41   23   41 1   
    42   23   42 1   
@<TRIPOS>SUBSTRUCTURE
     1 SPS         1 TEMP              0 ****  ****    0 ROOT
