@<TRIPOS>MOLECULE
SPS
   43    43     1     0     0
SMALL
bcc


@<TRIPOS>ATOM
      1 C1         -1.4210    1.0280    0.7770 c         1 SPS      0.761700
      2 O1         -2.1660    1.4010   -0.1580 o         1 SPS     -0.711500
      3 N2         -0.5970    1.9840    1.3730 n         1 SPS     -0.564500
      4 C3          0.2530    1.6850    2.4490 c         1 SPS      0.804500
      5 O3          0.9730    2.5420    2.9860 o         1 SPS     -0.574500
      6 N4          0.2690    0.3450    2.9200 n         1 SPS     -0.448100
      7 C5         -0.4990   -0.6390    2.3490 cc        1 SPS      0.195400
      8 C7         -0.4050   -2.0260    2.9030 c3        1 SPS     -0.102900
      9 C6         -1.3470   -0.3490    1.2850 cd        1 SPS     -0.327200
     10 C8         -2.1100   -1.3960    0.6490 cf        1 SPS      0.042000
     11 C9         -3.2840   -1.3190    0.0070 ce        1 SPS     -0.286200
     12 C10        -4.1360   -0.1330   -0.1020 c         1 SPS      0.616300
     13 O10        -4.7400    0.4760    0.7690 o         1 SPS     -0.453100
     14 N11        -4.3480    0.3310   -1.5350 n4        1 SPS     -0.671800
     15 C12        -5.7470    0.7980   -1.8330 c3        1 SPS      0.172500
     16 C13        -5.7710    2.3210   -2.0960 c3        1 SPS      0.110400
     17 O13        -4.8510    2.5730   -3.1440 oh        1 SPS     -0.622800
     18 C14        -6.3660    0.0630   -3.0130 c3        1 SPS     -0.146100
     19 S15        -6.5680   -1.6910   -2.9630 s4        1 SPS      0.325600
     20 O15        -5.3710   -2.1460   -2.1810 o         1 SPS     -0.558200
     21 C16        -7.9310   -1.9240   -1.9100 c3        1 SPS     -0.084000
     22 S17        -8.6990   -3.2770   -2.6930 ss        1 SPS     -0.178200
     23 C18        -8.4390   -4.6270   -1.6100 c3        1 SPS     -0.064000
     24 HN2        -0.6090    2.9290    1.0460 hn        1 SPS      0.370500
     25 HN4         0.8700    0.1480    3.6960 hn        1 SPS      0.372500
     26 H71        -1.4330   -2.4170    3.1090 hc        1 SPS      0.085700
     27 H72         0.1830   -2.0780    3.8530 hc        1 SPS      0.085700
     28 H73         0.0910   -2.6900    2.1480 hc        1 SPS      0.085700
     29 H81        -1.6360   -2.4010    0.6950 ha        1 SPS      0.151000
     30 H91        -3.7270   -2.2120   -0.4870 ha        1 SPS      0.208000
     31 HN11       -3.6860    1.1050   -1.7100 hn        1 SPS      0.484800
     32 H121       -6.3710    0.6110   -0.9060 hx        1 SPS      0.109700
     33 H131       -6.8100    2.6190   -2.3970 h1        1 SPS      0.066200
     34 H132       -5.4700    2.8820   -1.1700 h1        1 SPS      0.066200
     35 HO13       -4.8870    3.5190   -3.3370 ho        1 SPS      0.442000
     36 H141       -7.3760    0.5220   -3.1880 h1        1 SPS      0.120700
     37 H142       -5.7660    0.2920   -3.9370 h1        1 SPS      0.120700
     38 H161       -7.6660   -2.1300   -0.8480 h2        1 SPS      0.129200
     39 H162       -8.6320   -1.0550   -1.9030 h2        1 SPS      0.129200
     40 H181       -8.9210   -5.5020   -2.1110 h1        1 SPS      0.083367
     41 H182       -8.9230   -4.4680   -0.6210 h1        1 SPS      0.083367
     42 H183       -7.3600   -4.8500   -1.4520 h1        1 SPS      0.083367
     43 H112       -4.1060   -0.4550   -2.1580 hn        1 SPS      0.484800
@<TRIPOS>BOND
     1    1    2 2   
     2    1    3 1   
     3    1    9 1   
     4    3    4 1   
     5    3   24 1   
     6    4    5 2   
     7    4    6 1   
     8    6    7 1   
     9    6   25 1   
    10    7    8 1   
    11    7    9 2   
    12    8   26 1   
    13    8   27 1   
    14    8   28 1   
    15    9   10 1   
    16   10   11 2   
    17   10   29 1   
    18   11   12 1   
    19   11   30 1   
    20   12   13 2   
    21   12   14 1   
    22   14   15 1   
    23   14   31 1   
    24   14   43 1   
    25   15   16 1   
    26   15   18 1   
    27   15   32 1   
    28   16   17 1   
    29   16   33 1   
    30   16   34 1   
    31   17   35 1   
    32   18   19 1   
    33   18   36 1   
    34   18   37 1   
    35   19   20 2   
    36   19   21 1   
    37   21   22 1   
    38   21   38 1   
    39   21   39 1   
    40   22   23 1   
    41   23   40 1   
    42   23   41 1   
    43   23   42 1   
@<TRIPOS>SUBSTRUCTURE
     1 SPS         1 TEMP              0 ****  ****    0 ROOT
