@<TRIPOS>MOLECULE
SPT
   34    34     1     0     0
SMALL
bcc


@<TRIPOS>ATOM
      1 S5'        -2.4120   -1.5490    2.9880 s         1 SPT     -0.759000
      2 N1          0.9820   -1.9790    0.9860 n         1 SPT     -0.260000
      3 C6         -0.1410   -2.7750    1.1870 c2        1 SPT      0.015000
      4 C2          2.0500   -2.4380    0.1860 c2        1 SPT      0.375000
      5 O2          3.1000   -1.7620    0.0090 o         1 SPT     -0.455000
      6 N3          1.9320   -3.6870   -0.4350 n         1 SPT     -0.374000
      7 C4          0.8000   -4.5200   -0.2710 c2        1 SPT      0.351000
      8 O4          0.8310   -5.6150   -0.8710 o         1 SPT     -0.407000
      9 C5         -0.2640   -4.0000    0.5850 c2        1 SPT     -0.260000
     10 C5M        -1.4690   -4.8360    0.7700 c3        1 SPT     -0.174000
     11 C2'         0.9000    0.5550    0.7980 c3        1 SPT     -0.227000
     12 C5'        -1.9130   -0.0350    2.2470 c3        1 SPT     -0.150000
     13 C4'        -0.5620    0.4540    2.7260 c3        1 SPT      0.004000
     14 O4'         0.4390   -0.5770    2.8610 os        1 SPT     -0.246000
     15 C1'         1.2010   -0.6990    1.6610 c3        1 SPT      0.164000
     16 C3'         0.0380    1.4470    1.6990 c3        1 SPT     -0.013000
     17 O3'         0.8120    2.4610    2.3190 oh        1 SPT     -0.342000
     18 OP3        -4.3620   -3.3400    1.4460 o         1 SPT     -1.179333
     19 P          -4.7340   -2.1310    2.2330 p3        1 SPT      2.483000
     20 OP1        -5.4410   -2.3440    3.5220 o         1 SPT     -1.179333
     21 OP2        -5.0250   -0.8770    1.4840 o         1 SPT     -1.179333
     22 H6         -0.9900   -2.3690    1.9050 h4        1 SPT      0.315000
     23 H3          2.6900   -3.9830   -1.0050 hn        1 SPT      0.232000
     24 H71        -1.6800   -5.4160   -0.1620 hc        1 SPT      0.105667
     25 H72        -2.3750   -4.2110    1.0200 hc        1 SPT      0.105667
     26 H73        -1.3030   -5.5650    1.6030 hc        1 SPT      0.105667
     27 H2'         0.3370    0.2970   -0.1310 hc        1 SPT      0.107000
     28 H2''        1.8550    1.0560    0.5130 hc        1 SPT      0.107000
     29 H5'        -1.8880   -0.1800    1.1370 h1        1 SPT      0.090500
     30 H5''       -2.6730    0.7540    2.4690 h1        1 SPT      0.090500
     31 H4'        -0.6320    0.8890    3.7580 h1        1 SPT      0.119000
     32 H1'         2.2850   -0.6920    1.9960 h2        1 SPT      0.107000
     33 H3'        -0.7550    1.9990    1.1320 h1        1 SPT      0.133000
     34 HO3'        1.4040    2.0160    2.9370 ho        1 SPT      0.194000
@<TRIPOS>BOND
     1    1   12 1   
     2    2    3 1   
     3    2    4 1   
     4    2   15 1   
     5    3    9 1   
     6    3   22 1   
     7    4    5 1   
     8    4    6 1   
     9    6    7 1   
    10    6   23 1   
    11    7    8 1   
    12    7    9 1   
    13    9   10 1   
    14   10   24 1   
    15   10   25 1   
    16   10   26 1   
    17   11   15 1   
    18   11   16 1   
    19   11   27 1   
    20   11   28 1   
    21   12   13 1   
    22   12   29 1   
    23   12   30 1   
    24   13   14 1   
    25   13   16 1   
    26   13   31 1   
    27   14   15 1   
    28   15   32 1   
    29   16   17 1   
    30   16   33 1   
    31   17   34 1   
    32   18   19 1   
    33   19   20 1   
    34   19   21 1   
@<TRIPOS>SUBSTRUCTURE
     1 SPT         1 TEMP              0 ****  ****    0 ROOT
