@<TRIPOS>MOLECULE
SPU
   80    78     1     0     0
SMALL
bcc


@<TRIPOS>ATOM
      1 C11        -5.5130    0.4830   -7.9070 c3        1 SPU     -0.158000
      2 C14        -4.7520   -0.0850   -6.7120 c3        1 SPU     -0.158000
      3 C17        -5.5410    0.2170   -5.3990 c3        1 SPU     -0.158000
      4 C20        -5.0120   -0.6740   -4.2720 c3        1 SPU     -0.158000
      5 C23        -5.4950   -0.1290   -2.9140 c3        1 SPU     -0.158000
      6 C26        -5.1060   -1.1200   -1.7930 c3        1 SPU     -0.158000
      7 C29        -5.1160   -0.3740   -0.4060 c3        1 SPU     -0.158000
      8 C32        -4.4700   -1.2720    0.6690 c3        1 SPU     -0.158000
      9 C35        -4.1610   -0.4190    1.9450 c3        1 SPU     -0.154000
     10 C38        -2.9730   -1.0340    2.6960 c3        1 SPU     -0.141000
     11 C41        -2.6540   -0.1950    3.9210 c2        1 SPU     -0.138000
     12 C43        -1.4320   -0.3770    4.6020 c1        1 SPU     -0.173000
     13 C45        -0.4150   -1.4340    4.0990 c2        1 SPU      0.064000
     14 O47        -0.1530   -1.2210    2.7500 oh        1 SPU     -0.326000
     15 C49         0.8850   -1.3160    4.8960 c3        1 SPU     -0.092000
     16 N51         1.0960   -2.5120    5.6400 n3        1 SPU     -0.336000
     17 C54         2.0450   -1.1020    3.9460 c3        1 SPU     -0.010000
     18 O57         3.2080   -0.6030    4.6910 os        1 SPU     -0.738000
     19 P58         4.4220    0.0540    3.8620 p5        1 SPU      1.902000
     20 O59         4.0230    1.4170    3.3920 o         1 SPU     -0.822000
     21 O60         4.7400   -0.8050    2.6850 o         1 SPU     -0.822000
     22 O61         5.7150    0.1710    4.8010 os        1 SPU     -0.727000
     23 C62         6.8770    0.7960    4.2730 c3        1 SPU      0.066000
     24 C65         7.9790    0.7700    5.3090 c3        1 SPU     -0.155000
     25 N68         9.1700    1.4280    4.7740 n4        1 SPU      0.040000
     26 C70         8.8600    2.8210    4.4490 c3        1 SPU     -0.185667
     27 C74         9.6030    0.7450    3.5800 c3        1 SPU     -0.185667
     28 C78        10.2270    1.3870    5.7630 c3        1 SPU     -0.185667
     29 C21        -4.6020    0.4090   -9.1950 c3        1 SPU     -0.158000
     30 C22        -5.4040    0.8420  -10.4080 c3        1 SPU     -0.159000
     31 C231       -4.5090    0.8200  -11.6460 c3        1 SPU     -0.210000
     32 H11        -6.3250   -0.0390   -8.0530 hc        1 SPU      0.078500
     33 H11A       -5.7530    1.4240   -7.7280 hc        1 SPU      0.078500
     34 H14        -4.6550   -1.0470   -6.8170 hc        1 SPU      0.078500
     35 H14A       -3.8660    0.3290   -6.6630 hc        1 SPU      0.078500
     36 H17        -6.4940    0.0340   -5.5400 hc        1 SPU      0.078500
     37 H17A       -5.4200    1.1620   -5.1540 hc        1 SPU      0.078500
     38 H20        -4.0360   -0.6780   -4.2920 hc        1 SPU      0.078500
     39 H20A       -5.3450   -1.5850   -4.3940 hc        1 SPU      0.078500
     40 H23        -6.4720   -0.0240   -2.9330 hc        1 SPU      0.078500
     41 H23A       -5.0780    0.7350   -2.7440 hc        1 SPU      0.078500
     42 H26        -4.2150   -1.4720   -1.9650 hc        1 SPU      0.079000
     43 H26A       -5.7520   -1.8590   -1.7710 hc        1 SPU      0.079000
     44 H29        -6.0460   -0.1700   -0.1490 hc        1 SPU      0.078500
     45 H29A       -4.6110    0.4560   -0.4810 hc        1 SPU      0.078500
     46 H32        -3.6430   -1.6480    0.3220 hc        1 SPU      0.079000
     47 H32A       -5.0860   -1.9970    0.9020 hc        1 SPU      0.079000
     48 H35        -4.9540   -0.4080    2.5360 hc        1 SPU      0.079000
     49 H35A       -3.9410    0.4940    1.6800 hc        1 SPU      0.079000
     50 H38        -2.2010   -1.0580    2.1130 hc        1 SPU      0.097000
     51 H38A       -3.1990   -1.9410    2.9740 hc        1 SPU      0.097000
     52 H41        -3.3050    0.4820    4.2430 ha        1 SPU      0.117000
     53 H43        -1.2240    0.1680    5.3980 ha        1 SPU      0.128000
     54 H45        -0.7890   -2.3270    4.2200 h4        1 SPU      0.086000
     55 HO47        0.0730   -1.9920    2.3660 ho        1 SPU      0.202000
     56 H49         0.8240   -0.5670    5.5020 h1        1 SPU      0.106000
     57 HN51        1.8880   -2.4490    6.1090 hn        1 SPU      0.145000
     58 HN5A        0.4080   -2.6330    6.2230 hn        1 SPU      0.145000
     59 H54         2.2740   -1.9530    3.5140 h1        1 SPU      0.097000
     60 H54A        1.7900   -0.4480    3.2630 h1        1 SPU      0.097000
     61 H62         6.6690    1.7270    4.0380 h1        1 SPU      0.080000
     62 H62A        7.1730    0.3110    3.4670 h1        1 SPU      0.080000
     63 H65         8.1950   -0.1620    5.5350 hx        1 SPU      0.129000
     64 H65A        7.6810    1.2420    6.1170 hx        1 SPU      0.129000
     65 H70         8.2610    3.1990    5.1440 hx        1 SPU      0.136667
     66 H70A        8.4100    2.8620    3.5660 hx        1 SPU      0.136667
     67 H70B        9.6880    3.3400    4.4160 hx        1 SPU      0.136667
     68 H74         9.0450    1.0200    2.8250 hx        1 SPU      0.136667
     69 H74A       10.5370    0.9720    3.3960 hx        1 SPU      0.136667
     70 H74B        9.5210   -0.2370    3.7120 hx        1 SPU      0.136667
     71 H78        10.5030    0.4470    5.9120 hx        1 SPU      0.136667
     72 H78A        9.9000    1.7710    6.6080 hx        1 SPU      0.136667
     73 H78B       10.9930    1.9060    5.4430 hx        1 SPU      0.136667
     74 H44        -3.8230    1.0080   -9.0840 hc        1 SPU      0.078500
     75 H451       -4.2900   -0.5100   -9.3230 hc        1 SPU      0.078500
     76 H46        -5.7420    1.7420  -10.2690 hc        1 SPU      0.077500
     77 H47        -6.1460    0.2350  -10.5360 hc        1 SPU      0.077500
     78 H48        -3.7480    1.4180  -11.5090 hc        1 SPU      0.071333
     79 H491       -4.1850   -0.0900  -11.7980 hc        1 SPU      0.071333
     80 H50        -5.0290    1.1220  -12.4350 hc        1 SPU      0.071333
@<TRIPOS>BOND
     1    1    2 1   
     2    1   29 1   
     3    1   32 1   
     4    1   33 1   
     5    2    3 1   
     6    2   34 1   
     7    2   35 1   
     8    3    4 1   
     9    3   36 1   
    10    3   37 1   
    11    4    5 1   
    12    4   38 1   
    13    4   39 1   
    14    5    6 1   
    15    5   40 1   
    16    5   41 1   
    17    6    7 1   
    18    6   42 1   
    19    6   43 1   
    20    7    8 1   
    21    7   44 1   
    22    7   45 1   
    23    8    9 1   
    24    8   46 1   
    25    8   47 1   
    26    9   10 1   
    27    9   48 1   
    28    9   49 1   
    29   10   11 1   
    30   10   50 1   
    31   10   51 1   
    32   11   12 1   
    33   11   52 1   
    34   12   53 1   
    35   13   14 1   
    36   13   15 1   
    37   13   54 1   
    38   14   55 1   
    39   15   16 1   
    40   15   17 1   
    41   15   56 1   
    42   16   57 1   
    43   16   58 1   
    44   17   18 1   
    45   17   59 1   
    46   17   60 1   
    47   18   19 1   
    48   19   20 1   
    49   19   21 1   
    50   19   22 1   
    51   22   23 1   
    52   23   24 1   
    53   23   61 1   
    54   23   62 1   
    55   24   25 1   
    56   24   63 1   
    57   24   64 1   
    58   25   26 1   
    59   25   27 1   
    60   25   28 1   
    61   26   65 1   
    62   26   66 1   
    63   26   67 1   
    64   27   68 1   
    65   27   69 1   
    66   27   70 1   
    67   28   71 1   
    68   28   72 1   
    69   28   73 1   
    70   29   30 1   
    71   29   74 1   
    72   29   75 1   
    73   30   31 1   
    74   30   76 1   
    75   30   77 1   
    76   31   78 1   
    77   31   79 1   
    78   31   80 1   
@<TRIPOS>SUBSTRUCTURE
     1 SPU         1 TEMP              0 ****  ****    0 ROOT
