@<TRIPOS>MOLECULE
SPU
   80    79     1     0     0
SMALL
bcc


@<TRIPOS>ATOM
      1 C11        12.2180   -1.4640    0.0810 c3        1 SPU     -0.079400
      2 C14        11.2000   -0.3790    0.3570 c3        1 SPU     -0.079400
      3 C17         9.8120   -0.8050   -0.0730 c3        1 SPU     -0.078400
      4 C20         8.7940    0.2800    0.2030 c3        1 SPU     -0.079400
      5 C23         7.4070   -0.1450   -0.2280 c3        1 SPU     -0.078400
      6 C26         6.3880    0.9400    0.0490 c3        1 SPU     -0.079400
      7 C29         5.0010    0.5140   -0.3820 c3        1 SPU     -0.078400
      8 C32         3.9820    1.6000   -0.1060 c3        1 SPU     -0.079400
      9 C35         2.5950    1.1740   -0.5380 c3        1 SPU     -0.076400
     10 C38         1.5790    2.2640   -0.2620 c3        1 SPU     -0.045200
     11 C41         0.2200    1.8650   -0.7010 c2        1 SPU     -0.181200
     12 C43        -0.8780    2.0610    0.0340 c2        1 SPU     -0.186200
     13 C45        -2.2560    1.7010   -0.4160 c3        1 SPU      0.173300
     14 O47        -2.2480    0.9230   -1.6070 oh        1 SPU     -0.606800
     15 C49        -3.0480    0.9510    0.6960 c3        1 SPU      0.121500
     16 N51        -3.0900    1.7210    1.9230 n3        1 SPU     -0.905800
     17 C54        -4.4320    0.5780    0.1060 c3        1 SPU      0.148400
     18 O57        -5.0430   -0.4440    0.8470 os        1 SPU     -0.584200
     19 P58        -6.3220   -0.0130    1.7650 p5        1 SPU      1.441800
     20 O59        -6.9210   -1.2570    2.3040 o         1 SPU     -0.821500
     21 O60        -6.0020    1.2480    2.4390 o         1 SPU     -0.821500
     22 O61        -7.3550    0.2730    0.4760 os        1 SPU     -0.575200
     23 C62        -8.6880   -0.0290    0.6610 c3        1 SPU      0.199400
     24 C65        -9.1700   -1.0580   -0.3810 c3        1 SPU      0.090800
     25 N68        -8.8210   -2.5050   -0.1440 n4        1 SPU     -0.581800
     26 C70        -9.2250   -2.9430    1.2230 c3        1 SPU      0.079100
     27 C74        -9.5670   -3.3200   -1.1490 c3        1 SPU      0.079100
     28 C78        -7.3590   -2.7400   -0.3370 c3        1 SPU      0.079100
     29 C21        13.6050   -1.0380    0.5110 c3        1 SPU     -0.079400
     30 C22        14.6260   -2.1220    0.2350 c3        1 SPU     -0.080400
     31 C231       16.0080   -1.7020    0.6620 c3        1 SPU     -0.092100
     32 H11        11.9270   -2.4010    0.6250 hc        1 SPU      0.038700
     33 H11A       12.2220   -1.7060   -1.0150 hc        1 SPU      0.038700
     34 H14        11.1960   -0.1370    1.4530 hc        1 SPU      0.039700
     35 H14A       11.4910    0.5580   -0.1870 hc        1 SPU      0.039700
     36 H17         9.8160   -1.0470   -1.1690 hc        1 SPU      0.039200
     37 H17A        9.5210   -1.7420    0.4710 hc        1 SPU      0.039200
     38 H20         8.7900    0.5220    1.2990 hc        1 SPU      0.039700
     39 H20A        9.0850    1.2170   -0.3410 hc        1 SPU      0.039700
     40 H23         7.4110   -0.3870   -1.3230 hc        1 SPU      0.039200
     41 H23A        7.1150   -1.0820    0.3160 hc        1 SPU      0.039200
     42 H26         6.3840    1.1810    1.1440 hc        1 SPU      0.039200
     43 H26A        6.6800    1.8770   -0.4950 hc        1 SPU      0.039200
     44 H29         5.0050    0.2720   -1.4780 hc        1 SPU      0.039200
     45 H29A        4.7090   -0.4220    0.1620 hc        1 SPU      0.039200
     46 H32         3.9780    1.8410    0.9890 hc        1 SPU      0.039700
     47 H32A        4.2750    2.5370   -0.6500 hc        1 SPU      0.039700
     48 H35         2.6000    0.9310   -1.6330 hc        1 SPU      0.040200
     49 H35A        2.3010    0.2390    0.0080 hc        1 SPU      0.040200
     50 H38         1.5860    2.5130    0.8330 hc        1 SPU      0.046200
     51 H38A        1.8760    3.1980   -0.8140 hc        1 SPU      0.046200
     52 H41         0.1630    1.4060   -1.7020 ha        1 SPU      0.122000
     53 H43        -0.8280    2.5300    1.0310 ha        1 SPU      0.151000
     54 H45        -2.8110    2.6380   -0.7120 h1        1 SPU      0.081700
     55 HO47       -1.7860    0.1000   -1.4060 ho        1 SPU      0.397000
     56 H49        -2.5020   -0.0150    0.9080 h1        1 SPU      0.057700
     57 HN51       -3.8050    2.4250    1.8760 hn        1 SPU      0.366800
     58 HN5A       -3.2980    1.1220    2.6980 hn        1 SPU      0.366800
     59 H54        -5.1020    1.4810    0.0740 h1        1 SPU      0.044200
     60 H54A       -4.2860    0.1840   -0.9400 h1        1 SPU      0.044200
     61 H62        -8.8930   -0.3870    1.7080 h1        1 SPU      0.055700
     62 H62A       -9.3020    0.8980    0.4500 h1        1 SPU      0.055700
     63 H65       -10.2930   -1.0010   -0.4300 hx        1 SPU      0.081200
     64 H65A       -8.7290   -0.7730   -1.3770 hx        1 SPU      0.081200
     65 H70       -10.2680   -2.5930    1.4270 hx        1 SPU      0.100144
     66 H70A       -9.1780   -4.0620    1.2750 hx        1 SPU      0.100144
     67 H70B       -8.5120   -2.5120    1.9930 hx        1 SPU      0.100144
     68 H74        -9.3150   -2.9620   -2.1810 hx        1 SPU      0.100144
     69 H74A       -9.2740   -4.3980   -1.0470 hx        1 SPU      0.100144
     70 H74B      -10.6690   -3.2160   -0.9730 hx        1 SPU      0.100144
     71 H78        -6.7840   -2.1360    0.4330 hx        1 SPU      0.100144
     72 H78A       -7.1420   -3.8290   -0.1920 hx        1 SPU      0.100144
     73 H78B       -7.0640   -2.4150   -1.3670 hx        1 SPU      0.100144
     74 H44        13.8970   -0.1010   -0.0330 hc        1 SPU      0.039700
     75 H451       13.6020   -0.7960    1.6070 hc        1 SPU      0.039700
     76 H46        14.3310   -3.0580    0.7790 hc        1 SPU      0.037700
     77 H47        14.6260   -2.3640   -0.8610 hc        1 SPU      0.037700
     78 H48        16.3290   -0.7840    0.1120 hc        1 SPU      0.032367
     79 H491       16.0330   -1.4810    1.7560 hc        1 SPU      0.032367
     80 H50        16.7440   -2.5150    0.4500 hc        1 SPU      0.032367
@<TRIPOS>BOND
     1    1    2 1   
     2    1   29 1   
     3    1   32 1   
     4    1   33 1   
     5    2    3 1   
     6    2   34 1   
     7    2   35 1   
     8    3    4 1   
     9    3   36 1   
    10    3   37 1   
    11    4    5 1   
    12    4   38 1   
    13    4   39 1   
    14    5    6 1   
    15    5   40 1   
    16    5   41 1   
    17    6    7 1   
    18    6   42 1   
    19    6   43 1   
    20    7    8 1   
    21    7   44 1   
    22    7   45 1   
    23    8    9 1   
    24    8   46 1   
    25    8   47 1   
    26    9   10 1   
    27    9   48 1   
    28    9   49 1   
    29   10   11 1   
    30   10   50 1   
    31   10   51 1   
    32   11   12 2   
    33   11   52 1   
    34   12   13 1   
    35   12   53 1   
    36   13   14 1   
    37   13   15 1   
    38   13   54 1   
    39   14   55 1   
    40   15   16 1   
    41   15   17 1   
    42   15   56 1   
    43   16   57 1   
    44   16   58 1   
    45   17   18 1   
    46   17   59 1   
    47   17   60 1   
    48   18   19 1   
    49   19   20 1   
    50   19   21 1   
    51   19   22 1   
    52   22   23 1   
    53   23   24 1   
    54   23   61 1   
    55   23   62 1   
    56   24   25 1   
    57   24   63 1   
    58   24   64 1   
    59   25   26 1   
    60   25   27 1   
    61   25   28 1   
    62   26   65 1   
    63   26   66 1   
    64   26   67 1   
    65   27   68 1   
    66   27   69 1   
    67   27   70 1   
    68   28   71 1   
    69   28   72 1   
    70   28   73 1   
    71   29   30 1   
    72   29   74 1   
    73   29   75 1   
    74   30   31 1   
    75   30   76 1   
    76   30   77 1   
    77   31   78 1   
    78   31   79 1   
    79   31   80 1   
@<TRIPOS>SUBSTRUCTURE
     1 SPU         1 TEMP              0 ****  ****    0 ROOT
