@<TRIPOS>MOLECULE
SPV
   12    11     1     0     0
SMALL
bcc


@<TRIPOS>ATOM
      1 C1          0.0690   -0.0910   -0.0300 c         1 SPV      0.840600
      2 O1          0.7190   -1.1180    0.3210 o         1 SPV     -0.850300
      3 O2'         0.1640    1.0280    0.5540 o         1 SPV     -0.850300
      4 C2         -0.8720   -0.2030   -1.2370 c         1 SPV      0.535100
      5 C3         -0.2240    0.1070   -2.5460 c3        1 SPV     -0.394600
      6 O2         -2.0610   -0.5240   -1.1130 o         1 SPV     -0.597100
      7 S          -1.0550    0.0610   -4.1050 s6        1 SPV      1.418800
      8 O1S        -1.5000   -1.2650   -4.3430 o         1 SPV     -0.763533
      9 O2S        -0.0130    0.4300   -5.0190 o         1 SPV     -0.763533
     10 O3S        -2.0930    1.0290   -4.0940 o         1 SPV     -0.763533
     11 H31         0.2060    1.1370   -2.4300 h1        1 SPV      0.093700
     12 H32         0.6530   -0.5900   -2.6180 h1        1 SPV      0.093700
@<TRIPOS>BOND
     1    1    2 1   
     2    1    3 1   
     3    1    4 1   
     4    4    5 1   
     5    4    6 2   
     6    5    7 1   
     7    5   11 1   
     8    5   12 1   
     9    7    8 1   
    10    7    9 1   
    11    7   10 1   
@<TRIPOS>SUBSTRUCTURE
     1 SPV         1 TEMP              0 ****  ****    0 ROOT
