@<TRIPOS>MOLECULE
SPV
   12    11     1     0     0
SMALL
bcc


@<TRIPOS>ATOM
      1 C1          0.3140    0.0910    2.4770 c         1 SPV      0.840600
      2 O1          0.8830    1.1120    2.9630 o         1 SPV     -0.850300
      3 O2'         0.2640   -1.0260    3.0680 o         1 SPV     -0.850300
      4 C2         -0.3350    0.2110    1.0910 c         1 SPV      0.535100
      5 C3          0.5840   -0.1110   -0.0420 c3        1 SPV     -0.394600
      6 O2         -1.5170    0.5450    0.9480 o         1 SPV     -0.597100
      7 S           0.1190   -0.0610   -1.7460 s6        1 SPV      1.418800
      8 O1S        -0.9070   -1.0160   -1.9650 o         1 SPV     -0.763533
      9 O2S         1.3330   -0.4450   -2.4060 o         1 SPV     -0.763533
     10 O3S        -0.2460    1.2700   -2.0780 o         1 SPV     -0.763533
     11 H31         1.4630    0.5760    0.0820 h1        1 SPV      0.093700
     12 H32         0.9650   -1.1460    0.1680 h1        1 SPV      0.093700
@<TRIPOS>BOND
     1    1    2 1   
     2    1    3 1   
     3    1    4 1   
     4    4    5 1   
     5    4    6 2   
     6    5    7 1   
     7    5   11 1   
     8    5   12 1   
     9    7    8 1   
    10    7    9 1   
    11    7   10 1   
@<TRIPOS>SUBSTRUCTURE
     1 SPV         1 TEMP              0 ****  ****    0 ROOT
