@<TRIPOS>MOLECULE
SPW
   44    43     1     0     0
SMALL
bcc


@<TRIPOS>ATOM
      1 N1          0.2090    1.2600   -0.3500 nz        1 SPW     -0.837600
      2 C2          1.6260    1.0020    0.0280 c3        1 SPW      0.105800
      3 C3          1.8740   -0.4110    0.5670 c3        1 SPW     -0.138400
      4 C4          3.3600   -0.5460    0.9160 c3        1 SPW      0.108800
      5 N5          3.7160   -1.8980    1.4560 ny        1 SPW     -0.764000
      6 C6          5.1770   -1.9980    1.7890 c3        1 SPW      0.107800
      7 C7          5.5740   -3.3700    2.3420 c3        1 SPW     -0.106400
      8 C8          7.0650   -3.3880    2.6540 c3        1 SPW     -0.106400
      9 C9          7.4630   -4.7600    3.2060 c3        1 SPW      0.107800
     10 N10         8.9230   -4.8600    3.5410 ny        1 SPW     -0.764000
     11 C11         9.2810   -6.2130    4.0770 c3        1 SPW      0.108800
     12 C12        10.7660   -6.3470    4.4290 c3        1 SPW     -0.138400
     13 C13        11.0150   -7.7610    4.9630 c3        1 SPW      0.105800
     14 N14        12.4320   -8.0180    5.3440 nz        1 SPW     -0.837600
     15 D1A        -0.1010    0.6170   -1.0900 hn        1 SPW      0.485467
     16 D1B        -0.4160    1.1540    0.4610 hn        1 SPW      0.485467
     17 D1C         0.1210    2.2280   -0.7030 hn        1 SPW      0.485467
     18 D5A         3.1620   -2.0840    2.3030 hn        1 SPW      0.464800
     19 D5B         3.4770   -2.6170    0.7590 hn        1 SPW      0.464800
     20 DXT         9.4790   -4.6700    2.6950 hn        1 SPW      0.464800
     21 DXU         9.1610   -4.1420    4.2400 hn        1 SPW      0.464800
     22 DXX        12.7380   -7.3780    6.0880 hn        1 SPW      0.485467
     23 DXY        13.0590   -7.9070    4.5370 hn        1 SPW      0.485467
     24 DXZ        12.5210   -8.9870    5.6930 hn        1 SPW      0.485467
     25 H2A         2.2590    1.1780   -0.8940 hx        1 SPW      0.131700
     26 H2B         1.9130    1.7680    0.8100 hx        1 SPW      0.131700
     27 H3A         1.5860   -1.1740   -0.2080 hc        1 SPW      0.098700
     28 H3B         1.2420   -0.5900    1.4800 hc        1 SPW      0.098700
     29 H4A         3.6420    0.2210    1.6970 hx        1 SPW      0.127700
     30 H4B         3.9890   -0.3680   -0.0060 hx        1 SPW      0.127700
     31 H6A         5.7580   -1.7820    0.8450 hx        1 SPW      0.122700
     32 H6B         5.4100   -1.1960    2.5480 hx        1 SPW      0.122700
     33 H7A         4.9940   -3.5930    3.2780 hc        1 SPW      0.087700
     34 H7B         5.3400   -4.1730    1.5920 hc        1 SPW      0.087700
     35 H8A         7.6460   -3.1640    1.7180 hc        1 SPW      0.087700
     36 H8B         7.3000   -2.5850    3.4050 hc        1 SPW      0.087700
     37 H9A         6.8810   -4.9780    4.1490 hx        1 SPW      0.122700
     38 H9B         7.2320   -5.5620    2.4450 hx        1 SPW      0.122700
     39 H111        9.0020   -6.9780    3.2920 hx        1 SPW      0.127700
     40 H112        8.6500   -6.3960    4.9970 hx        1 SPW      0.127700
     41 H121       11.0500   -5.5870    5.2080 hc        1 SPW      0.098700
     42 H122       11.4000   -6.1630    3.5190 hc        1 SPW      0.098700
     43 H131       10.7320   -8.5250    4.1770 hx        1 SPW      0.131700
     44 H132       10.3790   -7.9440    5.8820 hx        1 SPW      0.131700
@<TRIPOS>BOND
     1    1    2 1   
     2    1   15 1   
     3    1   16 1   
     4    1   17 1   
     5    2    3 1   
     6    2   25 1   
     7    2   26 1   
     8    3    4 1   
     9    3   27 1   
    10    3   28 1   
    11    4    5 1   
    12    4   29 1   
    13    4   30 1   
    14    5    6 1   
    15    5   18 1   
    16    5   19 1   
    17    6    7 1   
    18    6   31 1   
    19    6   32 1   
    20    7    8 1   
    21    7   33 1   
    22    7   34 1   
    23    8    9 1   
    24    8   35 1   
    25    8   36 1   
    26    9   10 1   
    27    9   37 1   
    28    9   38 1   
    29   10   11 1   
    30   10   20 1   
    31   10   21 1   
    32   11   12 1   
    33   11   39 1   
    34   11   40 1   
    35   12   13 1   
    36   12   41 1   
    37   12   42 1   
    38   13   14 1   
    39   13   43 1   
    40   13   44 1   
    41   14   22 1   
    42   14   23 1   
    43   14   24 1   
@<TRIPOS>SUBSTRUCTURE
     1 SPW         1 TEMP              0 ****  ****    0 ROOT
