@<TRIPOS>MOLECULE
SPW
   44    43     1     0     0
SMALL
bcc


@<TRIPOS>ATOM
      1 N1         23.2170   18.4370   28.1390 n4        1 SPW     -0.837600
      2 C2         22.7760   17.2470   27.3590 c3        1 SPW      0.105800
      3 C3         23.6870   16.9130   26.1740 c3        1 SPW     -0.138400
      4 C4         23.1270   15.6780   25.4610 c3        1 SPW      0.108800
      5 N5         23.9470   15.2610   24.2760 n4        1 SPW     -0.764000
      6 C6         23.3730   14.0490   23.6000 c3        1 SPW      0.107800
      7 C7         24.1880   13.5970   22.3850 c3        1 SPW     -0.106400
      8 C8         23.5410   12.3680   21.7590 c3        1 SPW     -0.106400
      9 C9         24.3570   11.9160   20.5440 c3        1 SPW      0.107800
     10 N10        23.7830   10.7040   19.8670 n4        1 SPW     -0.764000
     11 C11        24.6020   10.2870   18.6830 c3        1 SPW      0.108800
     12 C12        24.0420    9.0520   17.9700 c3        1 SPW     -0.138400
     13 C13        24.9530    8.7190   16.7840 c3        1 SPW      0.105800
     14 N14        24.5130    7.5280   16.0050 n4        1 SPW     -0.837600
     15 D1A        23.2340   19.2800   27.5500 hn        1 SPW      0.485467
     16 D1B        24.1550   18.2940   28.5350 hn        1 SPW      0.485467
     17 D1C        22.5570   18.5970   28.9180 hn        1 SPW      0.485467
     18 D5A        24.9080   15.0560   24.5820 hn        1 SPW      0.464800
     19 D5B        23.9910   16.0370   23.6020 hn        1 SPW      0.464800
     20 DXT        22.8220   10.9090   19.5620 hn        1 SPW      0.464800
     21 DXU        23.7390    9.9280   20.5420 hn        1 SPW      0.464800
     22 DXX        23.5740    7.6710   15.6090 hn        1 SPW      0.485467
     23 DXY        24.4960    6.6850   16.5940 hn        1 SPW      0.485467
     24 DXZ        25.1730    7.3670   15.2260 hn        1 SPW      0.485467
     25 H2A        21.7260   17.4530   26.9920 hx        1 SPW      0.131700
     26 H2B        22.7380   16.3690   28.0740 hx        1 SPW      0.131700
     27 H3A        24.7330   16.7120   26.5370 hc        1 SPW      0.098700
     28 H3B        23.7290   17.7850   25.4650 hc        1 SPW      0.098700
     29 H4A        22.0780   15.8880   25.0950 hx        1 SPW      0.127700
     30 H4B        23.0910   14.8050   26.1770 hx        1 SPW      0.127700
     31 H6A        22.3190   14.3020   23.2830 hx        1 SPW      0.122700
     32 H6B        23.3310   13.2190   24.3650 hx        1 SPW      0.122700
     33 H7A        25.2400   13.3500   22.6940 hc        1 SPW      0.087700
     34 H7B        24.2380   14.4220   21.6230 hc        1 SPW      0.087700
     35 H8A        22.4890   12.6150   21.4500 hc        1 SPW      0.087700
     36 H8B        23.4920   11.5430   22.5210 hc        1 SPW      0.087700
     37 H9A        24.3980   12.7460   19.7790 hx        1 SPW      0.122700
     38 H9B        25.4110   11.6630   20.8600 hx        1 SPW      0.122700
     39 H111       25.6510   10.0770   19.0480 hx        1 SPW      0.127700
     40 H112       24.6380   11.1600   17.9660 hx        1 SPW      0.127700
     41 H121       22.9970    9.2530   17.6070 hc        1 SPW      0.098700
     42 H122       24.0000    8.1800   18.6790 hc        1 SPW      0.098700
     43 H131       26.0040    8.5120   17.1520 hx        1 SPW      0.131700
     44 H132       24.9910    9.5960   16.0700 hx        1 SPW      0.131700
@<TRIPOS>BOND
     1    1    2 1   
     2    1   15 1   
     3    1   16 1   
     4    1   17 1   
     5    2    3 1   
     6    2   25 1   
     7    2   26 1   
     8    3    4 1   
     9    3   27 1   
    10    3   28 1   
    11    4    5 1   
    12    4   29 1   
    13    4   30 1   
    14    5    6 1   
    15    5   18 1   
    16    5   19 1   
    17    6    7 1   
    18    6   31 1   
    19    6   32 1   
    20    7    8 1   
    21    7   33 1   
    22    7   34 1   
    23    8    9 1   
    24    8   35 1   
    25    8   36 1   
    26    9   10 1   
    27    9   37 1   
    28    9   38 1   
    29   10   11 1   
    30   10   20 1   
    31   10   21 1   
    32   11   12 1   
    33   11   39 1   
    34   11   40 1   
    35   12   13 1   
    36   12   41 1   
    37   12   42 1   
    38   13   14 1   
    39   13   43 1   
    40   13   44 1   
    41   14   22 1   
    42   14   23 1   
    43   14   24 1   
@<TRIPOS>SUBSTRUCTURE
     1 SPW         1 TEMP              0 ****  ****    0 ROOT
