@<TRIPOS>MOLECULE
SPW
   44    43     1     0     0
SMALL
bcc


@<TRIPOS>ATOM
      1 N1         -6.4670   -1.0690   -4.5070 n4        1 SPW     -0.837600
      2 C2         -5.1730   -0.4830   -4.3800 c3        1 SPW      0.105800
      3 C3         -4.6420   -0.7180   -2.9440 c3        1 SPW     -0.138400
      4 C4         -3.1990   -0.1560   -2.8250 c3        1 SPW      0.108800
      5 N5         -2.7000   -0.3890   -1.5030 n4        1 SPW     -0.764000
      6 C6         -1.3300    0.1790   -1.3840 c3        1 SPW      0.107800
      7 C7         -0.7490   -0.1740   -0.0240 c3        1 SPW     -0.106400
      8 C8          0.6790    0.4260    0.1020 c3        1 SPW     -0.106400
      9 C9          1.2580    0.0900    1.4950 c3        1 SPW      0.107800
     10 N10         2.6210    0.5280    1.5640 n4        1 SPW     -0.764000
     11 C11         3.1800    0.1620    2.8440 c3        1 SPW      0.108800
     12 C12         4.6460    0.6850    2.9450 c3        1 SPW     -0.138400
     13 C13         5.2420    0.2470    4.2660 c3        1 SPW      0.105800
     14 N14         6.6030    0.7520    4.3800 n4        1 SPW     -0.837600
     15 D1A        -6.7780   -0.9530   -5.3790 hn        1 SPW      0.485467
     16 D1B        -6.4170   -1.9600   -4.3170 hn        1 SPW      0.485467
     17 D1C        -7.0410   -0.6650   -3.9240 hn        1 SPW      0.485467
     18 D5A        -2.6720   -1.2880   -1.3420 hn        1 SPW      0.464800
     19 D5B        -3.2560    0.0160   -0.8890 hn        1 SPW      0.464800
     20 DXT         2.6560    1.4420    1.4640 hn        1 SPW      0.464800
     21 DXU         3.0970    0.1340    0.9030 hn        1 SPW      0.464800
     22 DXX         6.9590    0.4940    5.1900 hn        1 SPW      0.485467
     23 DXY         6.5960    1.6780    4.3260 hn        1 SPW      0.485467
     24 DXZ         7.1170    0.4080    3.6950 hn        1 SPW      0.485467
     25 H2A        -4.5630   -0.8950   -5.0260 hx        1 SPW      0.131700
     26 H2B        -5.2310    0.4810   -4.5530 hx        1 SPW      0.131700
     27 H3A        -5.2300   -0.2560   -2.2960 hc        1 SPW      0.098700
     28 H3B        -4.6350   -1.6860   -2.7500 hc        1 SPW      0.098700
     29 H4A        -3.2080    0.8060   -3.0040 hx        1 SPW      0.127700
     30 H4B        -2.6240   -0.6000   -3.4710 hx        1 SPW      0.127700
     31 H6A        -0.7640   -0.1900   -2.0850 hx        1 SPW      0.122700
     32 H6B        -1.3720    1.1620   -1.4780 hx        1 SPW      0.122700
     33 H7A        -1.3170    0.1920    0.6740 hc        1 SPW      0.087700
     34 H7B        -0.7040   -1.1390    0.0690 hc        1 SPW      0.087700
     35 H8A         1.2560    0.0430   -0.5910 hc        1 SPW      0.087700
     36 H8B         0.6360    1.4150   -0.0120 hc        1 SPW      0.087700
     37 H9A         1.2170   -0.8760    1.6410 hx        1 SPW      0.122700
     38 H9B         0.7320    0.5470    2.1870 hx        1 SPW      0.122700
     39 H111        3.1750   -0.8200    2.9360 hx        1 SPW      0.127700
     40 H112        2.6330    0.5670    3.5730 hx        1 SPW      0.127700
     41 H121        4.6490    1.6630    2.8930 hc        1 SPW      0.098700
     42 H122        5.1720    0.3210    2.2170 hc        1 SPW      0.098700
     43 H131        5.2520   -0.7210    4.3090 hx        1 SPW      0.131700
     44 H132        4.6960    0.6030    5.0060 hx        1 SPW      0.131700
@<TRIPOS>BOND
     1    1    2 1   
     2    1   15 1   
     3    1   16 1   
     4    1   17 1   
     5    2    3 1   
     6    2   25 1   
     7    2   26 1   
     8    3    4 1   
     9    3   27 1   
    10    3   28 1   
    11    4    5 1   
    12    4   29 1   
    13    4   30 1   
    14    5    6 1   
    15    5   18 1   
    16    5   19 1   
    17    6    7 1   
    18    6   31 1   
    19    6   32 1   
    20    7    8 1   
    21    7   33 1   
    22    7   34 1   
    23    8    9 1   
    24    8   35 1   
    25    8   36 1   
    26    9   10 1   
    27    9   37 1   
    28    9   38 1   
    29   10   11 1   
    30   10   20 1   
    31   10   21 1   
    32   11   12 1   
    33   11   39 1   
    34   11   40 1   
    35   12   13 1   
    36   12   41 1   
    37   12   42 1   
    38   13   14 1   
    39   13   43 1   
    40   13   44 1   
    41   14   22 1   
    42   14   23 1   
    43   14   24 1   
@<TRIPOS>SUBSTRUCTURE
     1 SPW         1 TEMP              0 ****  ****    0 ROOT
