@<TRIPOS>MOLECULE
SPW
   44    43     1     0     0
SMALL
bcc


@<TRIPOS>ATOM
      1 N1          0.1920    1.2430   -0.3410 n4        1 SPW     -0.837600
      2 C2          1.6160    0.9790    0.0070 c3        1 SPW      0.105800
      3 C3          1.8610   -0.4180    0.5870 c3        1 SPW     -0.138400
      4 C4          3.3530   -0.5610    0.9000 c3        1 SPW      0.108800
      5 N5          3.7080   -1.8990    1.4760 n4        1 SPW     -0.764000
      6 C6          5.1760   -2.0080    1.7720 c3        1 SPW      0.107800
      7 C7          5.5710   -3.3650    2.3620 c3        1 SPW     -0.106400
      8 C8          7.0700   -3.3930    2.6320 c3        1 SPW     -0.106400
      9 C9          7.4650   -4.7500    3.2220 c3        1 SPW      0.107800
     10 N10         8.9320   -4.8590    3.5180 n4        1 SPW     -0.764000
     11 C11         9.2870   -6.1970    4.0940 c3        1 SPW      0.108800
     12 C12        10.7800   -6.3400    4.4080 c3        1 SPW     -0.138400
     13 C13        11.0250   -7.7370    4.9870 c3        1 SPW      0.105800
     14 N14        12.4480   -8.0010    5.3350 n4        1 SPW     -0.837600
     15 D1A        -0.1460    0.5790   -1.0510 hn        1 SPW      0.485467
     16 D1B        -0.4120    1.1720    0.4890 hn        1 SPW      0.485467
     17 D1C         0.1060    2.2000   -0.7240 hn        1 SPW      0.485467
     18 D5A         3.1750   -2.0490    2.3440 hn        1 SPW      0.464800
     19 D5B         3.4400   -2.6380    0.8120 hn        1 SPW      0.464800
     20 DXT         9.4660   -4.7090    2.6510 hn        1 SPW      0.464800
     21 DXU         9.2000   -4.1200    4.1830 hn        1 SPW      0.464800
     22 DXX        12.7860   -7.3380    6.0460 hn        1 SPW      0.485467
     23 DXY        13.0530   -7.9300    4.5060 hn        1 SPW      0.485467
     24 DXZ        12.5340   -8.9580    5.7180 hn        1 SPW      0.485467
     25 H2A         2.2260    1.1160   -0.9370 hx        1 SPW      0.131700
     26 H2B         1.9330    1.7670    0.7550 hx        1 SPW      0.131700
     27 H3A         1.5420   -1.2030   -0.1530 hc        1 SPW      0.098700
     28 H3B         1.2520   -0.5580    1.5220 hc        1 SPW      0.098700
     29 H4A         3.6670    0.2280    1.6470 hx        1 SPW      0.127700
     30 H4B         3.9590   -0.4230   -0.0450 hx        1 SPW      0.127700
     31 H6A         5.7330   -1.8330    0.8050 hx        1 SPW      0.122700
     32 H6B         5.4410   -1.1830    2.4960 hx        1 SPW      0.122700
     33 H7A         5.0140   -3.5470    3.3220 hc        1 SPW      0.087700
     34 H7B         5.3040   -4.1910    1.6480 hc        1 SPW      0.087700
     35 H8A         7.6260   -3.2110    1.6730 hc        1 SPW      0.087700
     36 H8B         7.3360   -2.5680    3.3470 hc        1 SPW      0.087700
     37 H9A         6.9070   -4.9260    4.1890 hx        1 SPW      0.122700
     38 H9B         7.2000   -5.5760    2.4980 hx        1 SPW      0.122700
     39 H111        8.9740   -6.9860    3.3470 hx        1 SPW      0.127700
     40 H112        8.6810   -6.3360    5.0390 hx        1 SPW      0.127700
     41 H121       11.0980   -5.5560    5.1490 hc        1 SPW      0.098700
     42 H122       11.3890   -6.2000    3.4730 hc        1 SPW      0.098700
     43 H131       10.7080   -8.5250    4.2390 hx        1 SPW      0.131700
     44 H132       10.4150   -7.8750    5.9300 hx        1 SPW      0.131700
@<TRIPOS>BOND
     1    1    2 1   
     2    1   15 1   
     3    1   16 1   
     4    1   17 1   
     5    2    3 1   
     6    2   25 1   
     7    2   26 1   
     8    3    4 1   
     9    3   27 1   
    10    3   28 1   
    11    4    5 1   
    12    4   29 1   
    13    4   30 1   
    14    5    6 1   
    15    5   18 1   
    16    5   19 1   
    17    6    7 1   
    18    6   31 1   
    19    6   32 1   
    20    7    8 1   
    21    7   33 1   
    22    7   34 1   
    23    8    9 1   
    24    8   35 1   
    25    8   36 1   
    26    9   10 1   
    27    9   37 1   
    28    9   38 1   
    29   10   11 1   
    30   10   20 1   
    31   10   21 1   
    32   11   12 1   
    33   11   39 1   
    34   11   40 1   
    35   12   13 1   
    36   12   41 1   
    37   12   42 1   
    38   13   14 1   
    39   13   43 1   
    40   13   44 1   
    41   14   22 1   
    42   14   23 1   
    43   14   24 1   
@<TRIPOS>SUBSTRUCTURE
     1 SPW         1 TEMP              0 ****  ****    0 ROOT
