@<TRIPOS>MOLECULE
SPW
   44    43     1     0     0
SMALL
bcc


@<TRIPOS>ATOM
      1 N1          0.1660    1.2200   -0.3240 n4        1 SPW     -0.837600
      2 C2          1.5900    0.9660    0.0340 c3        1 SPW      0.105800
      3 C3          1.8450   -0.4370    0.5930 c3        1 SPW     -0.138400
      4 C4          3.3360   -0.5680    0.9190 c3        1 SPW      0.108800
      5 N5          3.7010   -1.9130    1.4750 n4        1 SPW     -0.764000
      6 C6          5.1670   -2.0080    1.7870 c3        1 SPW      0.107800
      7 C7          5.5720   -3.3720    2.3540 c3        1 SPW     -0.106400
      8 C8          7.0670   -3.3850    2.6440 c3        1 SPW     -0.106400
      9 C9          7.4740   -4.7500    3.2080 c3        1 SPW      0.107800
     10 N10         8.9390   -4.8440    3.5240 n4        1 SPW     -0.764000
     11 C11         9.3050   -6.1920    4.0710 c3        1 SPW      0.108800
     12 C12        10.7940   -6.3190    4.4060 c3        1 SPW     -0.138400
     13 C13        11.0530   -7.7270    4.9520 c3        1 SPW      0.105800
     14 N14        12.4740   -7.9780    5.3180 n4        1 SPW     -0.837600
     15 D1A        -0.4450    1.1280    0.4990 hn        1 SPW      0.485467
     16 D1B        -0.1570    0.5640   -1.0470 hn        1 SPW      0.485467
     17 D1C         0.0740    2.1810   -0.6910 hn        1 SPW      0.485467
     18 D5A         3.4500   -2.6420    0.7930 hn        1 SPW      0.464800
     19 D5B         3.1590   -2.0850    2.3330 hn        1 SPW      0.464800
     20 DXT         9.4830   -4.6640    2.6690 hn        1 SPW      0.464800
     21 DXU         9.1850   -4.1190    4.2120 hn        1 SPW      0.464800
     22 DXX        12.5690   -8.9440    5.6760 hn        1 SPW      0.485467
     23 DXY        12.7880   -7.3290    6.0520 hn        1 SPW      0.485467
     24 DXZ        13.0910   -7.8740    4.5020 hn        1 SPW      0.485467
     25 H2A         1.8910    1.7450    0.7980 hx        1 SPW      0.131700
     26 H2B         2.2070    1.1260   -0.9010 hx        1 SPW      0.131700
     27 H3A         1.2290   -0.6000    1.5200 hc        1 SPW      0.098700
     28 H3B         1.5440   -1.2130   -0.1640 hc        1 SPW      0.098700
     29 H4A         3.9500   -0.4060   -0.0160 hx        1 SPW      0.127700
     30 H4B         3.6320    0.2100    1.6840 hx        1 SPW      0.127700
     31 H6A         5.4110   -1.1940    2.5310 hx        1 SPW      0.122700
     32 H6B         5.7330   -1.8060    0.8310 hx        1 SPW      0.122700
     33 H7A         5.0050   -3.5820    3.3020 hc        1 SPW      0.087700
     34 H7B         5.3270   -4.1860    1.6190 hc        1 SPW      0.087700
     35 H8A         7.6340   -3.1730    1.6970 hc        1 SPW      0.087700
     36 H8B         7.3130   -2.5730    3.3810 hc        1 SPW      0.087700
     37 H9A         7.2330   -5.5620    2.4610 hx        1 SPW      0.122700
     38 H9B         6.9050   -4.9570    4.1620 hx        1 SPW      0.122700
     39 H111        8.6860   -6.3640    5.0010 hx        1 SPW      0.127700
     40 H112        9.0170   -6.9650    3.2990 hx        1 SPW      0.127700
     41 H121       11.0870   -5.5510    5.1730 hc        1 SPW      0.098700
     42 H122       11.4160   -6.1440    3.4860 hc        1 SPW      0.098700
     43 H131       10.7620   -8.5000    4.1770 hx        1 SPW      0.131700
     44 H132       10.4280   -7.9010    5.8800 hx        1 SPW      0.131700
@<TRIPOS>BOND
     1    1    2 1   
     2    1   15 1   
     3    1   16 1   
     4    1   17 1   
     5    2    3 1   
     6    2   25 1   
     7    2   26 1   
     8    3    4 1   
     9    3   27 1   
    10    3   28 1   
    11    4    5 1   
    12    4   29 1   
    13    4   30 1   
    14    5    6 1   
    15    5   18 1   
    16    5   19 1   
    17    6    7 1   
    18    6   31 1   
    19    6   32 1   
    20    7    8 1   
    21    7   33 1   
    22    7   34 1   
    23    8    9 1   
    24    8   35 1   
    25    8   36 1   
    26    9   10 1   
    27    9   37 1   
    28    9   38 1   
    29   10   11 1   
    30   10   20 1   
    31   10   21 1   
    32   11   12 1   
    33   11   39 1   
    34   11   40 1   
    35   12   13 1   
    36   12   41 1   
    37   12   42 1   
    38   13   14 1   
    39   13   43 1   
    40   13   44 1   
    41   14   22 1   
    42   14   23 1   
    43   14   24 1   
@<TRIPOS>SUBSTRUCTURE
     1 SPW         1 TEMP              0 ****  ****    0 ROOT
