@<TRIPOS>MOLECULE
SPY
   14    14     1     0     0
SMALL
bcc


@<TRIPOS>ATOM
      1 S           0.0230    0.0770   -0.3280 s6        1 SPY      1.899600
      2 N1          4.6270   -0.1100   -0.0260 n1        1 SPY     -0.379400
      3 C2          3.8950   -0.0760    1.0560 c2        1 SPY      0.347900
      4 C3          2.4210    0.1590    1.0610 c3        1 SPY     -0.167500
      5 C4          1.8160    0.0440   -0.2890 ce        1 SPY     -0.655200
      6 C5          2.6120   -0.0530   -1.3780 ce        1 SPY     -0.249100
      7 C6          4.0450    0.1460   -1.2380 c1        1 SPY      0.033100
      8 O2S        -0.3290   -0.1960   -1.6620 o         1 SPY     -0.737867
      9 O2         -0.3290   -0.9330    0.5960 o         1 SPY     -0.737867
     10 H2          2.1790    1.1760    1.4840 hc        1 SPY      0.110700
     11 H3          4.3890   -0.2200    2.0340 h4        1 SPY     -0.002200
     12 H5          1.9350   -0.6040    1.7380 hc        1 SPY      0.110700
     13 H6          2.1940   -0.1690   -2.3890 ha        1 SPY      0.165000
     14 O1S        -0.2930    1.3790    0.1140 o         1 SPY     -0.737867
@<TRIPOS>BOND
     1    1    5 2   
     2    1    8 1   
     3    1    9 1   
     4    1   14 1   
     5    2    3 2   
     6    2    7 2   
     7    3    4 1   
     8    3   11 1   
     9    4    5 1   
    10    4   10 1   
    11    4   12 1   
    12    5    6 1   
    13    6    7 2   
    14    6   13 1   
@<TRIPOS>SUBSTRUCTURE
     1 SPY         1 TEMP              0 ****  ****    0 ROOT
