@<TRIPOS>MOLECULE
SPY
   14    14     1     0     0
SMALL
bcc


@<TRIPOS>ATOM
      1 S           1.4830   -0.0000   -0.0240 s6        1 SPY      1.458100
      2 N1         -3.1340    0.0000    0.0510 nb        1 SPY     -0.684000
      3 C2         -2.4280    1.1480    0.0330 ca        1 SPY      0.345200
      4 C3         -1.0230    1.1950    0.0020 ca        1 SPY     -0.158300
      5 C4         -0.3030   -0.0000   -0.0070 ca        1 SPY     -0.216500
      6 C5         -1.0230   -1.1950    0.0020 ca        1 SPY     -0.158300
      7 C6         -2.4280   -1.1480    0.0330 ca        1 SPY      0.345200
      8 O2S         1.8270   -1.1880   -0.7070 o         1 SPY     -0.741533
      9 O2          1.8270    1.1880   -0.7070 o         1 SPY     -0.741533
     10 H2         -3.0250    2.0760    0.0430 h4        1 SPY     -0.004900
     11 H3         -0.4900    2.1570   -0.0270 ha        1 SPY      0.152000
     12 H5         -0.4900   -2.1570   -0.0270 ha        1 SPY      0.152000
     13 H6         -3.0250   -2.0760    0.0430 h4        1 SPY     -0.004900
     14 O1S         1.8510   -0.0000    1.3380 o         1 SPY     -0.741533
@<TRIPOS>BOND
     1    1    5 1   
     2    1    8 1   
     3    1    9 1   
     4    1   14 1   
     5    2    3 ar  
     6    2    7 ar  
     7    3    4 ar  
     8    3   10 1   
     9    4    5 ar  
    10    4   11 1   
    11    5    6 ar  
    12    6    7 ar  
    13    6   12 1   
    14    7   13 1   
@<TRIPOS>SUBSTRUCTURE
     1 SPY         1 TEMP              0 ****  ****    0 ROOT
