@<TRIPOS>MOLECULE
SPY
   14    14     1     0     0
SMALL
bcc


@<TRIPOS>ATOM
      1 S           0.1820    0.5290   -0.1470 s6        1 SPY      1.423800
      2 N1          4.3140    0.9380   -0.1040 ne        1 SPY     -0.427000
      3 C2          3.8210    0.3470    1.0980 ce        1 SPY     -0.041400
      4 C3          2.5710   -0.2000    1.1170 c2        1 SPY     -0.113200
      5 C4          1.7970   -0.4620   -0.1240 c3        1 SPY     -0.175500
      6 C5          2.7000   -0.4460   -1.2970 c2        1 SPY     -0.122300
      7 C6          3.7640    0.3720   -1.1190 c1        1 SPY      0.092500
      8 O2S        -0.5350   -0.1420   -1.1520 o         1 SPY     -0.727867
      9 O2         -0.3040    0.3040    1.1530 o         1 SPY     -0.727867
     10 H2          2.0450   -0.4160    2.0590 ha        1 SPY      0.149000
     11 H3          4.4370    0.5090    1.9920 h4        1 SPY      0.136000
     12 H5          1.3780   -1.5060   -0.0900 h1        1 SPY      0.119700
     13 H6          2.5020   -1.0600   -2.1760 ha        1 SPY      0.141000
     14 O1S         0.5140    1.8520   -0.4390 o         1 SPY     -0.727867
@<TRIPOS>BOND
     1    1    5 1   
     2    1    8 1   
     3    1    9 1   
     4    1   14 1   
     5    2    3 1   
     6    2    7 2   
     7    3    4 2   
     8    3   11 1   
     9    4    5 1   
    10    4   10 1   
    11    5    6 1   
    12    5   12 1   
    13    6    7 2   
    14    6   13 1   
@<TRIPOS>SUBSTRUCTURE
     1 SPY         1 TEMP              0 ****  ****    0 ROOT
