@<TRIPOS>MOLECULE
SPZ
   50    49     1     0     0
SMALL
bcc


@<TRIPOS>ATOM
      1 N1B         1.0650    0.0270    1.5340 nz        1 SPZ     -0.845600
      2 C1C         1.0520    0.0820    0.0280 c3        1 SPZ      0.140500
      3 C1A         1.8530    1.2860   -0.4570 c3        1 SPZ     -0.152100
      4 C1D         1.5850   -1.2280   -0.5850 c3        1 SPZ     -0.138400
      5 C1E         1.2400   -1.2840   -2.0760 c3        1 SPZ      0.110800
      6 N1F         1.7290   -2.5350   -2.7440 ny        1 SPZ     -0.765000
      7 C1G         1.3950   -2.5550   -4.2070 c3        1 SPZ      0.107800
      8 C1H         1.8890   -3.8180   -4.9190 c3        1 SPZ     -0.106400
      9 C1I         1.5150   -3.7570   -6.3950 c3        1 SPZ     -0.106400
     10 C1J         2.0150   -5.0170   -7.1080 c3        1 SPZ      0.107800
     11 N1K         1.6880   -5.0330   -8.5730 ny        1 SPZ     -0.765000
     12 C1L         2.1970   -6.2740   -9.2450 c3        1 SPZ      0.110800
     13 C1M         1.8960   -6.3070  -10.7460 c3        1 SPZ     -0.138400
     14 C1N         2.4470   -7.6070  -11.3640 c3        1 SPZ      0.140500
     15 C1P         3.9710   -7.5910  -11.4180 c3        1 SPZ     -0.152100
     16 N1O         1.8850   -7.8410  -12.7430 nz        1 SPZ     -0.845600
     17 HN1B        0.5020   -0.7580    1.8800 hn        1 SPZ      0.480800
     18 HN1A        0.6730    0.9060    1.9050 hn        1 SPZ      0.480800
     19 H1C        -0.0370    0.2130   -0.2650 hx        1 SPZ      0.123700
     20 H1A         2.9480    1.1600   -0.2660 hc        1 SPZ      0.098033
     21 H1AA        1.5120    2.2340    0.0360 hc        1 SPZ      0.098033
     22 H1AB        1.6910    1.4180   -1.5560 hc        1 SPZ      0.098033
     23 H1D         2.7000   -1.2750   -0.4430 hc        1 SPZ      0.094200
     24 H1DA        1.1310   -2.1140   -0.0620 hc        1 SPZ      0.094200
     25 H1E         1.7100   -0.4070   -2.6130 hx        1 SPZ      0.126200
     26 H1EA        0.1200   -1.2350   -2.2160 hx        1 SPZ      0.126200
     27 HN1F        1.3040   -3.3540   -2.2880 hn        1 SPZ      0.464300
     28 H1G         0.2720   -2.4740   -4.3030 hx        1 SPZ      0.122200
     29 H1GA        1.8640   -1.6410   -4.6770 hx        1 SPZ      0.122200
     30 H1H         1.4280   -4.7310   -4.4540 hc        1 SPZ      0.087700
     31 H1HA        3.0050   -3.9070   -4.8200 hc        1 SPZ      0.087700
     32 H1I         1.9730   -2.8420   -6.8590 hc        1 SPZ      0.087700
     33 H1IA        0.3990   -3.6720   -6.4940 hc        1 SPZ      0.087700
     34 H1J         3.1370   -5.0960   -7.0070 hx        1 SPZ      0.122200
     35 H1JA        1.5450   -5.9340   -6.6440 hx        1 SPZ      0.122200
     36 HN1K        2.1070   -4.2070   -9.0230 hn        1 SPZ      0.464300
     37 H1L         1.7190   -7.1620   -8.7350 hx        1 SPZ      0.126200
     38 H1LA        3.3140   -6.3180   -9.0760 hx        1 SPZ      0.126200
     39 H1M         0.7840   -6.2430  -10.9070 hc        1 SPZ      0.094200
     40 H1MA        2.3720   -5.4250  -11.2580 hc        1 SPZ      0.094200
     41 H1N         2.1040   -8.4900  -10.7390 hx        1 SPZ      0.123700
     42 H1P         4.3760   -8.5060  -11.9260 hc        1 SPZ      0.098033
     43 H1PA        4.3770   -7.5950  -10.3760 hc        1 SPZ      0.098033
     44 H1PB        4.3580   -6.6880  -11.9530 hc        1 SPZ      0.098033
     45 HN1O        2.2520   -8.7330  -13.1080 hn        1 SPZ      0.480800
     46 HN1C        0.8600   -7.8890  -12.7200 hn        1 SPZ      0.480800
     47 H1B3        2.0260   -0.0680    1.8850 hn        1 SPZ      0.480800
     48 H1F2        2.7490   -2.6060   -2.6270 hn        1 SPZ      0.464300
     49 H1K2        0.6680   -4.9730   -8.6940 hn        1 SPZ      0.464300
     50 H1O3        2.1720   -7.0900  -13.3830 hn        1 SPZ      0.480800
@<TRIPOS>BOND
     1    1    2 1   
     2    1   17 1   
     3    1   18 1   
     4    1   47 1   
     5    2    3 1   
     6    2    4 1   
     7    2   19 1   
     8    3   20 1   
     9    3   21 1   
    10    3   22 1   
    11    4    5 1   
    12    4   23 1   
    13    4   24 1   
    14    5    6 1   
    15    5   25 1   
    16    5   26 1   
    17    6    7 1   
    18    6   27 1   
    19    6   48 1   
    20    7    8 1   
    21    7   28 1   
    22    7   29 1   
    23    8    9 1   
    24    8   30 1   
    25    8   31 1   
    26    9   10 1   
    27    9   32 1   
    28    9   33 1   
    29   10   11 1   
    30   10   34 1   
    31   10   35 1   
    32   11   12 1   
    33   11   36 1   
    34   11   49 1   
    35   12   13 1   
    36   12   37 1   
    37   12   38 1   
    38   13   14 1   
    39   13   39 1   
    40   13   40 1   
    41   14   15 1   
    42   14   16 1   
    43   14   41 1   
    44   15   42 1   
    45   15   43 1   
    46   15   44 1   
    47   16   45 1   
    48   16   46 1   
    49   16   50 1   
@<TRIPOS>SUBSTRUCTURE
     1 SPZ         1 TEMP              0 ****  ****    0 ROOT
