@<TRIPOS>MOLECULE
SPZ
   46    45     1     0     0
SMALL
bcc


@<TRIPOS>ATOM
      1 N1B        -1.7600    3.6390    6.3510 n3        1 SPZ     -0.903800
      2 C1C        -0.5250    3.4710    5.6780 c3        1 SPZ      0.160500
      3 C1A         0.6090    3.6140    6.6630 c3        1 SPZ     -0.134100
      4 C1D        -0.4760    2.0860    5.0420 c3        1 SPZ     -0.076400
      5 C1E        -0.8450    2.1940    3.5520 c3        1 SPZ      0.163800
      6 N1F        -0.7140    0.8960    2.9250 n3        1 SPZ     -0.826200
      7 C1G        -0.8550    1.0370    1.4920 c3        1 SPZ      0.163800
      8 C1H        -0.4220   -0.2670    0.8030 c3        1 SPZ     -0.083400
      9 C1I        -0.5910   -0.1230   -0.7220 c3        1 SPZ     -0.083400
     10 C1J        -0.1010   -1.4020   -1.4140 c3        1 SPZ      0.163800
     11 N1K        -0.2330   -1.2570   -2.8530 n3        1 SPZ     -0.826200
     12 C1L         0.4680   -2.3470   -3.5190 c3        1 SPZ      0.163800
     13 C1M         0.5020   -2.0830   -5.0420 c3        1 SPZ     -0.076400
     14 C1N         1.3280   -3.1690   -5.7310 c3        1 SPZ      0.160500
     15 C1P         2.1090   -2.5620   -6.8710 c3        1 SPZ     -0.134100
     16 N1O         0.4630   -4.1710   -6.2330 n3        1 SPZ     -0.903800
     17 HN1B       -1.6220    3.6000    7.2590 hn        1 SPZ      0.344800
     18 HN1A       -2.1200    4.4550    6.1320 hn        1 SPZ      0.344800
     19 H1C        -0.4390    4.1500    4.9840 h1        1 SPZ      0.060700
     20 H1A         0.5410    2.9110    7.3440 hc        1 SPZ      0.037367
     21 H1AA        0.5570    4.4950    7.0950 hc        1 SPZ      0.037367
     22 H1AB        1.4640    3.5310    6.1920 hc        1 SPZ      0.037367
     23 H1D        -1.1180    1.4930    5.4970 hc        1 SPZ      0.046200
     24 H1DA        0.4250    1.7190    5.1290 hc        1 SPZ      0.046200
     25 H1E        -0.2470    2.8280    3.1150 h1        1 SPZ      0.038700
     26 H1EA       -1.7710    2.5060    3.4660 h1        1 SPZ      0.038700
     27 HN1F       -1.3710    0.3320    3.2440 hn        1 SPZ      0.350800
     28 H1G        -0.2940    1.7710    1.1810 h1        1 SPZ      0.029200
     29 H1GA       -1.7950    1.2270    1.2730 h1        1 SPZ      0.029200
     30 H1H        -0.9800   -1.0090    1.1260 hc        1 SPZ      0.046700
     31 H1HA        0.5180   -0.4510    1.0120 hc        1 SPZ      0.046700
     32 H1I        -0.0670    0.6390   -1.0370 hc        1 SPZ      0.046700
     33 H1IA       -1.5370    0.0210   -0.9340 hc        1 SPZ      0.046700
     34 H1J         0.8340   -1.5550   -1.1880 h1        1 SPZ      0.029200
     35 H1JA       -0.6380   -2.1620   -1.1120 h1        1 SPZ      0.029200
     36 HN1K       -1.1210   -1.2790   -3.0810 hn        1 SPZ      0.350800
     37 H1L         1.3820   -2.4040   -3.1770 h1        1 SPZ      0.038700
     38 H1LA        0.0010   -3.1890   -3.3440 h1        1 SPZ      0.038700
     39 H1M         0.9070   -1.2080   -5.2130 hc        1 SPZ      0.046200
     40 H1MA       -0.4090   -2.0940   -5.3950 hc        1 SPZ      0.046200
     41 H1N         1.9420   -3.5620   -5.0910 h1        1 SPZ      0.060700
     42 H1P         2.5100   -3.2790   -7.4120 hc        1 SPZ      0.037367
     43 H1PA        2.8180   -1.9870   -6.5130 hc        1 SPZ      0.037367
     44 H1PB        1.5080   -2.0280   -7.4310 hc        1 SPZ      0.037367
     45 HN1O        0.3180   -4.0290   -7.1300 hn        1 SPZ      0.344800
     46 HN1C        0.8480   -4.9960   -6.1120 hn        1 SPZ      0.344800
@<TRIPOS>BOND
     1    1    2 1   
     2    1   17 1   
     3    1   18 1   
     4    2    3 1   
     5    2    4 1   
     6    2   19 1   
     7    3   20 1   
     8    3   21 1   
     9    3   22 1   
    10    4    5 1   
    11    4   23 1   
    12    4   24 1   
    13    5    6 1   
    14    5   25 1   
    15    5   26 1   
    16    6    7 1   
    17    6   27 1   
    18    7    8 1   
    19    7   28 1   
    20    7   29 1   
    21    8    9 1   
    22    8   30 1   
    23    8   31 1   
    24    9   10 1   
    25    9   32 1   
    26    9   33 1   
    27   10   11 1   
    28   10   34 1   
    29   10   35 1   
    30   11   12 1   
    31   11   36 1   
    32   12   13 1   
    33   12   37 1   
    34   12   38 1   
    35   13   14 1   
    36   13   39 1   
    37   13   40 1   
    38   14   15 1   
    39   14   16 1   
    40   14   41 1   
    41   15   42 1   
    42   15   43 1   
    43   15   44 1   
    44   16   45 1   
    45   16   46 1   
@<TRIPOS>SUBSTRUCTURE
     1 SPZ         1 TEMP              0 ****  ****    0 ROOT
