@<TRIPOS>MOLECULE
SPZ
   46    45     1     0     0
SMALL
bcc


@<TRIPOS>ATOM
      1 N1B        -7.0370   -1.2290    0.7880 n3        1 SPZ     -0.904800
      2 C1C        -6.8190   -0.2150   -0.2290 c3        1 SPZ      0.163000
      3 C1A        -7.9860    0.7590   -0.4200 c3        1 SPZ     -0.112600
      4 C1D        -5.5470    0.6080    0.0210 c3        1 SPZ     -0.101400
      5 C1E        -4.3040   -0.2770   -0.0020 c3        1 SPZ      0.165300
      6 N1F        -3.0740    0.4810    0.1410 n3        1 SPZ     -0.826200
      7 C1G        -1.8890   -0.3420    0.0060 c3        1 SPZ      0.164800
      8 C1H        -0.5970    0.4720   -0.0330 c3        1 SPZ     -0.083400
      9 C1I         0.5960   -0.4560   -0.1150 c3        1 SPZ     -0.083400
     10 C1J         1.8890    0.3580   -0.1470 c3        1 SPZ      0.164800
     11 N1K         3.0750   -0.4640   -0.2830 n3        1 SPZ     -0.826200
     12 C1L         4.3050    0.2860   -0.1240 c3        1 SPZ      0.165300
     13 C1M         5.5430   -0.6050   -0.0740 c3        1 SPZ     -0.101400
     14 C1N         6.8350    0.2230   -0.1840 c3        1 SPZ      0.163000
     15 C1P         8.0010   -0.7470   -0.3830 c3        1 SPZ     -0.112600
     16 N1O         7.0830    1.1440    0.9090 n3        1 SPZ     -0.904800
     17 HN1B       -6.9890   -0.8280    1.7040 hn        1 SPZ      0.346050
     18 HN1A       -7.9380   -1.6490    0.6650 hn        1 SPZ      0.346050
     19 H1C        -6.6830   -0.7800   -1.2020 h1        1 SPZ      0.058700
     20 H1A        -8.1360    1.3820    0.4930 hc        1 SPZ      0.038700
     21 H1AA       -7.7730    1.4390   -1.2800 hc        1 SPZ      0.038700
     22 H1AB       -8.9310    0.2070   -0.6350 hc        1 SPZ      0.038700
     23 H1D        -5.4800    1.3890   -0.7820 hc        1 SPZ      0.048700
     24 H1DA       -5.6210    1.1420    1.0040 hc        1 SPZ      0.048700
     25 H1E        -4.3480   -1.0060    0.8560 h1        1 SPZ      0.032200
     26 H1EA       -4.3180   -0.8860   -0.9560 h1        1 SPZ      0.032200
     27 HN1F       -3.0500    1.2420   -0.5110 hn        1 SPZ      0.353300
     28 H1G        -1.8590   -1.0340    0.8950 h1        1 SPZ      0.029450
     29 H1GA       -1.9250   -0.9940   -0.9190 h1        1 SPZ      0.029450
     30 H1H        -0.6010    1.1600   -0.9190 hc        1 SPZ      0.047450
     31 H1HA       -0.5200    1.1110    0.8860 hc        1 SPZ      0.047450
     32 H1I         0.5990   -1.1460    0.7690 hc        1 SPZ      0.047450
     33 H1IA        0.5210   -1.0910   -1.0360 hc        1 SPZ      0.047450
     34 H1J         1.8620    1.0540   -1.0340 h1        1 SPZ      0.029450
     35 H1JA        1.9230    1.0060    0.7800 h1        1 SPZ      0.029450
     36 HN1K        3.0460   -1.2370    0.3540 hn        1 SPZ      0.353300
     37 H1L         4.3870    0.9820   -1.0080 h1        1 SPZ      0.032200
     38 H1LA        4.2820    0.9320    0.8050 h1        1 SPZ      0.032200
     39 H1M         5.5500   -1.2000    0.8760 hc        1 SPZ      0.048700
     40 H1MA        5.5200   -1.3340   -0.9260 hc        1 SPZ      0.048700
     41 H1N         6.7530    0.8610   -1.1170 h1        1 SPZ      0.058700
     42 H1P         7.8310   -1.3420   -1.3120 hc        1 SPZ      0.038700
     43 H1PA        8.9630   -0.1910   -0.4860 hc        1 SPZ      0.038700
     44 H1PB        8.0860   -1.4500    0.4800 hc        1 SPZ      0.038700
     45 HN1O        6.2930    1.7440    1.0430 hn        1 SPZ      0.346050
     46 HN1C        7.2620    0.6470    1.7590 hn        1 SPZ      0.346050
@<TRIPOS>BOND
     1    1    2 1   
     2    1   17 1   
     3    1   18 1   
     4    2    3 1   
     5    2    4 1   
     6    2   19 1   
     7    3   20 1   
     8    3   21 1   
     9    3   22 1   
    10    4    5 1   
    11    4   23 1   
    12    4   24 1   
    13    5    6 1   
    14    5   25 1   
    15    5   26 1   
    16    6    7 1   
    17    6   27 1   
    18    7    8 1   
    19    7   28 1   
    20    7   29 1   
    21    8    9 1   
    22    8   30 1   
    23    8   31 1   
    24    9   10 1   
    25    9   32 1   
    26    9   33 1   
    27   10   11 1   
    28   10   34 1   
    29   10   35 1   
    30   11   12 1   
    31   11   36 1   
    32   12   13 1   
    33   12   37 1   
    34   12   38 1   
    35   13   14 1   
    36   13   39 1   
    37   13   40 1   
    38   14   15 1   
    39   14   16 1   
    40   14   41 1   
    41   15   42 1   
    42   15   43 1   
    43   15   44 1   
    44   16   45 1   
    45   16   46 1   
@<TRIPOS>SUBSTRUCTURE
     1 SPZ         1 TEMP              0 ****  ****    0 ROOT
