@<TRIPOS>MOLECULE
SPZ
   50    49     1     0     0
SMALL
bcc


@<TRIPOS>ATOM
      1 N1B         1.1370   -0.0260    1.5690 n4        1 SPZ     -0.845600
      2 C1C         1.0920    0.0360    0.0630 c3        1 SPZ      0.140500
      3 C1A         1.8570    1.2580   -0.4320 c3        1 SPZ     -0.152100
      4 C1D         1.6390   -1.2600   -0.5680 c3        1 SPZ     -0.138400
      5 C1E         1.2640   -1.3150   -2.0510 c3        1 SPZ      0.110800
      6 N1F         1.7640   -2.5540   -2.7350 n4        1 SPZ     -0.765000
      7 C1G         1.4020   -2.5720   -4.1920 c3        1 SPZ      0.107800
      8 C1H         1.9060   -3.8210   -4.9210 c3        1 SPZ     -0.106400
      9 C1I         1.5040   -3.7600   -6.3880 c3        1 SPZ     -0.106400
     10 C1J         2.0120   -5.0070   -7.1180 c3        1 SPZ      0.107800
     11 N1K         1.6590   -5.0210   -8.5770 n4        1 SPZ     -0.765000
     12 C1L         2.1770   -6.2490   -9.2650 c3        1 SPZ      0.110800
     13 C1M         1.8490   -6.2790  -10.7610 c3        1 SPZ     -0.138400
     14 C1N         2.4100   -7.5660  -11.3950 c3        1 SPZ      0.140500
     15 C1P         3.9330   -7.5260  -11.4750 c3        1 SPZ     -0.152100
     16 N1O         1.8280   -7.8010  -12.7660 n4        1 SPZ     -0.845600
     17 HN1B        0.5970   -0.8240    1.9220 hn        1 SPZ      0.480800
     18 HN1A        2.1070   -0.1030    1.8990 hn        1 SPZ      0.480800
     19 H1C        -0.0060    0.1460   -0.2060 hx        1 SPZ      0.123700
     20 H1A         2.9580    1.1540   -0.2640 hc        1 SPZ      0.098033
     21 H1AA        1.5080    2.1970    0.0740 hc        1 SPZ      0.098033
     22 H1AB        1.6690    1.3930   -1.5260 hc        1 SPZ      0.098033
     23 H1D         2.7570   -1.2850   -0.4470 hc        1 SPZ      0.094200
     24 H1DA        1.2120   -2.1570   -0.0400 hc        1 SPZ      0.094200
     25 H1E         0.1410   -1.2880   -2.1690 hx        1 SPZ      0.126200
     26 H1EA        1.7070   -0.4260   -2.5930 hx        1 SPZ      0.126200
     27 HN1F        2.7880   -2.6050   -2.6390 hn        1 SPZ      0.464300
     28 H1G         1.8450   -1.6470   -4.6660 hx        1 SPZ      0.122200
     29 H1GA        0.2770   -2.5120   -4.2650 hx        1 SPZ      0.122200
     30 H1H         1.4710   -4.7450   -4.4520 hc        1 SPZ      0.087700
     31 H1HA        3.0260   -3.8900   -4.8420 hc        1 SPZ      0.087700
     32 H1I         1.9360   -2.8340   -6.8560 hc        1 SPZ      0.087700
     33 H1IA        0.3840   -3.6940   -6.4670 hc        1 SPZ      0.087700
     34 H1J         3.1370   -5.0660   -7.0380 hx        1 SPZ      0.122200
     35 H1JA        1.5670   -5.9340   -6.6500 hx        1 SPZ      0.122200
     36 HN1K        0.6360   -4.9780   -8.6790 hn        1 SPZ      0.464300
     37 H1L         3.2970   -6.2740   -9.1170 hx        1 SPZ      0.126200
     38 H1LA        1.7240   -7.1480   -8.7510 hx        1 SPZ      0.126200
     39 H1M         0.7330   -6.2330  -10.9010 hc        1 SPZ      0.094200
     40 H1MA        2.3000   -5.3870  -11.2760 hc        1 SPZ      0.094200
     41 H1N         2.0910   -8.4590  -10.7700 hx        1 SPZ      0.123700
     42 H1P         4.3430   -8.4310  -11.9960 hc        1 SPZ      0.098033
     43 H1PA        4.2960   -6.6130  -12.0100 hc        1 SPZ      0.098033
     44 H1PB        4.3560   -7.5300  -10.4400 hc        1 SPZ      0.098033
     45 HN1O        2.0930   -7.0430  -13.4070 hn        1 SPZ      0.480800
     46 HN1C        2.2030   -8.6860  -13.1430 hn        1 SPZ      0.480800
     47 H1B3        0.7340    0.8440    1.9520 hn        1 SPZ      0.480800
     48 H1F2        1.3640   -3.3830   -2.2760 hn        1 SPZ      0.464300
     49 H1K2        2.0540   -4.1850   -9.0300 hn        1 SPZ      0.464300
     50 H1O3        0.8050   -7.8660  -12.7270 hn        1 SPZ      0.480800
@<TRIPOS>BOND
     1    1    2 1   
     2    1   17 1   
     3    1   18 1   
     4    1   47 1   
     5    2    3 1   
     6    2    4 1   
     7    2   19 1   
     8    3   20 1   
     9    3   21 1   
    10    3   22 1   
    11    4    5 1   
    12    4   23 1   
    13    4   24 1   
    14    5    6 1   
    15    5   25 1   
    16    5   26 1   
    17    6    7 1   
    18    6   27 1   
    19    6   48 1   
    20    7    8 1   
    21    7   28 1   
    22    7   29 1   
    23    8    9 1   
    24    8   30 1   
    25    8   31 1   
    26    9   10 1   
    27    9   32 1   
    28    9   33 1   
    29   10   11 1   
    30   10   34 1   
    31   10   35 1   
    32   11   12 1   
    33   11   36 1   
    34   11   49 1   
    35   12   13 1   
    36   12   37 1   
    37   12   38 1   
    38   13   14 1   
    39   13   39 1   
    40   13   40 1   
    41   14   15 1   
    42   14   16 1   
    43   14   41 1   
    44   15   42 1   
    45   15   43 1   
    46   15   44 1   
    47   16   45 1   
    48   16   46 1   
    49   16   50 1   
@<TRIPOS>SUBSTRUCTURE
     1 SPZ         1 TEMP              0 ****  ****    0 ROOT
