@<TRIPOS>MOLECULE
SPZ
   50    49     1     0     0
SMALL
bcc


@<TRIPOS>ATOM
      1 N1B         1.1390   -0.0200    1.5660 n4        1 SPZ     -0.845600
      2 C1C         1.0940    0.0420    0.0600 c3        1 SPZ      0.140500
      3 C1A         1.8610    1.2630   -0.4350 c3        1 SPZ     -0.152100
      4 C1D         1.6400   -1.2550   -0.5700 c3        1 SPZ     -0.138400
      5 C1E         1.2680   -1.3100   -2.0540 c3        1 SPZ      0.110800
      6 N1F         1.7650   -2.5500   -2.7370 n4        1 SPZ     -0.765000
      7 C1G         1.4060   -2.5680   -4.1940 c3        1 SPZ      0.107800
      8 C1H         1.9060   -3.8200   -4.9210 c3        1 SPZ     -0.106400
      9 C1I         1.5070   -3.7570   -6.3890 c3        1 SPZ     -0.106400
     10 C1J         2.0100   -5.0080   -7.1170 c3        1 SPZ      0.107800
     11 N1K         1.6610   -5.0200   -8.5770 n4        1 SPZ     -0.765000
     12 C1L         2.1730   -6.2530   -9.2630 c3        1 SPZ      0.110800
     13 C1M         1.8490   -6.2810  -10.7600 c3        1 SPZ     -0.138400
     14 C1N         2.4030   -7.5730  -11.3910 c3        1 SPZ      0.140500
     15 C1P         3.9260   -7.5450  -11.4650 c3        1 SPZ     -0.152100
     16 N1O         1.8240   -7.8030  -12.7640 n4        1 SPZ     -0.845600
     17 HN1B        0.5980   -0.8170    1.9190 hn        1 SPZ      0.480800
     18 HN1A        0.7370    0.8500    1.9490 hn        1 SPZ      0.480800
     19 H1C        -0.0030    0.1530   -0.2100 hx        1 SPZ      0.123700
     20 H1A         2.9620    1.1570   -0.2690 hc        1 SPZ      0.098033
     21 H1AA        1.5130    2.2020    0.0700 hc        1 SPZ      0.098033
     22 H1AB        1.6730    1.3970   -1.5300 hc        1 SPZ      0.098033
     23 H1D         2.7580   -1.2820   -0.4480 hc        1 SPZ      0.094200
     24 H1DA        1.2110   -2.1520   -0.0420 hc        1 SPZ      0.094200
     25 H1E         1.7140   -0.4230   -2.5950 hx        1 SPZ      0.126200
     26 H1EA        0.1450   -1.2790   -2.1740 hx        1 SPZ      0.126200
     27 HN1F        1.3610   -3.3780   -2.2770 hn        1 SPZ      0.464300
     28 H1G         0.2810   -2.5040   -4.2690 hx        1 SPZ      0.122200
     29 H1GA        1.8530   -1.6450   -4.6670 hx        1 SPZ      0.122200
     30 H1H         1.4660   -4.7420   -4.4520 hc        1 SPZ      0.087700
     31 H1HA        3.0250   -3.8940   -4.8400 hc        1 SPZ      0.087700
     32 H1I         1.9450   -2.8340   -6.8570 hc        1 SPZ      0.087700
     33 H1IA        0.3880   -3.6870   -6.4710 hc        1 SPZ      0.087700
     34 H1J         3.1350   -5.0730   -7.0340 hx        1 SPZ      0.122200
     35 H1JA        1.5600   -5.9320   -6.6500 hx        1 SPZ      0.122200
     36 HN1K        2.0630   -4.1880   -9.0300 hn        1 SPZ      0.464300
     37 H1L         1.7120   -7.1470   -8.7500 hx        1 SPZ      0.126200
     38 H1LA        3.2930   -6.2850   -9.1110 hx        1 SPZ      0.126200
     39 H1M         0.7350   -6.2260  -10.9040 hc        1 SPZ      0.094200
     40 H1MA        2.3100   -5.3920  -11.2740 hc        1 SPZ      0.094200
     41 H1N         2.0750   -8.4630  -10.7670 hx        1 SPZ      0.123700
     42 H1P         4.3310   -8.4530  -11.9850 hc        1 SPZ      0.098033
     43 H1PA        4.3460   -7.5530  -10.4290 hc        1 SPZ      0.098033
     44 H1PB        4.2990   -6.6350  -11.9990 hc        1 SPZ      0.098033
     45 HN1O        2.1940   -8.6910  -13.1390 hn        1 SPZ      0.480800
     46 HN1C        0.8010   -7.8600  -12.7290 hn        1 SPZ      0.480800
     47 H1B3        2.1090   -0.0970    1.8970 hn        1 SPZ      0.480800
     48 H1F2        2.7880   -2.6050   -2.6380 hn        1 SPZ      0.464300
     49 H1K2        0.6390   -4.9710   -8.6820 hn        1 SPZ      0.464300
     50 H1O3        2.0980   -7.0480  -13.4050 hn        1 SPZ      0.480800
@<TRIPOS>BOND
     1    1    2 1   
     2    1   17 1   
     3    1   18 1   
     4    1   47 1   
     5    2    3 1   
     6    2    4 1   
     7    2   19 1   
     8    3   20 1   
     9    3   21 1   
    10    3   22 1   
    11    4    5 1   
    12    4   23 1   
    13    4   24 1   
    14    5    6 1   
    15    5   25 1   
    16    5   26 1   
    17    6    7 1   
    18    6   27 1   
    19    6   48 1   
    20    7    8 1   
    21    7   28 1   
    22    7   29 1   
    23    8    9 1   
    24    8   30 1   
    25    8   31 1   
    26    9   10 1   
    27    9   32 1   
    28    9   33 1   
    29   10   11 1   
    30   10   34 1   
    31   10   35 1   
    32   11   12 1   
    33   11   36 1   
    34   11   49 1   
    35   12   13 1   
    36   12   37 1   
    37   12   38 1   
    38   13   14 1   
    39   13   39 1   
    40   13   40 1   
    41   14   15 1   
    42   14   16 1   
    43   14   41 1   
    44   15   42 1   
    45   15   43 1   
    46   15   44 1   
    47   16   45 1   
    48   16   46 1   
    49   16   50 1   
@<TRIPOS>SUBSTRUCTURE
     1 SPZ         1 TEMP              0 ****  ****    0 ROOT
