@<TRIPOS>MOLECULE
SQ
   23    23     1     0     0
SMALL
bcc


@<TRIPOS>ATOM
      1 O1          2.3810   -0.0780    0.5010 o         1 SQ      -0.445100
      2 O2          1.2890   -0.2530   -2.5390 o         1 SQ      -0.445100
      3 N1         -0.7430    0.1460    1.4580 n3        1 SQ      -0.798200
      4 N2         -1.7370   -0.0090   -1.3230 n3        1 SQ      -0.798200
      5 C1         -0.0100    0.8150    0.4320 cy        1 SQ       0.089500
      6 C2          1.3420    0.2220   -0.0530 c         1 SQ       0.417100
      7 C3          0.8290    0.1410   -1.4860 c         1 SQ       0.417100
      8 C4         -0.5450    0.7330   -1.0630 cy        1 SQ       0.087500
      9 C6         -0.1530    0.2710    2.7810 c3        1 SQ       0.159800
     10 C7         -0.7870   -0.6530    3.8070 c3        1 SQ      -0.100100
     11 H1         -0.9230   -0.8120    1.2300 hn        1 SQ       0.366800
     12 H3         -1.6830   -0.9410   -0.9580 hn        1 SQ       0.368800
     13 H2          0.1270    1.8910    0.7270 h1        1 SQ       0.097700
     14 H4         -0.6630    1.7700   -1.4790 h1        1 SQ       0.097700
     15 H10        -3.0880   -0.6270   -2.7850 h1        1 SQ       0.041033
     16 H11        -2.3880    1.0410   -3.0160 h1        1 SQ       0.041033
     17 H12        -1.3800   -0.4260   -3.4040 h1        1 SQ       0.041033
     18 H5         -0.3000    1.3400    3.1070 h1        1 SQ       0.041200
     19 H6          0.9610    0.0750    2.7570 h1        1 SQ       0.041200
     20 H7         -0.3190   -0.4590    4.8010 hc        1 SQ       0.043367
     21 H8         -1.8860   -0.4720    3.8880 hc        1 SQ       0.043367
     22 H9         -0.6230   -1.7250    3.5410 hc        1 SQ       0.043367
     23 C5         -2.1550   -0.0110   -2.7010 c3        1 SQ       0.149100
@<TRIPOS>BOND
     1    1    6 2   
     2    2    7 2   
     3    3    5 1   
     4    3    9 1   
     5    3   11 1   
     6    4    8 1   
     7    4   12 1   
     8    4   23 1   
     9    5    6 1   
    10    5    8 1   
    11    5   13 1   
    12    6    7 1   
    13    7    8 1   
    14    8   14 1   
    15    9   10 1   
    16    9   18 1   
    17    9   19 1   
    18   10   20 1   
    19   10   21 1   
    20   10   22 1   
    21   15   23 1   
    22   16   23 1   
    23   17   23 1   
@<TRIPOS>SUBSTRUCTURE
     1 SQ          1 TEMP              0 ****  ****    0 ROOT
