@<TRIPOS>MOLECULE
SQ
   25    23     1     0     0
SMALL
bcc


@<TRIPOS>ATOM
      1 O1          1.9340   -0.1400    1.5510 oh        1 SQ      -0.228000
      2 O2          4.3370    0.9970   -0.7450 o         1 SQ      -0.211000
      3 N1          2.3670    2.7830    2.5790 n4        1 SQ       0.057000
      4 N2          4.0720   -1.6290   -1.6660 n4        1 SQ      -0.115000
      5 C1          3.0100    2.0710    1.4900 c2        1 SQ      -0.243000
      6 C2          2.7900    0.8000    1.0710 c2        1 SQ       0.074000
      7 C3          3.5630    0.2850   -0.1070 c2        1 SQ       0.255000
      8 C4          3.3340   -1.1770   -0.4370 c3        1 SQ      -0.158000
      9 C6          2.0300    1.9640    3.7450 c2        1 SQ      -0.276000
     10 C7          0.8760    2.0680    4.4140 c2        1 SQ      -0.074000
     11 H1          5.5060    3.0400   -0.1070 ha        1 SQ       0.002000
     12 H3          5.7710    3.0820   -0.7300 ha        1 SQ       0.002000
     13 H2          3.7650    2.6950    0.9500 hx        1 SQ       0.240000
     14 H4          3.6800   -1.8030    0.4470 hx        1 SQ       0.205000
     15 H10         2.2280   -1.3640   -0.5830 hx        1 SQ       0.205000
     16 H11         3.4600   -1.5070   -2.4890 hn        1 SQ       0.275000
     17 H12         4.6990   -3.5520   -2.3910 hx        1 SQ       0.113000
     18 H5          3.0250    3.5190    2.8980 hn        1 SQ       0.274000
     19 H6          1.4750    0.1760    2.3500 ho        1 SQ       0.267000
     20 H7          2.8720    1.3130    4.0610 hx        1 SQ       0.210000
     21 H8          0.7080    1.4530    5.3190 ha        1 SQ       0.187500
     22 H9          0.0410    2.7380    4.1480 ha        1 SQ       0.187500
     23 H121        1.5230    3.2530    2.2120 hn        1 SQ       0.274000
     24 H22         4.8920   -0.9910   -1.8040 hn        1 SQ       0.275000
     25 C5          4.6150   -2.9520   -1.4530 c1        1 SQ       0.203000
@<TRIPOS>BOND
     1    1    6 1   
     2    1   19 1   
     3    2    7 1   
     4    3    5 1   
     5    3    9 1   
     6    3   18 1   
     7    3   23 1   
     8    4    8 1   
     9    4   16 1   
    10    4   24 1   
    11    4   25 1   
    12    5    6 1   
    13    5   13 1   
    14    6    7 1   
    15    7    8 1   
    16    8   14 1   
    17    8   15 1   
    18    9   10 1   
    19    9   20 1   
    20   10   21 1   
    21   10   22 1   
    22   11   12 1   
    23   17   25 1   
@<TRIPOS>SUBSTRUCTURE
     1 SQ          1 TEMP              0 ****  ****    0 ROOT
