@<TRIPOS>MOLECULE
SQ
   25    22     1     0     0
SMALL
bcc


@<TRIPOS>ATOM
      1 O1          1.7220   -0.7710   -0.2040 o         1 SQ      -0.181000
      2 O2          5.0730    0.2400   -0.3650 o         1 SQ      -0.148000
      3 N1          1.5000    1.1960    1.8050 n4        1 SQ      -0.080000
      4 N2          5.1010   -1.8450   -2.3270 n3        1 SQ      -0.074000
      5 C1          2.8060    0.9050    1.1690 c3        1 SQ      -0.186000
      6 C2          2.7440   -0.1590    0.0910 c2        1 SQ       0.187000
      7 C3          4.0650   -0.4190   -0.6020 c2        1 SQ       0.191000
      8 C4          4.0470   -1.5330   -1.6020 c2        1 SQ      -0.055000
      9 C6          1.5570    2.7880    4.5430 c2        1 SQ      -0.248000
     10 C7          1.2800    3.7600    3.6750 c2        1 SQ      -0.248000
     11 H1          0.8340    1.5540    1.1090 hn        1 SQ       0.277000
     12 H3          5.4260    1.6550    1.5420 ha        1 SQ       0.001000
     13 H2          3.2200    1.8610    0.7170 hx        1 SQ       0.200500
     14 H4          3.5400    0.5680    1.9680 hx        1 SQ       0.200500
     15 H10         3.1060   -2.1290   -1.6820 h4        1 SQ       0.243000
     16 H11         5.9660   -1.2920   -2.1860 hn        1 SQ       0.336000
     17 H12         4.9520   -3.1520   -4.0730 ha        1 SQ       0.200000
     18 H5          1.6180    1.9150    2.5660 hn        1 SQ       0.277000
     19 H6          0.7740    2.1900    5.0340 ha        1 SQ       0.137250
     20 H7          2.5780    2.5900    4.9050 ha        1 SQ       0.137250
     21 H8          0.2500    4.0260    3.3900 ha        1 SQ       0.137250
     22 H9          2.0540    4.4260    3.2610 ha        1 SQ       0.137250
     23 H121        1.1030    0.3400    2.2140 hn        1 SQ       0.277000
     24 H22         6.0910    1.7810    1.4960 ha        1 SQ       0.001000
     25 C5          5.3440   -2.9890   -3.0430 c1        1 SQ       0.279000
@<TRIPOS>BOND
     1    1    6 1   
     2    2    7 1   
     3    3    5 1   
     4    3   11 1   
     5    3   18 1   
     6    3   23 1   
     7    4    8 1   
     8    4   16 1   
     9    4   25 1   
    10    5    6 1   
    11    5   13 1   
    12    5   14 1   
    13    6    7 1   
    14    7    8 1   
    15    8   15 1   
    16    9   10 1   
    17    9   19 1   
    18    9   20 1   
    19   10   21 1   
    20   10   22 1   
    21   12   24 1   
    22   17   25 1   
@<TRIPOS>SUBSTRUCTURE
     1 SQ          1 TEMP              0 ****  ****    0 ROOT
