@<TRIPOS>MOLECULE
SQ
   25    23     1     0     0
SMALL
bcc


@<TRIPOS>ATOM
      1 O1         32.6920  -55.4430  -56.5670 o         1 SQ      -0.107000
      2 O2         33.7570  -54.1330  -59.3930 o         1 SQ      -0.128000
      3 N1        -49.3560  101.5160  107.2890 n8        1 SQ      -0.378000
      4 N2         33.8850  -57.0530  -60.6140 ny        1 SQ      -0.088000
      5 C1         32.4190  -57.1020  -58.4640 cy        1 SQ      -0.219000
      6 C2         32.7590  -55.8130  -57.7130 cv        1 SQ       0.217000
      7 C3         33.2300  -55.1450  -59.0040 cv        1 SQ       0.174000
      8 C4         32.8090  -56.4320  -59.8100 cy        1 SQ      -0.257000
      9 C6        -50.0900  101.9930  108.4030 c3        1 SQ      -0.140000
     10 C7        -49.3600  102.6830  109.4330 c2        1 SQ       0.228000
     11 H1         30.1630  -54.5110  -58.8580 ha        1 SQ       0.001000
     12 H3         34.5410  -57.5710  -59.9930 hn        1 SQ       0.302000
     13 H2         33.0350  -57.9720  -58.1450 hc        1 SQ       0.163000
     14 H4         31.3360  -57.3620  -58.4030 hc        1 SQ       0.163000
     15 H10        31.9220  -56.2280  -60.4690 hx        1 SQ       0.183000
     16 H11        32.4630  -58.0730  -61.8770 hx        1 SQ       0.101000
     17 H12        34.4480  -56.2920  -61.0580 hn        1 SQ       0.302000
     18 H5        -48.8830  102.2090  106.7510 hn        1 SQ       0.224000
     19 H6        -50.9440  102.7490  108.1570 h1        1 SQ       0.228500
     20 H7        -50.6770  101.1250  108.8800 h1        1 SQ       0.228500
     21 H8        -49.8710  102.9550  110.3780 ha        1 SQ       0.193000
     22 H9        -48.3040  102.9980  109.3100 ha        1 SQ       0.193000
     23 H121      -49.8460  100.8480  106.7330 hn        1 SQ       0.224000
     24 H22        30.7070  -54.9120  -58.9230 ha        1 SQ       0.001000
     25 C5         33.5530  -57.9560  -61.6760 c1        1 SQ       0.192000
@<TRIPOS>BOND
     1    1    6 1   
     2    2    7 1   
     3    3    9 1   
     4    3   18 1   
     5    3   23 1   
     6    4    8 1   
     7    4   12 1   
     8    4   17 1   
     9    4   25 1   
    10    5    6 1   
    11    5    8 1   
    12    5   13 1   
    13    5   14 1   
    14    6    7 1   
    15    7    8 1   
    16    8   15 1   
    17    9   10 1   
    18    9   19 1   
    19    9   20 1   
    20   10   21 1   
    21   10   22 1   
    22   11   24 1   
    23   16   25 1   
@<TRIPOS>SUBSTRUCTURE
     1 SQ          1 TEMP              0 ****  ****    0 ROOT
