@<TRIPOS>MOLECULE
SQ9
   54    57     1     0     0
SMALL
bcc


@<TRIPOS>ATOM
      1 N1          0.0910    0.4110   -0.3150 nb        1 SQ9     -0.801000
      2 C2          1.4860    0.6260   -0.3100 ca        1 SQ9      0.918900
      3 N2          2.0980    0.6710   -1.5540 nh        1 SQ9     -0.935500
      4 N3          2.2990    0.7510    0.8020 nb        1 SQ9     -0.731000
      5 C4          1.6520    0.6110    1.9910 ca        1 SQ9      0.612300
      6 C5          0.2170    0.3620    2.0860 ca        1 SQ9     -0.386800
      7 C6         -0.5170    0.2760    0.8690 ca        1 SQ9      0.736600
      8 O6         -1.8630    0.0580    1.0060 os        1 SQ9     -0.457100
      9 N7         -0.0980    0.2790    3.4370 na        1 SQ9     -0.220300
     10 C8          1.1130    0.4660    4.1260 cc        1 SQ9      0.422400
     11 N9          2.1780    0.6720    3.3030 nd        1 SQ9     -0.625700
     12 CAK        -2.6490   -0.0250   -0.2060 c3        1 SQ9      0.140400
     13 CAL        -4.0810   -0.2770    0.2520 c3        1 SQ9     -0.072700
     14 CAM         1.1840    0.4930    5.5930 ca        1 SQ9     -0.128900
     15 CAO         0.3350    1.3720    7.6880 ca        1 SQ9     -0.147000
     16 CAP        -5.0360    0.0620   -0.8850 c3        1 SQ9     -0.073400
     17 CAQ        -6.4710   -0.2090   -0.4830 c3        1 SQ9     -0.076400
     18 CAR        -6.6590   -1.6390   -0.0220 c3        1 SQ9     -0.079400
     19 CAS        -5.7000   -1.9860    1.0990 c3        1 SQ9     -0.076400
     20 CAT        -4.2650   -1.7200    0.6950 c3        1 SQ9     -0.073400
     21 CAU         0.2670    1.2830    6.2910 ca        1 SQ9      0.012000
     22 CAV         1.3330    0.7050    8.3660 ca        1 SQ9     -0.009000
     23 CAW         2.2970   -0.0920    7.6890 ca        1 SQ9     -0.559500
     24 CAX         2.1900   -0.2160    6.2800 ca        1 SQ9      0.140700
     25 CAY         3.1280   -1.0770    5.5240 c3        1 SQ9     -0.112800
     26 SAZ         3.4900   -0.6800    8.5820 sy        1 SQ9      1.490200
     27 OBA         3.4560   -0.3010    9.9090 o         1 SQ9     -0.565800
     28 NBB         2.8170   -2.4840    8.7600 n4        1 SQ9     -0.785500
     29 OBC         4.6900   -0.9450    7.9640 o         1 SQ9     -0.565800
     30 HN2         3.0390    0.9840   -1.6040 hn        1 SQ9      0.448800
     31 HN2A        1.5280    0.7630   -2.3600 hn        1 SQ9      0.448800
     32 HN7        -0.9920    0.1030    3.8130 hn        1 SQ9      0.319700
     33 HAK        -2.2630   -0.8650   -0.8390 h1        1 SQ9      0.063700
     34 HAKA       -2.5640    0.9460   -0.7580 h1        1 SQ9      0.063700
     35 HAL        -4.3030    0.3990    1.1260 hc        1 SQ9      0.061700
     36 HAO        -0.3960    1.9920    8.2350 ha        1 SQ9      0.179000
     37 HAP        -4.9220    1.1420   -1.1640 hc        1 SQ9      0.043950
     38 HAPA       -4.7740   -0.5520   -1.7860 hc        1 SQ9      0.043950
     39 HAQ        -7.1450   -0.0040   -1.3560 hc        1 SQ9      0.042950
     40 HAQA       -6.7670    0.4920    0.3420 hc        1 SQ9      0.042950
     41 HAR        -6.4920   -2.3360   -0.8850 hc        1 SQ9      0.046200
     42 HARA       -7.7140   -1.7850    0.3280 hc        1 SQ9      0.046200
     43 HAS        -5.9530   -1.3800    2.0080 hc        1 SQ9      0.042950
     44 HASA       -5.8170   -3.0670    1.3720 hc        1 SQ9      0.042950
     45 HAT        -3.9780   -2.4080   -0.1430 hc        1 SQ9      0.043950
     46 HATA       -3.5790   -1.9310    1.5560 hc        1 SQ9      0.043950
     47 HAU        -0.5060    1.8540    5.7460 ha        1 SQ9      0.174000
     48 HAV         1.4030    0.8130    9.4670 ha        1 SQ9      0.176000
     49 HAY         3.9510   -0.4450    5.0880 hc        1 SQ9      0.089367
     50 HAYA        2.6110   -1.5850    4.6690 hc        1 SQ9      0.089367
     51 HAYB        3.5990   -1.8660    6.1590 hc        1 SQ9      0.089367
     52 HNBB        2.6520   -2.7000    9.7410 hn        1 SQ9      0.454133
     53 HNBA        1.9480   -2.6250    8.2560 hn        1 SQ9      0.454133
     54 HBB3        3.5000   -3.1510    8.4040 hn        1 SQ9      0.454133
@<TRIPOS>BOND
     1    1    2 ar  
     2    1    7 ar  
     3    2    3 1   
     4    2    4 ar  
     5    3   30 1   
     6    3   31 1   
     7    4    5 ar  
     8    5    6 ar  
     9    5   11 1   
    10    6    7 ar  
    11    6    9 1   
    12    7    8 1   
    13    8   12 1   
    14    9   10 1   
    15    9   32 1   
    16   10   11 2   
    17   10   14 1   
    18   12   13 1   
    19   12   33 1   
    20   12   34 1   
    21   13   16 1   
    22   13   20 1   
    23   13   35 1   
    24   14   21 ar  
    25   14   24 ar  
    26   15   21 ar  
    27   15   22 ar  
    28   15   36 1   
    29   16   17 1   
    30   16   37 1   
    31   16   38 1   
    32   17   18 1   
    33   17   39 1   
    34   17   40 1   
    35   18   19 1   
    36   18   41 1   
    37   18   42 1   
    38   19   20 1   
    39   19   43 1   
    40   19   44 1   
    41   20   45 1   
    42   20   46 1   
    43   21   47 1   
    44   22   23 ar  
    45   22   48 1   
    46   23   24 ar  
    47   23   26 1   
    48   24   25 1   
    49   25   49 1   
    50   25   50 1   
    51   25   51 1   
    52   26   27 2   
    53   26   28 1   
    54   26   29 2   
    55   28   52 1   
    56   28   53 1   
    57   28   54 1   
@<TRIPOS>SUBSTRUCTURE
     1 SQ9         1 TEMP              0 ****  ****    0 ROOT
