@<TRIPOS>MOLECULE
SQ9
   53    56     1     0     0
SMALL
bcc


@<TRIPOS>ATOM
      1 N1         -3.0400   -2.7240   -0.4470 nb        1 SQ9     -0.807000
      2 C2         -2.1360   -3.7920   -0.5680 ca        1 SQ9      0.881900
      3 N2         -2.6890   -5.0790   -0.4590 nh        1 SQ9     -0.918500
      4 N3         -0.7690   -3.7070   -0.7210 nb        1 SQ9     -0.717000
      5 C4         -0.2720   -2.4390   -0.6980 ca        1 SQ9      0.605300
      6 C5         -1.1310   -1.2650   -0.5430 ca        1 SQ9     -0.380800
      7 C6         -2.5260   -1.4840   -0.4260 ca        1 SQ9      0.718600
      8 O6         -3.2990   -0.3540   -0.3050 os        1 SQ9     -0.457100
      9 N7         -0.2990   -0.1510   -0.5700 na        1 SQ9     -0.238300
     10 C8          1.0110   -0.6450   -0.7290 cc        1 SQ9      0.483400
     11 N9          1.0690   -2.0000   -0.8150 nd        1 SQ9     -0.627700
     12 CAK        -4.7230   -0.5410   -0.1700 c3        1 SQ9      0.141400
     13 CAL        -5.3100    0.8600   -0.0310 c3        1 SQ9     -0.072700
     14 CAM         2.1540    0.2740   -0.8260 ca        1 SQ9     -0.162900
     15 CAO         3.1900    2.1450   -1.9490 ca        1 SQ9     -0.167000
     16 CAP        -6.8050    0.8080   -0.3130 c3        1 SQ9     -0.073400
     17 CAQ        -7.4350    2.1760   -0.1480 c3        1 SQ9     -0.075900
     18 CAR        -7.1600    2.7520    1.2260 c3        1 SQ9     -0.078400
     19 CAS        -5.6740    2.7920    1.5180 c3        1 SQ9     -0.075900
     20 CAT        -5.0460    1.4240    1.3570 c3        1 SQ9     -0.073400
     21 CAU         2.1210    1.2620   -1.8140 ca        1 SQ9     -0.047000
     22 CAV         4.2810    2.0330   -1.0950 ca        1 SQ9     -0.016000
     23 CAW         4.3370    1.0500   -0.0950 ca        1 SQ9     -0.380500
     24 CAX         3.2620    0.1530    0.0370 ca        1 SQ9      0.102700
     25 CAY         3.2720   -0.9320    1.0480 c3        1 SQ9     -0.087800
     26 SAZ         5.7490    1.0260    0.8590 sy        1 SQ9      1.523200
     27 OBA         6.6880    1.8920    0.2550 o         1 SQ9     -0.654300
     28 NBB         5.2610    1.6740    2.2410 n3        1 SQ9     -1.027700
     29 OBC         6.1590   -0.3020    1.0810 o         1 SQ9     -0.654300
     30 HN2        -3.6600   -5.1540   -0.6570 hn        1 SQ9      0.423800
     31 HN2A       -2.1210   -5.8230   -0.7970 hn        1 SQ9      0.423800
     32 HN7        -0.5800    0.7870   -0.4670 hn        1 SQ9      0.317700
     33 HAK        -5.1120   -1.0510   -1.0890 h1        1 SQ9      0.058200
     34 HAKA       -4.9330   -1.1670    0.7350 h1        1 SQ9      0.058200
     35 HAL        -4.8190    1.5310   -0.7900 hc        1 SQ9      0.063700
     36 HAO         3.1740    2.9180   -2.7310 ha        1 SQ9      0.147000
     37 HAP        -6.9780    0.4390   -1.3580 hc        1 SQ9      0.044200
     38 HAPA       -7.2920    0.0820    0.3890 hc        1 SQ9      0.044200
     39 HAQ        -7.0300    2.8700   -0.9310 hc        1 SQ9      0.041200
     40 HAQA       -8.5420    2.0970   -0.3080 hc        1 SQ9      0.041200
     41 HAR        -7.5850    3.7870    1.2900 hc        1 SQ9      0.041200
     42 HARA       -7.6760    2.1270    2.0020 hc        1 SQ9      0.041200
     43 HAS        -5.1760    3.5180    0.8220 hc        1 SQ9      0.041200
     44 HASA       -5.5060    3.1590    2.5630 hc        1 SQ9      0.041200
     45 HAT        -5.4630    0.7270    2.1300 hc        1 SQ9      0.044200
     46 HATA       -3.9390    1.4890    1.5210 hc        1 SQ9      0.044200
     47 HAU         1.2580    1.3340   -2.4950 ha        1 SQ9      0.143000
     48 HAV         5.1350    2.7280   -1.2160 ha        1 SQ9      0.168000
     49 HAY         3.5370   -1.9000    0.5440 hc        1 SQ9      0.071367
     50 HAYA        4.0190   -0.7600    1.8600 hc        1 SQ9      0.071367
     51 HAYB        2.2640   -1.0470    1.5200 hc        1 SQ9      0.071367
     52 HNBB        5.2910    2.6440    2.4290 hn        1 SQ9      0.448300
     53 HNBA        4.9290    1.1460    3.0080 hn        1 SQ9      0.448300
@<TRIPOS>BOND
     1    1    2 ar  
     2    1    7 ar  
     3    2    3 1   
     4    2    4 ar  
     5    3   30 1   
     6    3   31 1   
     7    4    5 ar  
     8    5    6 ar  
     9    5   11 1   
    10    6    7 ar  
    11    6    9 1   
    12    7    8 1   
    13    8   12 1   
    14    9   10 1   
    15    9   32 1   
    16   10   11 2   
    17   10   14 1   
    18   12   13 1   
    19   12   33 1   
    20   12   34 1   
    21   13   16 1   
    22   13   20 1   
    23   13   35 1   
    24   14   21 ar  
    25   14   24 ar  
    26   15   21 ar  
    27   15   22 ar  
    28   15   36 1   
    29   16   17 1   
    30   16   37 1   
    31   16   38 1   
    32   17   18 1   
    33   17   39 1   
    34   17   40 1   
    35   18   19 1   
    36   18   41 1   
    37   18   42 1   
    38   19   20 1   
    39   19   43 1   
    40   19   44 1   
    41   20   45 1   
    42   20   46 1   
    43   21   47 1   
    44   22   23 ar  
    45   22   48 1   
    46   23   24 ar  
    47   23   26 1   
    48   24   25 1   
    49   25   49 1   
    50   25   50 1   
    51   25   51 1   
    52   26   27 2   
    53   26   28 1   
    54   26   29 2   
    55   28   52 1   
    56   28   53 1   
@<TRIPOS>SUBSTRUCTURE
     1 SQ9         1 TEMP              0 ****  ****    0 ROOT
