@<TRIPOS>MOLECULE
SQ9
   55    58     1     0     0
SMALL
bcc


@<TRIPOS>ATOM
      1 N1          0.1010    0.3710   -0.3580 nb        1 SQ9     -0.763000
      2 C2          1.4720    0.5820   -0.3120 ca        1 SQ9      0.725900
      3 N2          2.1120    0.7450   -1.6550 n4        1 SQ9     -0.814300
      4 N3          2.3110    0.6640    0.7480 nb        1 SQ9     -0.613000
      5 C4          1.6770    0.5210    1.9560 ca        1 SQ9      0.567300
      6 C5          0.2340    0.2970    2.0470 ca        1 SQ9     -0.299800
      7 C6         -0.5210    0.2260    0.8330 ca        1 SQ9      0.753600
      8 O6         -1.8510    0.0160    0.9680 os        1 SQ9     -0.426100
      9 N7         -0.0700    0.2110    3.3940 na        1 SQ9     -0.206300
     10 C8          1.1480    0.3830    4.0870 cc        1 SQ9      0.479400
     11 N9          2.2140    0.5670    3.2580 nd        1 SQ9     -0.579700
     12 CAK        -2.6690   -0.0530   -0.2360 c3        1 SQ9      0.140400
     13 CAL        -4.0870   -0.3050    0.2620 c3        1 SQ9     -0.074700
     14 CAM         1.2160    0.4340    5.5550 ca        1 SQ9     -0.168900
     15 CAO         0.4480    1.4600    7.6120 ca        1 SQ9     -0.142000
     16 CAP        -5.0720    0.0940   -0.8300 c3        1 SQ9     -0.073400
     17 CAQ        -6.4970   -0.1700   -0.3880 c3        1 SQ9     -0.077400
     18 CAR        -6.6940   -1.6140    0.0240 c3        1 SQ9     -0.082400
     19 CAS        -5.7030   -2.0220    1.0950 c3        1 SQ9     -0.077400
     20 CAT        -4.2780   -1.7640    0.6510 c3        1 SQ9     -0.073400
     21 CAU         0.3520    1.3080    6.2260 ca        1 SQ9      0.018000
     22 CAV         1.4290    0.7760    8.3080 ca        1 SQ9      0.013000
     23 CAW         2.3280   -0.1090    7.6590 ca        1 SQ9     -0.539500
     24 CAX         2.1800   -0.3090    6.2620 ca        1 SQ9      0.147700
     25 CAY         3.0380   -1.2820    5.5480 c3        1 SQ9     -0.110800
     26 SAZ         3.5430   -0.6900    8.5560 sy        1 SQ9      1.479200
     27 OBA         3.6550   -0.0950    9.7940 o         1 SQ9     -0.553300
     28 NBB         2.7530   -2.3530    9.0690 n4        1 SQ9     -0.792500
     29 OBC         4.6420   -1.1490    7.8660 o         1 SQ9     -0.553300
     30 HN2         1.9350   -0.0970   -2.2170 hn        1 SQ9      0.485800
     31 HN2A        1.7000    1.5620   -2.1240 hn        1 SQ9      0.485800
     32 HN7        -0.9710    0.0580    3.7790 hn        1 SQ9      0.344700
     33 HAK        -2.2950   -0.8900   -0.8770 h1        1 SQ9      0.069200
     34 HAKA       -2.5880    0.9270   -0.7720 h1        1 SQ9      0.069200
     35 HAL        -4.2710    0.3380    1.1680 hc        1 SQ9      0.068700
     36 HAO        -0.2390    2.1430    8.1430 ha        1 SQ9      0.191000
     37 HAP        -4.8530   -0.4910   -1.7620 hc        1 SQ9      0.043450
     38 HAPA       -4.9490    1.1820   -1.0710 hc        1 SQ9      0.043450
     39 HAQ        -6.7530    0.5040    0.4720 hc        1 SQ9      0.051450
     40 HAQA       -7.1950    0.0790   -1.2300 hc        1 SQ9      0.051450
     41 HAR        -6.5720   -2.2790   -0.8720 hc        1 SQ9      0.055700
     42 HARA       -7.7380   -1.7550    0.4070 hc        1 SQ9      0.055700
     43 HAS        -5.9130   -1.4500    2.0370 hc        1 SQ9      0.051450
     44 HASA       -5.8270   -3.1120    1.3270 hc        1 SQ9      0.051450
     45 HAT        -3.5670   -2.0220    1.4780 hc        1 SQ9      0.043450
     46 HATA       -4.0350   -2.4210   -0.2250 hc        1 SQ9      0.043450
     47 HAU        -0.3960    1.8980    5.6670 ha        1 SQ9      0.172000
     48 HAV         1.5330    0.9510    9.3990 ha        1 SQ9      0.186000
     49 HAY         3.9660   -0.7670    5.1710 hc        1 SQ9      0.088367
     50 HAYA        3.3590   -2.1270    6.2060 hc        1 SQ9      0.088367
     51 HAYB        2.5090   -1.7240    4.6660 hc        1 SQ9      0.088367
     52 HNBB        1.8200   -2.4870    8.6920 hn        1 SQ9      0.461133
     53 HNBA        3.3310   -3.1340    8.7590 hn        1 SQ9      0.461133
     54 H23         3.1270    0.8840   -1.5490 hn        1 SQ9      0.485800
     55 HBB3        2.6870   -2.4090   10.0870 hn        1 SQ9      0.461133
@<TRIPOS>BOND
     1    1    2 ar  
     2    1    7 ar  
     3    2    3 1   
     4    2    4 ar  
     5    3   30 1   
     6    3   31 1   
     7    3   54 1   
     8    4    5 ar  
     9    5    6 ar  
    10    5   11 1   
    11    6    7 ar  
    12    6    9 1   
    13    7    8 1   
    14    8   12 1   
    15    9   10 1   
    16    9   32 1   
    17   10   11 2   
    18   10   14 1   
    19   12   13 1   
    20   12   33 1   
    21   12   34 1   
    22   13   16 1   
    23   13   20 1   
    24   13   35 1   
    25   14   21 ar  
    26   14   24 ar  
    27   15   21 ar  
    28   15   22 ar  
    29   15   36 1   
    30   16   17 1   
    31   16   37 1   
    32   16   38 1   
    33   17   18 1   
    34   17   39 1   
    35   17   40 1   
    36   18   19 1   
    37   18   41 1   
    38   18   42 1   
    39   19   20 1   
    40   19   43 1   
    41   19   44 1   
    42   20   45 1   
    43   20   46 1   
    44   21   47 1   
    45   22   23 ar  
    46   22   48 1   
    47   23   24 ar  
    48   23   26 1   
    49   24   25 1   
    50   25   49 1   
    51   25   50 1   
    52   25   51 1   
    53   26   27 2   
    54   26   28 1   
    55   26   29 2   
    56   28   52 1   
    57   28   53 1   
    58   28   55 1   
@<TRIPOS>SUBSTRUCTURE
     1 SQ9         1 TEMP              0 ****  ****    0 ROOT
