@<TRIPOS>MOLECULE
SQ9
   53    46     1     0     0
SMALL
bcc


@<TRIPOS>ATOM
      1 N1          1.4200   -0.9310   -3.0810 n1        1 SQ9     -0.282000
      2 C2          2.8380   -0.9640   -3.0330 c1        1 SQ9      0.163000
      3 N2          3.5130   -1.1470   -4.2520 n3        1 SQ9     -0.317000
      4 N3          3.4950   -0.8770   -1.8190 n1        1 SQ9     -0.193000
      5 C4          2.7860   -0.7610   -0.6680 c1        1 SQ9     -0.073500
      6 C5          1.3730   -0.7280   -0.7120 c1        1 SQ9     -0.073500
      7 C6          0.7100   -0.8160   -1.9440 c1        1 SQ9      0.222000
      8 O6         -0.4570   -0.0450   -2.4110 os        1 SQ9     -0.213000
      9 N7          0.9120   -0.6050    0.5760 n1        1 SQ9     -0.156500
     10 C8          1.9910   -0.5610    1.4080 c1        1 SQ9      0.070000
     11 N9          3.1610   -0.6590    0.6200 n1        1 SQ9     -0.156500
     12 CAK        -1.4280   -0.7840   -2.9040 c3        1 SQ9     -0.009000
     13 CAL        -2.6500    0.0770   -3.1020 c3        1 SQ9     -0.110000
     14 CAM         2.1970    0.3670    2.6020 c1        1 SQ9     -0.065000
     15 CAO         2.0950    2.5820    3.5350 c1        1 SQ9     -0.168000
     16 CAP        -2.9490    0.1640   -4.5200 c3        1 SQ9     -0.151000
     17 CAQ        -4.3830    0.1270   -4.7700 c3        1 SQ9     -0.153500
     18 CAR        -5.3590    0.7550   -3.9830 c3        1 SQ9     -0.155000
     19 CAS        -5.0340    0.6470   -2.5110 c3        1 SQ9     -0.153500
     20 CAT        -3.9570   -0.5620   -2.1720 c3        1 SQ9     -0.151000
     21 CAU         2.0680    1.7550    2.4370 c2        1 SQ9     -0.022000
     22 CAV         2.2510    2.0390    4.8200 c1        1 SQ9     -0.010000
     23 CAW         2.3780    0.6750    4.9860 c1        1 SQ9     -0.815000
     24 CAX         2.3520   -0.1680    3.8750 c1        1 SQ9      0.079000
     25 CAY         2.5610   -1.7060    4.0530 c3        1 SQ9     -0.233000
     26 SAZ         2.6050   -0.0010    6.6290 s4        1 SQ9      2.076800
     27 OBA         3.8250   -0.9780    6.6840 o         1 SQ9     -0.542900
     28 NBB         2.7690    1.2290    7.7220 n2        1 SQ9     -0.956000
     29 OBC         1.4870   -0.9090    7.0020 o         1 SQ9     -0.542900
     30 HN2         3.0650   -1.1770   -4.9970 hn        1 SQ9      0.218000
     31 HN2A        4.3550   -1.2590   -4.2580 hn        1 SQ9      0.218000
     32 HN7         0.1510   -0.5650    0.7970 DU        1 SQ9      0.272000
     33 HAK        -1.6190   -1.4520   -2.3250 h1        1 SQ9      0.097000
     34 HAKA       -1.1330   -1.1820   -3.8100 h1        1 SQ9      0.097000
     35 HAL        -2.4430    1.0020   -2.7650 hc        1 SQ9      0.104000
     36 HAO         2.0050    3.5670    3.4200 ha        1 SQ9      0.146000
     37 HAP        -2.5730    1.0220   -4.8810 hc        1 SQ9      0.082750
     38 HAPA       -2.5330   -0.5750   -4.9740 hc        1 SQ9      0.082750
     39 HAQ        -4.5170    0.5010   -5.7550 hc        1 SQ9      0.080250
     40 HAQA       -4.6370   -0.8500   -4.7930 hc        1 SQ9      0.080250
     41 HAR        -5.4070    1.7630   -4.2470 hc        1 SQ9      0.079000
     42 HARA       -6.2100    0.3450   -4.1490 hc        1 SQ9      0.079000
     43 HAS        -4.6760    1.4500   -2.2260 hc        1 SQ9      0.080250
     44 HASA       -5.9030    0.4710   -1.9910 hc        1 SQ9      0.080250
     45 HAT        -3.7290   -0.5990   -1.1800 hc        1 SQ9      0.082750
     46 HATA       -4.2690   -1.4550   -2.5280 hc        1 SQ9      0.082750
     47 HAU         1.9600    2.1360    1.5390 ha        1 SQ9      0.161000
     48 HAV         2.2710    2.6460    5.6240 ha        1 SQ9      0.135000
     49 HAY         1.7820   -2.1160    4.7830 hc        1 SQ9      0.114333
     50 HAYA        3.4900   -1.8810    4.4200 hc        1 SQ9      0.114333
     51 HAYB        2.4640   -2.1470    3.1870 hc        1 SQ9      0.114333
     52 HNBB        3.4860    1.6920    7.7370 hn        1 SQ9      0.246000
     53 HNBA        2.0510    1.4460    8.3050 hn        1 SQ9      0.246000
@<TRIPOS>BOND
     1    1    7 1   
     2    2    3 1   
     3    2    4 1   
     4    3   30 1   
     5    3   31 1   
     6    5    6 1   
     7    7    8 1   
     8    8   12 1   
     9    9   10 1   
    10   10   11 1   
    11   12   13 1   
    12   12   33 1   
    13   12   34 1   
    14   13   16 1   
    15   13   20 1   
    16   13   35 1   
    17   14   21 1   
    18   14   24 1   
    19   15   21 1   
    20   15   36 1   
    21   16   17 1   
    22   16   37 1   
    23   16   38 1   
    24   17   18 1   
    25   17   39 1   
    26   17   40 1   
    27   18   19 1   
    28   18   41 1   
    29   18   42 1   
    30   19   20 1   
    31   19   43 1   
    32   19   44 1   
    33   20   45 1   
    34   20   46 1   
    35   21   47 1   
    36   22   23 1   
    37   22   48 1   
    38   23   26 1   
    39   24   25 1   
    40   25   49 1   
    41   25   50 1   
    42   25   51 1   
    43   26   27 1   
    44   26   29 1   
    45   28   52 1   
    46   28   53 1   
@<TRIPOS>SUBSTRUCTURE
     1 SQ9         1 TEMP              0 ****  ****    0 ROOT
