@<TRIPOS>MOLECULE
SQ9
   54    57     1     0     0
SMALL
bcc


@<TRIPOS>ATOM
      1 N1          0.0880    0.4310   -0.3110 nb        1 SQ9     -0.801000
      2 C2          1.4800    0.6580   -0.3030 ca        1 SQ9      0.918900
      3 N2          2.0940    0.7130   -1.5460 nv        1 SQ9     -0.935500
      4 N3          2.2910    0.7860    0.8090 nb        1 SQ9     -0.731000
      5 C4          1.6440    0.6360    1.9980 ca        1 SQ9      0.612300
      6 C5          0.2110    0.3740    2.0890 ca        1 SQ9     -0.386800
      7 C6         -0.5210    0.2860    0.8710 ca        1 SQ9      0.736600
      8 O6         -1.8650    0.0540    1.0060 os        1 SQ9     -0.457100
      9 N7         -0.1050    0.2820    3.4400 na        1 SQ9     -0.220300
     10 C8          1.1040    0.4780    4.1310 cc        1 SQ9      0.422400
     11 N9          2.1680    0.6960    3.3110 nd        1 SQ9     -0.625700
     12 CAK        -2.6480   -0.0300   -0.2070 c3        1 SQ9      0.140400
     13 CAL        -4.0790   -0.2960    0.2480 c3        1 SQ9     -0.072700
     14 CAM         1.1720    0.4990    5.5980 ca        1 SQ9     -0.128900
     15 CAO         0.3140    1.3640    7.6950 ca        1 SQ9     -0.147000
     16 CAP        -5.0360    0.0400   -0.8870 c3        1 SQ9     -0.073400
     17 CAQ        -6.4690   -0.2450   -0.4880 c3        1 SQ9     -0.076400
     18 CAR        -6.6450   -1.6800   -0.0350 c3        1 SQ9     -0.079400
     19 CAS        -5.6840   -2.0250    1.0850 c3        1 SQ9     -0.076400
     20 CAT        -4.2510   -1.7440    0.6830 c3        1 SQ9     -0.073400
     21 CAU         0.2480    1.2790    6.2980 ca        1 SQ9      0.012000
     22 CAV         1.3170    0.7030    8.3720 ca        1 SQ9     -0.009000
     23 CAW         2.2880   -0.0830    7.6930 ca        1 SQ9     -0.559500
     24 CAX         2.1840   -0.2030    6.2840 ca        1 SQ9      0.140700
     25 CAY         3.1310   -1.0520    5.5260 c3        1 SQ9     -0.112800
     26 SAZ         3.4860   -0.6640    8.5850 sy        1 SQ9      1.490200
     27 OBA         3.4470   -0.2910    9.9140 o         1 SQ9     -0.565800
     28 NBB         2.8290   -2.4740    8.7560 nz        1 SQ9     -0.785500
     29 OBC         4.6880   -0.9160    7.9680 o         1 SQ9     -0.565800
     30 HN2         3.0310    1.0340   -1.5940 hn        1 SQ9      0.448800
     31 HN2A        1.5240    0.8030   -2.3530 hn        1 SQ9      0.448800
     32 HN7        -0.9980    0.0970    3.8140 hn        1 SQ9      0.319700
     33 HAK        -2.2550   -0.8630   -0.8430 h1        1 SQ9      0.063700
     34 HAKA       -2.5720    0.9440   -0.7550 h1        1 SQ9      0.063700
     35 HAL        -4.3070    0.3720    1.1260 hc        1 SQ9      0.061700
     36 HAO        -0.4230    1.9750    8.2440 ha        1 SQ9      0.179000
     37 HAP        -4.7680   -0.5670   -1.7920 hc        1 SQ9      0.043950
     38 HAPA       -4.9310    1.1220   -1.1600 hc        1 SQ9      0.043950
     39 HAQ        -7.1440   -0.0420   -1.3600 hc        1 SQ9      0.042950
     40 HAQA       -6.7710    0.4490    0.3400 hc        1 SQ9      0.042950
     41 HAR        -7.6990   -1.8360    0.3140 hc        1 SQ9      0.046200
     42 HARA       -6.4710   -2.3700   -0.9020 hc        1 SQ9      0.046200
     43 HAS        -5.7910   -3.1080    1.3510 hc        1 SQ9      0.042950
     44 HASA       -5.9430   -1.4250    1.9970 hc        1 SQ9      0.042950
     45 HAT        -3.9580   -2.4250   -0.1580 hc        1 SQ9      0.043950
     46 HATA       -3.5640   -1.9530    1.5440 hc        1 SQ9      0.043950
     47 HAU        -0.5300    1.8450    5.7540 ha        1 SQ9      0.174000
     48 HAV         1.3850    0.8070    9.4740 ha        1 SQ9      0.176000
     49 HAY         3.6080   -1.8400    6.1580 hc        1 SQ9      0.089367
     50 HAYA        3.9490   -0.4110    5.0930 hc        1 SQ9      0.089367
     51 HAYB        2.6190   -1.5620    4.6680 hc        1 SQ9      0.089367
     52 HNBB        3.5170   -3.1340    8.3990 hn        1 SQ9      0.454133
     53 HNBA        1.9620   -2.6210    8.2500 hn        1 SQ9      0.454133
     54 HBB3        2.6640   -2.6960    9.7360 hn        1 SQ9      0.454133
@<TRIPOS>BOND
     1    1    2 ar  
     2    1    7 ar  
     3    2    3 1   
     4    2    4 ar  
     5    3   30 1   
     6    3   31 1   
     7    4    5 ar  
     8    5    6 ar  
     9    5   11 1   
    10    6    7 ar  
    11    6    9 1   
    12    7    8 1   
    13    8   12 1   
    14    9   10 1   
    15    9   32 1   
    16   10   11 2   
    17   10   14 1   
    18   12   13 1   
    19   12   33 1   
    20   12   34 1   
    21   13   16 1   
    22   13   20 1   
    23   13   35 1   
    24   14   21 ar  
    25   14   24 ar  
    26   15   21 ar  
    27   15   22 ar  
    28   15   36 1   
    29   16   17 1   
    30   16   37 1   
    31   16   38 1   
    32   17   18 1   
    33   17   39 1   
    34   17   40 1   
    35   18   19 1   
    36   18   41 1   
    37   18   42 1   
    38   19   20 1   
    39   19   43 1   
    40   19   44 1   
    41   20   45 1   
    42   20   46 1   
    43   21   47 1   
    44   22   23 ar  
    45   22   48 1   
    46   23   24 ar  
    47   23   26 1   
    48   24   25 1   
    49   25   49 1   
    50   25   50 1   
    51   25   51 1   
    52   26   27 2   
    53   26   28 1   
    54   26   29 2   
    55   28   52 1   
    56   28   53 1   
    57   28   54 1   
@<TRIPOS>SUBSTRUCTURE
     1 SQ9         1 TEMP              0 ****  ****    0 ROOT
