@<TRIPOS>MOLECULE
SQA
   82    81     1     0     0
SMALL
bcc


@<TRIPOS>ATOM
      1 C1         -2.4190    0.4390    0.4390 c3        1 SQA      0.078100
      2 N2         -1.1330    0.7320   -0.2430 n4        1 SQA     -0.684400
      3 C3          0.0280    0.5670    0.6980 c3        1 SQA      0.105800
      4 C4          0.2880    1.8000    1.5530 c3        1 SQA     -0.112400
      5 C5          1.3400    1.4740    2.6010 c3        1 SQA     -0.034200
      6 C6          1.8120    2.7180    3.2750 c2        1 SQA     -0.140400
      7 C7          1.1410    3.3410    4.2550 c2        1 SQA     -0.141200
      8 C8         -0.1570    2.9310    4.8380 c3        1 SQA     -0.051200
      9 C9         -1.2080    4.0110    4.6310 c3        1 SQA     -0.043200
     10 C10        -2.4670    3.7090    5.3700 c2        1 SQA     -0.099400
     11 C11        -3.5060    3.0460    4.8420 c2        1 SQA     -0.187200
     12 C12        -3.5640    2.4660    3.4790 c3        1 SQA     -0.034200
     13 C13        -4.2400    3.4120    2.5000 c3        1 SQA     -0.056200
     14 C14        -4.6130    2.7310    1.2390 c2        1 SQA     -0.190200
     15 C15        -4.3690    3.1680   -0.0090 c2        1 SQA     -0.136400
     16 C16        -3.6130    4.4220   -0.2810 c3        1 SQA     -0.046200
     17 C17        -3.0700    4.5860   -1.6880 c3        1 SQA     -0.054200
     18 C18        -1.9080    3.7240   -2.0120 c2        1 SQA     -0.181200
     19 C19        -0.6490    3.8910   -1.5650 c2        1 SQA     -0.146400
     20 C20        -0.2840    4.9360   -0.5690 c3        1 SQA     -0.047200
     21 C21         1.1570    5.4030   -0.6520 c3        1 SQA     -0.038200
     22 C22         1.4100    6.5440    0.2590 c2        1 SQA     -0.203200
     23 C23         2.6370    6.9320    0.6430 c2        1 SQA     -0.095400
     24 C24         3.8700    6.2290    0.2150 c3        1 SQA     -0.065900
     25 C25        -0.9720   -0.1400   -1.4340 c3        1 SQA      0.078100
     26 C26         3.1180    3.2290    2.7880 c3        1 SQA     -0.060900
     27 C27        -2.5140    4.2260    6.7620 c3        1 SQA     -0.066900
     28 C28        -4.9320    2.4400   -1.1750 c3        1 SQA     -0.066900
     29 C29         0.4520    3.0440   -2.0920 c3        1 SQA     -0.077900
     30 C30         2.8390    8.1020    1.5330 c3        1 SQA     -0.065900
     31 H1C1       -2.5100    1.0750    1.3640 hx        1 SQA      0.104367
     32 H1C2       -2.4600   -0.6470    0.7190 hx        1 SQA      0.104367
     33 H1C3       -3.2730    0.6910   -0.2510 hx        1 SQA      0.104367
     34 H3C1       -0.1810   -0.3270    1.3530 hx        1 SQA      0.099200
     35 H3C2        0.9460    0.3480    0.0790 hx        1 SQA      0.099200
     36 H4C1       -0.6480    2.1460    2.0680 hc        1 SQA      0.074200
     37 H4C2        0.6510    2.6470    0.9070 hc        1 SQA      0.074200
     38 H5C1        0.9130    0.7590    3.3540 hc        1 SQA      0.056200
     39 H5C2        2.2110    0.9590    2.1120 hc        1 SQA      0.056200
     40 H7          1.5680    4.2560    4.7070 ha        1 SQA      0.137000
     41 H8C1       -0.0160    2.7590    5.9420 hc        1 SQA      0.051200
     42 H8C2       -0.5250    1.9660    4.4000 hc        1 SQA      0.051200
     43 H9C1       -1.4190    4.1190    3.5330 hc        1 SQA      0.047700
     44 H9C2       -0.8010    4.9970    4.9850 hc        1 SQA      0.047700
     45 H11        -4.4220    2.8930    5.4400 ha        1 SQA      0.134000
     46 H121       -4.1340    1.4980    3.5210 hc        1 SQA      0.029200
     47 H122       -2.5290    2.2250    3.1130 hc        1 SQA      0.029200
     48 H131       -3.5720    4.2950    2.3200 hc        1 SQA      0.064700
     49 H132       -5.1850    3.8110    2.9670 hc        1 SQA      0.064700
     50 H14        -5.2010    1.8060    1.3860 ha        1 SQA      0.121000
     51 H161       -4.3060    5.2870   -0.0750 hc        1 SQA      0.059200
     52 H162       -2.7550    4.5130    0.4420 hc        1 SQA      0.059200
     53 H171       -2.7650    5.6650   -1.8130 hc        1 SQA      0.065700
     54 H172       -3.8890    4.4000   -2.4340 hc        1 SQA      0.065700
     55 H18        -2.1190    2.9310   -2.7520 ha        1 SQA      0.110000
     56 H201       -0.4770    4.5310    0.4640 hc        1 SQA      0.054700
     57 H202       -0.9620    5.8260   -0.6980 hc        1 SQA      0.054700
     58 H211        1.3910    5.7180   -1.7060 hc        1 SQA      0.047200
     59 H212        1.8470    4.5510   -0.4010 hc        1 SQA      0.047200
     60 H22         0.5200    7.0960    0.6010 ha        1 SQA      0.126000
     61 H241        3.8370    6.0000   -0.8800 hc        1 SQA      0.046367
     62 H242        4.7790    6.8470    0.4180 hc        1 SQA      0.046367
     63 H243        3.9710    5.2620    0.7720 hc        1 SQA      0.046367
     64 H251       -1.8630   -0.0160   -2.1060 hx        1 SQA      0.104367
     65 H252       -0.8920   -1.2110   -1.1090 hx        1 SQA      0.104367
     66 H253       -0.0410    0.1570   -1.9900 hx        1 SQA      0.104367
     67 H261        3.0830    3.3770    1.6790 hc        1 SQA      0.047367
     68 H262        3.9300    2.4940    3.0200 hc        1 SQA      0.047367
     69 H263        3.3820    4.2060    3.2630 hc        1 SQA      0.047367
     70 H271       -2.5180    5.3450    6.7540 hc        1 SQA      0.050367
     71 H272       -3.4270    3.8750    7.3030 hc        1 SQA      0.050367
     72 H273       -1.6130    3.8840    7.3290 hc        1 SQA      0.050367
     73 H281       -4.1230    2.1500   -1.8920 hc        1 SQA      0.044700
     74 H282       -5.4790    1.5160   -0.8630 hc        1 SQA      0.044700
     75 H283       -5.6550    3.1010   -1.7190 hc        1 SQA      0.044700
     76 H291        0.0690    2.2350   -2.7630 hc        1 SQA      0.044367
     77 H292        1.1580    3.6760   -2.6900 hc        1 SQA      0.044367
     78 H293        1.0340    2.5760   -1.2590 hc        1 SQA      0.044367
     79 H301        3.4420    7.8050    2.4270 hc        1 SQA      0.046367
     80 H302        3.3980    8.9020    0.9860 hc        1 SQA      0.046367
     81 H303        1.8680    8.5280    1.8850 hc        1 SQA      0.046367
     82 H21        -1.1510    1.7210   -0.5640 hn        1 SQA      0.471800
@<TRIPOS>BOND
     1    1    2 1   
     2    1   31 1   
     3    1   32 1   
     4    1   33 1   
     5    2    3 1   
     6    2   25 1   
     7    2   82 1   
     8    3    4 1   
     9    3   34 1   
    10    3   35 1   
    11    4    5 1   
    12    4   36 1   
    13    4   37 1   
    14    5    6 1   
    15    5   38 1   
    16    5   39 1   
    17    6    7 2   
    18    6   26 1   
    19    7    8 1   
    20    7   40 1   
    21    8    9 1   
    22    8   41 1   
    23    8   42 1   
    24    9   10 1   
    25    9   43 1   
    26    9   44 1   
    27   10   11 2   
    28   10   27 1   
    29   11   12 1   
    30   11   45 1   
    31   12   13 1   
    32   12   46 1   
    33   12   47 1   
    34   13   14 1   
    35   13   48 1   
    36   13   49 1   
    37   14   15 2   
    38   14   50 1   
    39   15   16 1   
    40   15   28 1   
    41   16   17 1   
    42   16   51 1   
    43   16   52 1   
    44   17   18 1   
    45   17   53 1   
    46   17   54 1   
    47   18   19 2   
    48   18   55 1   
    49   19   20 1   
    50   19   29 1   
    51   20   21 1   
    52   20   56 1   
    53   20   57 1   
    54   21   22 1   
    55   21   58 1   
    56   21   59 1   
    57   22   23 2   
    58   22   60 1   
    59   23   24 1   
    60   23   30 1   
    61   24   61 1   
    62   24   62 1   
    63   24   63 1   
    64   25   64 1   
    65   25   65 1   
    66   25   66 1   
    67   26   67 1   
    68   26   68 1   
    69   26   69 1   
    70   27   70 1   
    71   27   71 1   
    72   27   72 1   
    73   28   73 1   
    74   28   74 1   
    75   28   75 1   
    76   29   76 1   
    77   29   77 1   
    78   29   78 1   
    79   30   79 1   
    80   30   80 1   
    81   30   81 1   
@<TRIPOS>SUBSTRUCTURE
     1 SQA         1 TEMP              0 ****  ****    0 ROOT
