@<TRIPOS>MOLECULE
SQA
   81    80     1     0     0
SMALL
bcc


@<TRIPOS>ATOM
      1 C1          3.8850   -4.7010    5.1000 c3        1 SQA      0.154600
      2 N2          5.2380   -4.5440    5.5820 n3        1 SQA     -0.738600
      3 C3          5.5980   -3.1610    5.8660 c3        1 SQA      0.168800
      4 C4          5.5040   -2.2300    4.6580 c3        1 SQA     -0.080400
      5 C5          6.1250   -0.8880    4.9970 c3        1 SQA     -0.042200
      6 C6          6.0190    0.0730    3.8600 c2        1 SQA     -0.116400
      7 C7          5.0830    1.0340    3.8560 c2        1 SQA     -0.168200
      8 C8          4.9220    2.0720    2.8100 c3        1 SQA     -0.041200
      9 C9          3.8540    1.7140    1.7890 c3        1 SQA     -0.037200
     10 C10         2.4660    1.7920    2.3320 c2        1 SQA     -0.115400
     11 C11         1.6730    0.7100    2.3570 c2        1 SQA     -0.172200
     12 C12         0.2830    0.6770    2.8700 c3        1 SQA     -0.041200
     13 C13        -0.7500    0.7610    1.7560 c3        1 SQA     -0.040200
     14 C14        -0.5910   -0.3280    0.7650 c2        1 SQA     -0.173200
     15 C15        -1.4720   -1.3130    0.5320 c2        1 SQA     -0.117400
     16 C16        -1.2020   -2.3420   -0.5160 c3        1 SQA     -0.040200
     17 C17        -0.7160   -3.6580    0.0660 c3        1 SQA     -0.041200
     18 C18         0.6250   -3.5450    0.6830 c2        1 SQA     -0.172200
     19 C19         1.4820   -4.5670    0.8330 c2        1 SQA     -0.126400
     20 C20         2.8010   -4.3710    1.5000 c3        1 SQA     -0.040200
     21 C21         3.9490   -4.4310    0.5070 c3        1 SQA     -0.042200
     22 C22         5.2520   -4.1720    1.1630 c2        1 SQA     -0.178200
     23 C23         6.3810   -3.8960    0.4900 c2        1 SQA     -0.126400
     24 C24         7.6600   -3.6320    1.1930 c3        1 SQA     -0.058400
     25 C25         5.5430   -5.4210    6.6900 c3        1 SQA      0.154600
     26 C26         7.0230   -0.0960    2.7810 c3        1 SQA     -0.060900
     27 C27         2.0260    3.1270    2.8090 c3        1 SQA     -0.058900
     28 C28        -2.7540   -1.4520    1.2640 c3        1 SQA     -0.057900
     29 C29         1.1770   -5.9400    0.3640 c3        1 SQA     -0.057900
     30 C30         6.4280   -3.8260   -0.9900 c3        1 SQA     -0.058400
     31 H1C1        3.1090   -4.3200    5.8200 h1        1 SQA      0.030867
     32 H1C2        3.6860   -5.7880    4.9070 h1        1 SQA      0.030867
     33 H1C3        3.7770   -4.1440    4.1310 h1        1 SQA      0.030867
     34 H3C1        6.6650   -3.1630    6.2300 h1        1 SQA      0.028200
     35 H3C2        4.9600   -2.7310    6.6960 h1        1 SQA      0.028200
     36 H4C1        6.0320   -2.6820    3.7770 hc        1 SQA      0.052200
     37 H4C2        4.4310   -2.0810    4.3680 hc        1 SQA      0.052200
     38 H5C1        5.6200   -0.4670    5.9080 hc        1 SQA      0.043200
     39 H5C2        7.2090   -1.0310    5.2550 hc        1 SQA      0.043200
     40 H7          4.3530    1.0960    4.6810 ha        1 SQA      0.121000
     41 H8C1        5.8920    2.2340    2.2670 hc        1 SQA      0.044200
     42 H8C2        4.6530    3.0460    3.3030 hc        1 SQA      0.044200
     43 H9C1        3.9340    2.4300    0.9250 hc        1 SQA      0.046700
     44 H9C2        4.0610    0.6850    1.3900 hc        1 SQA      0.046700
     45 H11         2.0440   -0.2580    1.9760 ha        1 SQA      0.122000
     46 H121        0.1060    1.5230    3.5870 hc        1 SQA      0.044700
     47 H122        0.1310   -0.2790    3.4410 hc        1 SQA      0.044700
     48 H131       -1.7740    0.7430    2.2150 hc        1 SQA      0.045700
     49 H132       -0.6390    1.7470    1.2280 hc        1 SQA      0.045700
     50 H14         0.3510   -0.2820    0.1900 ha        1 SQA      0.123000
     51 H161       -0.4390   -1.9600   -1.2450 hc        1 SQA      0.045700
     52 H162       -2.1480   -2.5310   -1.0930 hc        1 SQA      0.045700
     53 H171       -1.4450   -4.0160    0.8440 hc        1 SQA      0.047700
     54 H172       -0.7020   -4.4290   -0.7520 hc        1 SQA      0.047700
     55 H18         0.8900   -2.5340    1.0440 ha        1 SQA      0.129000
     56 H201        2.8260   -3.3810    2.0300 hc        1 SQA      0.045700
     57 H202        2.9420   -5.1670    2.2810 hc        1 SQA      0.045700
     58 H211        3.7760   -3.6810   -0.3110 hc        1 SQA      0.048700
     59 H212        3.9690   -5.4450    0.0190 hc        1 SQA      0.048700
     60 H22         5.2550   -4.2160    2.2660 ha        1 SQA      0.132000
     61 H241        8.4180   -4.4070    0.9170 hc        1 SQA      0.040200
     62 H242        7.5310   -3.6440    2.3040 hc        1 SQA      0.040200
     63 H243        8.0600   -2.6300    0.8960 hc        1 SQA      0.040200
     64 H251        6.6340   -5.3360    6.9340 h1        1 SQA      0.030867
     65 H252        5.3260   -6.4790    6.3850 h1        1 SQA      0.030867
     66 H253        4.9510   -5.1890    7.6180 h1        1 SQA      0.030867
     67 H261        6.5960    0.1790    1.7850 hc        1 SQA      0.042033
     68 H262        7.3740   -1.1580    2.7250 hc        1 SQA      0.042033
     69 H263        7.9090    0.5580    2.9780 hc        1 SQA      0.042033
     70 H271        2.0620    3.1670    3.9270 hc        1 SQA      0.040700
     71 H272        2.6840    3.9360    2.4070 hc        1 SQA      0.040700
     72 H273        0.9760    3.3370    2.4850 hc        1 SQA      0.040700
     73 H281       -2.5950   -1.3600    2.3670 hc        1 SQA      0.040700
     74 H282       -3.2270   -2.4440    1.0620 hc        1 SQA      0.040700
     75 H283       -3.4690   -0.6510    0.9450 hc        1 SQA      0.040700
     76 H291        1.1210   -5.9650   -0.7530 hc        1 SQA      0.040033
     77 H292        0.1900   -6.2810    0.7670 hc        1 SQA      0.040033
     78 H293        1.9610   -6.6660    0.6920 hc        1 SQA      0.040033
     79 H301        5.9040   -2.9040   -1.3490 hc        1 SQA      0.040200
     80 H302        7.4810   -3.8000   -1.3610 hc        1 SQA      0.040200
     81 H303        5.9150   -4.7120   -1.4420 hc        1 SQA      0.040200
@<TRIPOS>BOND
     1    1    2 1   
     2    1   31 1   
     3    1   32 1   
     4    1   33 1   
     5    2    3 1   
     6    2   25 1   
     7    3    4 1   
     8    3   34 1   
     9    3   35 1   
    10    4    5 1   
    11    4   36 1   
    12    4   37 1   
    13    5    6 1   
    14    5   38 1   
    15    5   39 1   
    16    6    7 2   
    17    6   26 1   
    18    7    8 1   
    19    7   40 1   
    20    8    9 1   
    21    8   41 1   
    22    8   42 1   
    23    9   10 1   
    24    9   43 1   
    25    9   44 1   
    26   10   11 2   
    27   10   27 1   
    28   11   12 1   
    29   11   45 1   
    30   12   13 1   
    31   12   46 1   
    32   12   47 1   
    33   13   14 1   
    34   13   48 1   
    35   13   49 1   
    36   14   15 2   
    37   14   50 1   
    38   15   16 1   
    39   15   28 1   
    40   16   17 1   
    41   16   51 1   
    42   16   52 1   
    43   17   18 1   
    44   17   53 1   
    45   17   54 1   
    46   18   19 2   
    47   18   55 1   
    48   19   20 1   
    49   19   29 1   
    50   20   21 1   
    51   20   56 1   
    52   20   57 1   
    53   21   22 1   
    54   21   58 1   
    55   21   59 1   
    56   22   23 2   
    57   22   60 1   
    58   23   24 1   
    59   23   30 1   
    60   24   61 1   
    61   24   62 1   
    62   24   63 1   
    63   25   64 1   
    64   25   65 1   
    65   25   66 1   
    66   26   67 1   
    67   26   68 1   
    68   26   69 1   
    69   27   70 1   
    70   27   71 1   
    71   27   72 1   
    72   28   73 1   
    73   28   74 1   
    74   28   75 1   
    75   29   76 1   
    76   29   77 1   
    77   29   78 1   
    78   30   79 1   
    79   30   80 1   
    80   30   81 1   
@<TRIPOS>SUBSTRUCTURE
     1 SQA         1 TEMP              0 ****  ****    0 ROOT
