@<TRIPOS>MOLECULE
SQA
   82    81     1     0     0
SMALL
bcc


@<TRIPOS>ATOM
      1 C1         -2.4520    0.4610    0.4280 c3        1 SQA      0.078100
      2 N2         -1.1610    0.7410   -0.2510 nx        1 SQA     -0.684400
      3 C3         -0.0050    0.5590    0.6920 c3        1 SQA      0.105800
      4 C4          0.2690    1.7880    1.5500 c3        1 SQA     -0.112400
      5 C5          1.3150    1.4460    2.5990 c3        1 SQA     -0.034200
      6 C6          1.8000    2.6820    3.2790 c2        1 SQA     -0.140400
      7 C7          1.1350    3.3110    4.2590 c2        1 SQA     -0.141200
      8 C8         -0.1700    2.9140    4.8380 c3        1 SQA     -0.051200
      9 C9         -1.2080    4.0070    4.6320 c3        1 SQA     -0.043200
     10 C10        -2.4710    3.7180    5.3680 c2        1 SQA     -0.099400
     11 C11        -3.5170    3.0680    4.8360 c2        1 SQA     -0.187200
     12 C12        -3.5790    2.4930    3.4710 c3        1 SQA     -0.034200
     13 C13        -4.2430    3.4500    2.4940 c3        1 SQA     -0.056200
     14 C14        -4.6210    2.7760    1.2300 c2        1 SQA     -0.190200
     15 C15        -4.3690    3.2140   -0.0160 c2        1 SQA     -0.136400
     16 C16        -3.5980    4.4600   -0.2830 c3        1 SQA     -0.046200
     17 C17        -3.0510    4.6220   -1.6880 c3        1 SQA     -0.054200
     18 C18        -1.8990    3.7470   -2.0130 c2        1 SQA     -0.181200
     19 C19        -0.6390    3.8970   -1.5640 c2        1 SQA     -0.146400
     20 C20        -0.2630    4.9350   -0.5630 c3        1 SQA     -0.047200
     21 C21         1.1830    5.3850   -0.6430 c3        1 SQA     -0.038200
     22 C22         1.4490    6.5200    0.2720 c2        1 SQA     -0.203200
     23 C23         2.6800    6.8930    0.6590 c2        1 SQA     -0.095400
     24 C24         3.9050    6.1770    0.2280 c3        1 SQA     -0.065900
     25 C25        -1.0080   -0.1300   -1.4440 c3        1 SQA      0.078100
     26 C26         3.1130    3.1790    2.7950 c3        1 SQA     -0.060900
     27 C27        -2.5150    4.2310    6.7610 c3        1 SQA     -0.066900
     28 C28        -4.9390    2.4970   -1.1850 c3        1 SQA     -0.066900
     29 C29         0.4530    3.0390   -2.0910 c3        1 SQA     -0.077900
     30 C30         2.8950    8.0570    1.5520 c3        1 SQA     -0.065900
     31 H1C1       -2.5370    1.0950    1.3550 hx        1 SQA      0.104367
     32 H1C2       -2.5060   -0.6250    0.7040 hx        1 SQA      0.104367
     33 H1C3       -3.3010    0.7250   -0.2620 hx        1 SQA      0.104367
     34 H3C1       -0.2250   -0.3330    1.3440 hx        1 SQA      0.099200
     35 H3C2        0.9120    0.3320    0.0740 hx        1 SQA      0.099200
     36 H4C1       -0.6640    2.1430    2.0640 hc        1 SQA      0.074200
     37 H4C2        0.6430    2.6310    0.9070 hc        1 SQA      0.074200
     38 H5C1        0.8780    0.7340    3.3500 hc        1 SQA      0.056200
     39 H5C2        2.1800    0.9220    2.1110 hc        1 SQA      0.056200
     40 H7          1.5710    4.2190    4.7140 ha        1 SQA      0.137000
     41 H8C1       -0.0320    2.7360    5.9410 hc        1 SQA      0.051200
     42 H8C2       -0.5480    1.9550    4.3960 hc        1 SQA      0.051200
     43 H9C1       -1.4150    4.1210    3.5340 hc        1 SQA      0.047700
     44 H9C2       -0.7890    4.9870    4.9910 hc        1 SQA      0.047700
     45 H11        -4.4350    2.9250    5.4320 ha        1 SQA      0.134000
     46 H121       -4.1590    1.5310    3.5090 hc        1 SQA      0.029200
     47 H122       -2.5460    2.2410    3.1060 hc        1 SQA      0.029200
     48 H131       -3.5640    4.3260    2.3180 hc        1 SQA      0.064700
     49 H132       -5.1840    3.8580    2.9600 hc        1 SQA      0.064700
     50 H14        -5.2200    1.8590    1.3730 ha        1 SQA      0.121000
     51 H161       -4.2810    5.3320   -0.0750 hc        1 SQA      0.059200
     52 H162       -2.7400    4.5380    0.4410 hc        1 SQA      0.059200
     53 H171       -2.7330    5.6970   -1.8100 hc        1 SQA      0.065700
     54 H172       -3.8710    4.4480   -2.4370 hc        1 SQA      0.065700
     55 H18        -2.1170    2.9590   -2.7560 ha        1 SQA      0.110000
     56 H201       -0.4630    4.5290    0.4680 hc        1 SQA      0.054700
     57 H202       -0.9300    5.8330   -0.6910 hc        1 SQA      0.054700
     58 H211        1.4230    5.7010   -1.6960 hc        1 SQA      0.047200
     59 H212        1.8630    4.5240   -0.3940 hc        1 SQA      0.047200
     60 H22         0.5650    7.0800    0.6160 ha        1 SQA      0.126000
     61 H241        3.8710    5.9540   -0.8680 hc        1 SQA      0.046367
     62 H242        4.8210    6.7840    0.4350 hc        1 SQA      0.046367
     63 H243        3.9940    5.2070    0.7800 hc        1 SQA      0.046367
     64 H251       -1.8970    0.0070   -2.1170 hx        1 SQA      0.104367
     65 H252       -0.9410   -1.2020   -1.1220 hx        1 SQA      0.104367
     66 H253       -0.0730    0.1580   -1.9970 hx        1 SQA      0.104367
     67 H261        3.0820    3.3320    1.6860 hc        1 SQA      0.047367
     68 H262        3.9160    2.4350    3.0260 hc        1 SQA      0.047367
     69 H263        3.3880    4.1510    3.2740 hc        1 SQA      0.047367
     70 H271       -2.5060    5.3500    6.7570 hc        1 SQA      0.050367
     71 H272       -3.4330    3.8890    7.3000 hc        1 SQA      0.050367
     72 H273       -1.6190    3.8760    7.3290 hc        1 SQA      0.050367
     73 H281       -4.1320    2.1980   -1.9020 hc        1 SQA      0.044700
     74 H282       -5.4970    1.5780   -0.8770 hc        1 SQA      0.044700
     75 H283       -5.6530    3.1670   -1.7280 hc        1 SQA      0.044700
     76 H291        0.0620    2.2360   -2.7650 hc        1 SQA      0.044367
     77 H292        1.1680    3.6650   -2.6860 hc        1 SQA      0.044367
     78 H293        1.0280    2.5610   -1.2580 hc        1 SQA      0.044367
     79 H301        3.4940    7.7500    2.4460 hc        1 SQA      0.046367
     80 H302        3.4630    8.8530    1.0090 hc        1 SQA      0.046367
     81 H303        1.9290    8.4930    1.9060 hc        1 SQA      0.046367
     82 H21        -1.1680    1.7310   -0.5700 hn        1 SQA      0.471800
@<TRIPOS>BOND
     1    1    2 1   
     2    1   31 1   
     3    1   32 1   
     4    1   33 1   
     5    2    3 1   
     6    2   25 1   
     7    2   82 1   
     8    3    4 1   
     9    3   34 1   
    10    3   35 1   
    11    4    5 1   
    12    4   36 1   
    13    4   37 1   
    14    5    6 1   
    15    5   38 1   
    16    5   39 1   
    17    6    7 2   
    18    6   26 1   
    19    7    8 1   
    20    7   40 1   
    21    8    9 1   
    22    8   41 1   
    23    8   42 1   
    24    9   10 1   
    25    9   43 1   
    26    9   44 1   
    27   10   11 2   
    28   10   27 1   
    29   11   12 1   
    30   11   45 1   
    31   12   13 1   
    32   12   46 1   
    33   12   47 1   
    34   13   14 1   
    35   13   48 1   
    36   13   49 1   
    37   14   15 2   
    38   14   50 1   
    39   15   16 1   
    40   15   28 1   
    41   16   17 1   
    42   16   51 1   
    43   16   52 1   
    44   17   18 1   
    45   17   53 1   
    46   17   54 1   
    47   18   19 2   
    48   18   55 1   
    49   19   20 1   
    50   19   29 1   
    51   20   21 1   
    52   20   56 1   
    53   20   57 1   
    54   21   22 1   
    55   21   58 1   
    56   21   59 1   
    57   22   23 2   
    58   22   60 1   
    59   23   24 1   
    60   23   30 1   
    61   24   61 1   
    62   24   62 1   
    63   24   63 1   
    64   25   64 1   
    65   25   65 1   
    66   25   66 1   
    67   26   67 1   
    68   26   68 1   
    69   26   69 1   
    70   27   70 1   
    71   27   71 1   
    72   27   72 1   
    73   28   73 1   
    74   28   74 1   
    75   28   75 1   
    76   29   76 1   
    77   29   77 1   
    78   29   78 1   
    79   30   79 1   
    80   30   80 1   
    81   30   81 1   
@<TRIPOS>SUBSTRUCTURE
     1 SQA         1 TEMP              0 ****  ****    0 ROOT
