@<TRIPOS>MOLECULE
SQA
   82    81     1     0     0
SMALL
bcc


@<TRIPOS>ATOM
      1 C1         -1.7060    0.9050    0.3450 c3        1 SQA      0.080600
      2 N2         -0.4050    1.4480   -0.1240 n4        1 SQA     -0.684400
      3 C3          0.6090    1.4490    0.9870 c3        1 SQA      0.105800
      4 C4          0.4830    2.6550    1.9090 c3        1 SQA     -0.112400
      5 C5          1.3830    2.4610    3.1180 c3        1 SQA     -0.033200
      6 C6          1.3700    3.6760    3.9820 c2        1 SQA     -0.140400
      7 C7          0.4230    3.9290    4.8970 c2        1 SQA     -0.144200
      8 C8         -0.7390    3.0680    5.2140 c3        1 SQA     -0.049200
      9 C9         -2.0230    3.8790    5.2900 c3        1 SQA     -0.044200
     10 C10        -3.1720    3.0340    5.7220 c2        1 SQA     -0.101400
     11 C11        -3.9740    2.3640    4.8810 c2        1 SQA     -0.187200
     12 C12        -3.8620    2.3130    3.4050 c3        1 SQA     -0.031200
     13 C13        -4.9790    3.1100    2.7460 c3        1 SQA     -0.055200
     14 C14        -5.1790    2.7160    1.3320 c2        1 SQA     -0.152200
     15 C15        -4.4820    3.1500    0.2680 c2        1 SQA     -0.153400
     16 C16        -3.3410    4.0990    0.3950 c3        1 SQA     -0.025200
     17 C17        -3.0840    4.9920   -0.8060 c3        1 SQA     -0.059200
     18 C18        -2.3430    4.3220   -1.9010 c2        1 SQA     -0.161200
     19 C19        -1.0060    4.3010   -2.0420 c2        1 SQA     -0.170400
     20 C20        -0.1020    4.9820   -1.0730 c3        1 SQA     -0.060200
     21 C21         1.3540    4.5730   -1.1720 c3        1 SQA     -0.032200
     22 C22         2.1840    5.2520   -0.1480 c2        1 SQA     -0.227200
     23 C23         3.5260    5.3020   -0.1940 c2        1 SQA     -0.081400
     24 C24         4.3150    4.6730   -1.2800 c3        1 SQA     -0.070900
     25 C25         0.0940    0.6700   -1.2860 c3        1 SQA      0.080600
     26 C26         2.5150    4.5990    3.7780 c3        1 SQA     -0.065900
     27 C27        -3.3960    2.9900    7.1900 c3        1 SQA     -0.066900
     28 C28        -4.8420    2.6780   -1.0930 c3        1 SQA     -0.056900
     29 C29        -0.3870    3.6850   -3.2430 c3        1 SQA     -0.062900
     30 C30         4.3130    6.0120    0.8440 c3        1 SQA     -0.070900
     31 H1C1       -2.0040    1.4100    1.3060 hx        1 SQA      0.104033
     32 H1C2       -2.4950    1.1050   -0.4320 hx        1 SQA      0.104033
     33 H1C3       -1.6140   -0.2000    0.5170 hx        1 SQA      0.104033
     34 H3C1        1.6360    1.4510    0.5190 hx        1 SQA      0.099700
     35 H3C2        0.4830    0.4920    1.5690 hx        1 SQA      0.099700
     36 H4C1        0.7930    3.5880    1.3600 hc        1 SQA      0.074700
     37 H4C2       -0.5770    2.7950    2.2540 hc        1 SQA      0.074700
     38 H5C1        1.0440    1.5640    3.7030 hc        1 SQA      0.056700
     39 H5C2        2.4320    2.2550    2.7730 hc        1 SQA      0.056700
     40 H7          0.4890    4.8480    5.5090 ha        1 SQA      0.137000
     41 H8C1       -0.5540    2.5720    6.2080 hc        1 SQA      0.049200
     42 H8C2       -0.8680    2.2500    4.4560 hc        1 SQA      0.049200
     43 H9C1       -1.8870    4.7220    6.0220 hc        1 SQA      0.050700
     44 H9C2       -2.2320    4.3460    4.2910 hc        1 SQA      0.050700
     45 H11        -4.8220    1.7820    5.2850 ha        1 SQA      0.132000
     46 H121       -2.8690    2.7030    3.0520 hc        1 SQA      0.028200
     47 H122       -3.9280    1.2380    3.0800 hc        1 SQA      0.028200
     48 H131       -5.9370    2.9370    3.3090 hc        1 SQA      0.062700
     49 H132       -4.7510    4.2070    2.8310 hc        1 SQA      0.062700
     50 H14        -6.0080    2.0010    1.1770 ha        1 SQA      0.131000
     51 H161       -2.4080    3.5070    0.6190 hc        1 SQA      0.031700
     52 H162       -3.5150    4.7660    1.2850 hc        1 SQA      0.031700
     53 H171       -4.0640    5.3720   -1.2030 hc        1 SQA      0.066700
     54 H172       -2.5060    5.8930   -0.4570 hc        1 SQA      0.066700
     55 H18        -2.9800    3.8490   -2.6700 ha        1 SQA      0.131000
     56 H201       -0.4700    4.8000   -0.0250 hc        1 SQA      0.059200
     57 H202       -0.1740    6.0930   -1.2470 hc        1 SQA      0.059200
     58 H211        1.4500    3.4580   -1.0450 hc        1 SQA      0.031200
     59 H212        1.7460    4.8150   -2.1980 hc        1 SQA      0.031200
     60 H22         1.6360    5.7520    0.6680 ha        1 SQA      0.128000
     61 H241        3.8920    3.6770   -1.5610 hc        1 SQA      0.050033
     62 H242        5.3810    4.5310   -0.9740 hc        1 SQA      0.050033
     63 H243        4.2970    5.3280   -2.1890 hc        1 SQA      0.050033
     64 H251       -0.6850    0.6740   -2.0950 hx        1 SQA      0.104033
     65 H252        1.0360    1.1430   -1.6740 hx        1 SQA      0.104033
     66 H253        0.3050   -0.3860   -0.9710 hx        1 SQA      0.104033
     67 H261        2.3890    5.5460    4.3580 hc        1 SQA      0.048700
     68 H262        3.4650    4.1090    4.1120 hc        1 SQA      0.048700
     69 H263        2.6190    4.8590    2.6930 hc        1 SQA      0.048700
     70 H271       -2.4480    2.7090    7.7140 hc        1 SQA      0.049700
     71 H272       -3.7120    3.9980    7.5570 hc        1 SQA      0.049700
     72 H273       -4.1860    2.2510    7.4670 hc        1 SQA      0.049700
     73 H281       -5.1830    3.5360   -1.7250 hc        1 SQA      0.042033
     74 H282       -5.6670    1.9230   -1.0620 hc        1 SQA      0.042033
     75 H283       -3.9580    2.2070   -1.5920 hc        1 SQA      0.042033
     76 H291        0.3160    2.8640   -2.9510 hc        1 SQA      0.044367
     77 H292       -1.1580    3.2580   -3.9310 hc        1 SQA      0.044367
     78 H293        0.1940    4.4560   -3.8100 hc        1 SQA      0.044367
     79 H301        4.9130    5.2770    1.4370 hc        1 SQA      0.050033
     80 H302        5.0210    6.7310    0.3600 hc        1 SQA      0.050033
     81 H303        3.6570    6.5820    1.5460 hc        1 SQA      0.050033
     82 H21        -0.5510    2.4300   -0.4300 hn        1 SQA      0.470800
@<TRIPOS>BOND
     1    1    2 1   
     2    1   31 1   
     3    1   32 1   
     4    1   33 1   
     5    2    3 1   
     6    2   25 1   
     7    2   82 1   
     8    3    4 1   
     9    3   34 1   
    10    3   35 1   
    11    4    5 1   
    12    4   36 1   
    13    4   37 1   
    14    5    6 1   
    15    5   38 1   
    16    5   39 1   
    17    6    7 2   
    18    6   26 1   
    19    7    8 1   
    20    7   40 1   
    21    8    9 1   
    22    8   41 1   
    23    8   42 1   
    24    9   10 1   
    25    9   43 1   
    26    9   44 1   
    27   10   11 2   
    28   10   27 1   
    29   11   12 1   
    30   11   45 1   
    31   12   13 1   
    32   12   46 1   
    33   12   47 1   
    34   13   14 1   
    35   13   48 1   
    36   13   49 1   
    37   14   15 2   
    38   14   50 1   
    39   15   16 1   
    40   15   28 1   
    41   16   17 1   
    42   16   51 1   
    43   16   52 1   
    44   17   18 1   
    45   17   53 1   
    46   17   54 1   
    47   18   19 2   
    48   18   55 1   
    49   19   20 1   
    50   19   29 1   
    51   20   21 1   
    52   20   56 1   
    53   20   57 1   
    54   21   22 1   
    55   21   58 1   
    56   21   59 1   
    57   22   23 2   
    58   22   60 1   
    59   23   24 1   
    60   23   30 1   
    61   24   61 1   
    62   24   62 1   
    63   24   63 1   
    64   25   64 1   
    65   25   65 1   
    66   25   66 1   
    67   26   67 1   
    68   26   68 1   
    69   26   69 1   
    70   27   70 1   
    71   27   71 1   
    72   27   72 1   
    73   28   73 1   
    74   28   74 1   
    75   28   75 1   
    76   29   76 1   
    77   29   77 1   
    78   29   78 1   
    79   30   79 1   
    80   30   80 1   
    81   30   81 1   
@<TRIPOS>SUBSTRUCTURE
     1 SQA         1 TEMP              0 ****  ****    0 ROOT
