@<TRIPOS>MOLECULE
SQL
   80    79     1     0     0
SMALL
bcc


@<TRIPOS>ATOM
      1 C1          4.3850    0.9570   -1.6490 c3        1 SQL     -0.057900
      2 C2          3.4820    1.0580   -0.4770 c2        1 SQL     -0.124400
      3 C3          4.0960    0.7710    0.8410 c3        1 SQL     -0.057900
      4 C4          2.1860    1.3860   -0.5990 c2        1 SQL     -0.177200
      5 C5          1.5390    1.6840   -1.8970 c3        1 SQL     -0.043200
      6 C6          0.0390    1.8730   -1.7560 c3        1 SQL     -0.038200
      7 C7         -0.5950    2.2280   -3.0570 c2        1 SQL     -0.123400
      8 C8         -0.2730    3.5660   -3.6070 c3        1 SQL     -0.058900
      9 C9         -1.4210    1.3770   -3.6880 c2        1 SQL     -0.174200
     10 C10        -2.0890    1.6900   -4.9720 c3        1 SQL     -0.043200
     11 C11        -2.8130    0.4850   -5.5460 c3        1 SQL     -0.038200
     12 C12        -3.5280    0.8230   -6.8090 c2        1 SQL     -0.123400
     13 C13        -4.6990    1.7230   -6.6860 c3        1 SQL     -0.058900
     14 C14        -3.1300    0.3260   -7.9920 c2        1 SQL     -0.173200
     15 C15        -3.8180    0.6160   -9.2710 c3        1 SQL     -0.044200
     16 C16        -3.0500    0.0810  -10.4650 c3        1 SQL     -0.044200
     17 C17        -3.7350    0.3750  -11.7450 c2        1 SQL     -0.173200
     18 C18        -3.1870    0.1410  -12.9480 c2        1 SQL     -0.123400
     19 C19        -1.8280   -0.4330  -13.0970 c3        1 SQL     -0.058900
     20 C20        -3.9260    0.4370  -14.2090 c3        1 SQL     -0.038200
     21 C21        -3.2960    1.5910  -14.9680 c3        1 SQL     -0.043200
     22 C22        -3.9900    1.8570  -16.2490 c2        1 SQL     -0.174200
     23 C23        -3.7210    2.9160  -17.0300 c2        1 SQL     -0.123400
     24 C24        -4.4360    3.1310  -18.3200 c3        1 SQL     -0.038200
     25 C25        -5.3490    4.3420  -18.2610 c3        1 SQL     -0.043200
     26 C26        -6.0200    4.5960  -19.5560 c2        1 SQL     -0.177200
     27 C27        -6.9680    5.5320  -19.7260 c2        1 SQL     -0.124400
     28 C28        -7.6150    5.7600  -21.0400 c3        1 SQL     -0.057900
     29 C29        -7.4340    6.3950  -18.6130 c3        1 SQL     -0.057900
     30 C30        -2.6970    3.9250  -16.6650 c3        1 SQL     -0.058900
     31 H1          4.3280    1.8870   -2.2690 hc        1 SQL      0.040533
     32 H2          5.4460    0.8050   -1.3340 hc        1 SQL      0.040533
     33 H3          4.0810    0.0950   -2.2960 hc        1 SQL      0.040533
     34 H4          3.3480    0.8350    1.6690 hc        1 SQL      0.040533
     35 H5          4.5370   -0.2570    0.8430 hc        1 SQL      0.040533
     36 H6          4.9170    1.5020    1.0500 hc        1 SQL      0.040533
     37 H7          1.5400    1.4490    0.2920 ha        1 SQL      0.122000
     38 H8          1.9930    2.6150   -2.3370 hc        1 SQL      0.049700
     39 H9         -0.4130    0.9320   -1.3430 hc        1 SQL      0.045700
     40 H10         0.2700    4.1950   -2.8600 hc        1 SQL      0.041367
     41 H11         0.3720    3.4630   -4.5170 hc        1 SQL      0.041367
     42 H12        -1.2080    4.1020   -3.9090 hc        1 SQL      0.041367
     43 H13        -1.6410    0.3870   -3.2560 ha        1 SQL      0.123000
     44 H14        -1.3290    2.0590   -5.7150 hc        1 SQL      0.050200
     45 H15        -2.0720   -0.3400   -5.7230 hc        1 SQL      0.046200
     46 H16        -4.4660    2.7210   -7.1380 hc        1 SQL      0.041033
     47 H17        -5.5800    1.2970   -7.2300 hc        1 SQL      0.041033
     48 H18        -4.9840    1.8790   -5.6170 hc        1 SQL      0.041033
     49 H19        -2.2550   -0.3410   -8.0530 ha        1 SQL      0.123000
     50 H20        -3.9580    1.7260   -9.3830 hc        1 SQL      0.049200
     51 H21        -4.8470    0.1620   -9.2520 hc        1 SQL      0.049200
     52 H22        -2.0170    0.5250  -10.4770 hc        1 SQL      0.049200
     53 H23        -4.7470    0.8040  -11.6650 ha        1 SQL      0.123000
     54 H24        -1.7120   -1.3370  -12.4480 hc        1 SQL      0.041033
     55 H25        -1.0580    0.3170  -12.7840 hc        1 SQL      0.041033
     56 H26        -1.6230   -0.7270  -14.1550 hc        1 SQL      0.041033
     57 H27        -3.9250   -0.4810  -14.8560 hc        1 SQL      0.046200
     58 H28        -2.2130    1.3590  -15.1710 hc        1 SQL      0.050200
     59 H29        -4.7590    1.1250  -16.5450 ha        1 SQL      0.123000
     60 H30        -3.6780    3.2740  -19.1380 hc        1 SQL      0.045700
     61 H31        -4.7500    5.2480  -17.9650 hc        1 SQL      0.049700
     62 H32        -6.1210    4.1900  -17.4570 hc        1 SQL      0.049700
     63 H33        -5.6980    3.9670  -20.4020 ha        1 SQL      0.122000
     64 H34        -7.2360    5.0520  -21.8160 hc        1 SQL      0.040533
     65 H35        -7.4170    6.8050  -21.3880 hc        1 SQL      0.040533
     66 H36        -8.7220    5.6270  -20.9500 hc        1 SQL      0.040533
     67 H37        -8.1240    7.1940  -18.9800 hc        1 SQL      0.040533
     68 H38        -6.5640    6.8830  -18.1050 hc        1 SQL      0.040533
     69 H39        -7.9770    5.7810  -17.8510 hc        1 SQL      0.040533
     70 H40        -3.0520    4.5360  -15.7960 hc        1 SQL      0.041367
     71 H41        -2.4830    4.6150  -17.5170 hc        1 SQL      0.041367
     72 H42        -1.7430    3.4230  -16.3660 hc        1 SQL      0.041367
     73 H43         1.7450    0.8500   -2.6230 hc        1 SQL      0.049700
     74 H44        -0.1660    2.6920   -1.0150 hc        1 SQL      0.045700
     75 H45        -2.8240    2.5280   -4.8170 hc        1 SQL      0.050200
     76 H46        -3.5580    0.1050   -4.7950 hc        1 SQL      0.046200
     77 H47        -2.9220   -1.0320  -10.3600 hc        1 SQL      0.049200
     78 H48        -4.9980    0.6840  -13.9850 hc        1 SQL      0.046200
     79 H49        -3.3130    2.5160  -14.3280 hc        1 SQL      0.050200
     80 H50        -5.0430    2.2250  -18.5870 hc        1 SQL      0.045700
@<TRIPOS>BOND
     1    1    2 1   
     2    1   31 1   
     3    1   32 1   
     4    1   33 1   
     5    2    3 1   
     6    2    4 2   
     7    3   34 1   
     8    3   35 1   
     9    3   36 1   
    10    4    5 1   
    11    4   37 1   
    12    5    6 1   
    13    5   38 1   
    14    5   73 1   
    15    6    7 1   
    16    6   39 1   
    17    6   74 1   
    18    7    8 1   
    19    7    9 2   
    20    8   40 1   
    21    8   41 1   
    22    8   42 1   
    23    9   10 1   
    24    9   43 1   
    25   10   11 1   
    26   10   44 1   
    27   10   75 1   
    28   11   12 1   
    29   11   45 1   
    30   11   76 1   
    31   12   13 1   
    32   12   14 2   
    33   13   46 1   
    34   13   47 1   
    35   13   48 1   
    36   14   15 1   
    37   14   49 1   
    38   15   16 1   
    39   15   50 1   
    40   15   51 1   
    41   16   17 1   
    42   16   52 1   
    43   16   77 1   
    44   17   18 2   
    45   17   53 1   
    46   18   19 1   
    47   18   20 1   
    48   19   54 1   
    49   19   55 1   
    50   19   56 1   
    51   20   21 1   
    52   20   57 1   
    53   20   78 1   
    54   21   22 1   
    55   21   58 1   
    56   21   79 1   
    57   22   23 2   
    58   22   59 1   
    59   23   24 1   
    60   23   30 1   
    61   24   25 1   
    62   24   60 1   
    63   24   80 1   
    64   25   26 1   
    65   25   61 1   
    66   25   62 1   
    67   26   27 2   
    68   26   63 1   
    69   27   28 1   
    70   27   29 1   
    71   28   64 1   
    72   28   65 1   
    73   28   66 1   
    74   29   67 1   
    75   29   68 1   
    76   29   69 1   
    77   30   70 1   
    78   30   71 1   
    79   30   72 1   
@<TRIPOS>SUBSTRUCTURE
     1 SQL         1 TEMP              0 ****  ****    0 ROOT
