@<TRIPOS>MOLECULE
SQL
   80    79     1     0     0
SMALL
bcc


@<TRIPOS>ATOM
      1 C1          4.4340    1.1170   -1.6830 c3        1 SQL     -0.057900
      2 C2          3.5320    1.1520   -0.5060 c2        1 SQL     -0.124400
      3 C3          4.1650    0.8710    0.8050 c3        1 SQL     -0.057900
      4 C4          2.2200    1.4160   -0.6180 c2        1 SQL     -0.177200
      5 C5          1.5540    1.7060   -1.9080 c3        1 SQL     -0.043200
      6 C6          0.0470    1.8180   -1.7590 c3        1 SQL     -0.038200
      7 C7         -0.6090    2.1650   -3.0510 c2        1 SQL     -0.123400
      8 C8         -0.3540    3.5270   -3.5780 c3        1 SQL     -0.058900
      9 C9         -1.3950    1.2870   -3.6940 c2        1 SQL     -0.174200
     10 C10        -2.0830    1.5900   -4.9710 c3        1 SQL     -0.043200
     11 C11        -2.7530    0.3630   -5.5620 c3        1 SQL     -0.038200
     12 C12        -3.4880    0.6890   -6.8170 c2        1 SQL     -0.123400
     13 C13        -4.7000    1.5310   -6.6740 c3        1 SQL     -0.058900
     14 C14        -3.0730    0.2320   -8.0090 c2        1 SQL     -0.173200
     15 C15        -3.7790    0.5120   -9.2810 c3        1 SQL     -0.044200
     16 C16        -2.9940    0.0310  -10.4860 c3        1 SQL     -0.044200
     17 C17        -3.6970    0.3180  -11.7580 c2        1 SQL     -0.173200
     18 C18        -3.1450    0.1250  -12.9680 c2        1 SQL     -0.123400
     19 C19        -1.7650   -0.3910  -13.1310 c3        1 SQL     -0.058900
     20 C20        -3.9010    0.4120  -14.2200 c3        1 SQL     -0.038200
     21 C21        -3.3220    1.6020  -14.9630 c3        1 SQL     -0.043200
     22 C22        -4.0330    1.8610  -16.2370 c2        1 SQL     -0.174200
     23 C23        -3.8080    2.9410  -17.0030 c2        1 SQL     -0.123400
     24 C24        -4.5370    3.1480  -18.2860 c3        1 SQL     -0.038200
     25 C25        -5.4970    4.3220  -18.2020 c3        1 SQL     -0.043200
     26 C26        -6.1790    4.5750  -19.4920 c2        1 SQL     -0.177200
     27 C27        -6.9980    5.6180  -19.7030 c2        1 SQL     -0.124400
     28 C28        -7.6670    5.8360  -21.0070 c3        1 SQL     -0.057900
     29 C29        -7.2850    6.6210  -18.6490 c3        1 SQL     -0.057900
     30 C30        -2.8220    3.9820  -16.6270 c3        1 SQL     -0.058900
     31 H1          4.3290    2.0560   -2.2840 hc        1 SQL      0.040450
     32 H2          5.5020    1.0120   -1.3740 hc        1 SQL      0.040450
     33 H3          4.1700    0.2550   -2.3460 hc        1 SQL      0.040450
     34 H4          3.4180    0.8830    1.6360 hc        1 SQL      0.040450
     35 H5          4.6560   -0.1340    0.7860 hc        1 SQL      0.040450
     36 H6          4.9490    1.6380    1.0240 hc        1 SQL      0.040450
     37 H7          1.5750    1.4310    0.2760 ha        1 SQL      0.122000
     38 H8          1.9610    2.6650   -2.3330 hc        1 SQL      0.049950
     39 H9         -0.3570    0.8490   -1.3620 hc        1 SQL      0.045700
     40 H10         0.1610    4.1680   -2.8210 hc        1 SQL      0.041367
     41 H11         0.2910    3.4720   -4.4920 hc        1 SQL      0.041367
     42 H12        -1.3160    4.0220   -3.8650 hc        1 SQL      0.041367
     43 H13        -1.5650    0.2800   -3.2800 ha        1 SQL      0.123000
     44 H14        -1.3450    2.0070   -5.7090 hc        1 SQL      0.050200
     45 H15        -1.9750   -0.4230   -5.7560 hc        1 SQL      0.046200
     46 H16        -4.5160    2.5460   -7.1100 hc        1 SQL      0.041033
     47 H17        -5.5620    1.0730   -7.2210 hc        1 SQL      0.041033
     48 H18        -4.9860    1.6560   -5.6010 hc        1 SQL      0.041033
     49 H19        -2.1680   -0.3920   -8.0860 ha        1 SQL      0.123000
     50 H20        -3.9690    1.6170   -9.3730 hc        1 SQL      0.049200
     51 H21        -4.7870    0.0120   -9.2650 hc        1 SQL      0.049200
     52 H22        -1.9810    0.5200  -10.4950 hc        1 SQL      0.049200
     53 H23        -4.7250    0.7040  -11.6670 ha        1 SQL      0.123000
     54 H24        -1.6100   -1.3010  -12.4990 hc        1 SQL      0.041033
     55 H25        -1.0240    0.3840  -12.8070 hc        1 SQL      0.041033
     56 H26        -1.5520   -0.6580  -14.1950 hc        1 SQL      0.041033
     57 H27        -3.8670   -0.4950  -14.8830 hc        1 SQL      0.046200
     58 H28        -2.2320    1.4170  -15.1750 hc        1 SQL      0.050200
     59 H29        -4.7740    1.1040  -16.5400 ha        1 SQL      0.123000
     60 H30        -3.7900    3.3350  -19.1050 hc        1 SQL      0.045700
     61 H31        -4.9350    5.2430  -17.8830 hc        1 SQL      0.049950
     62 H32        -6.2660    4.1210  -17.4060 hc        1 SQL      0.049950
     63 H33        -5.9830    3.8470  -20.2960 ha        1 SQL      0.122000
     64 H34        -7.3790    5.0580  -21.7560 hc        1 SQL      0.040450
     65 H35        -7.3910    6.8400  -21.4170 hc        1 SQL      0.040450
     66 H36        -8.7780    5.8060  -20.8780 hc        1 SQL      0.040450
     67 H37        -8.0750    7.3400  -18.9770 hc        1 SQL      0.040450
     68 H38        -6.3590    7.2000  -18.4050 hc        1 SQL      0.040450
     69 H39        -7.6310    6.1160  -17.7120 hc        1 SQL      0.040450
     70 H40        -3.1950    4.5660  -15.7470 hc        1 SQL      0.041367
     71 H41        -2.6380    4.6940  -17.4690 hc        1 SQL      0.041367
     72 H42        -1.8470    3.5130  -16.3400 hc        1 SQL      0.041367
     73 H43         1.7980    0.8960   -2.6500 hc        1 SQL      0.049950
     74 H44        -0.1950    2.6130   -1.0020 hc        1 SQL      0.045700
     75 H45        -2.8550    2.3910   -4.7990 hc        1 SQL      0.050200
     76 H46        -3.4770   -0.0640   -4.8150 hc        1 SQL      0.046200
     77 H47        -2.8170   -1.0770  -10.4020 hc        1 SQL      0.049200
     78 H48        -4.9810    0.6120  -13.9890 hc        1 SQL      0.046200
     79 H49        -3.3730    2.5140  -14.3080 hc        1 SQL      0.050200
     80 H50        -5.1100    2.2230  -18.5650 hc        1 SQL      0.045700
@<TRIPOS>BOND
     1    1    2 1   
     2    1   31 1   
     3    1   32 1   
     4    1   33 1   
     5    2    3 1   
     6    2    4 2   
     7    3   34 1   
     8    3   35 1   
     9    3   36 1   
    10    4    5 1   
    11    4   37 1   
    12    5    6 1   
    13    5   38 1   
    14    5   73 1   
    15    6    7 1   
    16    6   39 1   
    17    6   74 1   
    18    7    8 1   
    19    7    9 2   
    20    8   40 1   
    21    8   41 1   
    22    8   42 1   
    23    9   10 1   
    24    9   43 1   
    25   10   11 1   
    26   10   44 1   
    27   10   75 1   
    28   11   12 1   
    29   11   45 1   
    30   11   76 1   
    31   12   13 1   
    32   12   14 2   
    33   13   46 1   
    34   13   47 1   
    35   13   48 1   
    36   14   15 1   
    37   14   49 1   
    38   15   16 1   
    39   15   50 1   
    40   15   51 1   
    41   16   17 1   
    42   16   52 1   
    43   16   77 1   
    44   17   18 2   
    45   17   53 1   
    46   18   19 1   
    47   18   20 1   
    48   19   54 1   
    49   19   55 1   
    50   19   56 1   
    51   20   21 1   
    52   20   57 1   
    53   20   78 1   
    54   21   22 1   
    55   21   58 1   
    56   21   79 1   
    57   22   23 2   
    58   22   59 1   
    59   23   24 1   
    60   23   30 1   
    61   24   25 1   
    62   24   60 1   
    63   24   80 1   
    64   25   26 1   
    65   25   61 1   
    66   25   62 1   
    67   26   27 2   
    68   26   63 1   
    69   27   28 1   
    70   27   29 1   
    71   28   64 1   
    72   28   65 1   
    73   28   66 1   
    74   29   67 1   
    75   29   68 1   
    76   29   69 1   
    77   30   70 1   
    78   30   71 1   
    79   30   72 1   
@<TRIPOS>SUBSTRUCTURE
     1 SQL         1 TEMP              0 ****  ****    0 ROOT
