@<TRIPOS>MOLECULE
SQL
   80    79     1     0     0
SMALL
bcc


@<TRIPOS>ATOM
      1 C1        -10.4190   -2.2920    1.8690 c3        1 SQL     -0.057900
      2 C2        -11.1160   -1.0770    1.3840 c2        1 SQL     -0.124400
      3 C3        -12.5960   -1.1450    1.3550 c3        1 SQL     -0.057900
      4 C4        -10.4490    0.0210    0.9910 c2        1 SQL     -0.177200
      5 C5         -8.9720    0.1270    1.0100 c3        1 SQL     -0.043200
      6 C6         -8.4860    1.4160    0.3710 c3        1 SQL     -0.038200
      7 C7         -7.0020    1.5410    0.4450 c2        1 SQL     -0.123400
      8 C8         -6.4220    1.7500    1.7930 c3        1 SQL     -0.058900
      9 C9         -6.2390    1.4740   -0.6580 c2        1 SQL     -0.174200
     10 C10        -4.7640    1.6100   -0.6380 c3        1 SQL     -0.043200
     11 C11        -4.1470    1.3120   -1.9930 c3        1 SQL     -0.038200
     12 C12        -2.6690    1.5040   -1.9780 c2        1 SQL     -0.123400
     13 C13        -2.1840    2.8980   -1.8370 c3        1 SQL     -0.058900
     14 C14        -1.8270    0.4640   -2.0950 c2        1 SQL     -0.173200
     15 C15        -0.3520    0.6050   -2.1040 c3        1 SQL     -0.044200
     16 C16         0.3480   -0.7390   -2.0620 c3        1 SQL     -0.044200
     17 C17         1.8230   -0.5980   -2.0650 c2        1 SQL     -0.173200
     18 C18         2.6650   -1.6280   -1.8830 c2        1 SQL     -0.123400
     19 C19         2.1810   -3.0100   -1.6530 c3        1 SQL     -0.058900
     20 C20         4.1430   -1.4380   -1.9130 c3        1 SQL     -0.038200
     21 C21         4.7630   -1.6490   -0.5430 c3        1 SQL     -0.043200
     22 C22         6.2380   -1.5150   -0.5750 c2        1 SQL     -0.174200
     23 C23         7.0030   -1.5120    0.5290 c2        1 SQL     -0.123400
     24 C24         8.4870   -1.3920    0.4440 c3        1 SQL     -0.038200
     25 C25         8.9740   -0.0660    0.9990 c3        1 SQL     -0.043200
     26 C26        10.4510    0.0390    0.9700 c2        1 SQL     -0.177200
     27 C27        11.1190    1.1590    1.2930 c2        1 SQL     -0.124400
     28 C28        12.5990    1.2240    1.2570 c3        1 SQL     -0.057900
     29 C29        10.4230    2.4030    1.7010 c3        1 SQL     -0.057900
     30 C30         6.4260   -1.6360    1.8890 c3        1 SQL     -0.058900
     31 H1         -9.6920   -2.0310    2.6780 hc        1 SQL      0.040533
     32 H2        -11.1430   -3.0430    2.2710 hc        1 SQL      0.040533
     33 H3         -9.8450   -2.7670    1.0320 hc        1 SQL      0.040533
     34 H4        -12.9930   -1.3070    2.3890 hc        1 SQL      0.040533
     35 H5        -13.0460   -0.2050    0.9490 hc        1 SQL      0.040533
     36 H6        -12.9280   -2.0010    0.7160 hc        1 SQL      0.040533
     37 H7        -10.9950    0.9080    0.6310 ha        1 SQL      0.122000
     38 H8         -8.6060    0.0750    2.0730 hc        1 SQL      0.049700
     39 H9         -8.8290    1.4500   -0.6980 hc        1 SQL      0.045700
     40 H10        -7.2160    1.9660    2.5500 hc        1 SQL      0.041367
     41 H11        -5.8640    0.8360    2.1190 hc        1 SQL      0.041367
     42 H12        -5.7020    2.6070    1.7810 hc        1 SQL      0.041367
     43 H13        -6.6970    1.3150   -1.6470 ha        1 SQL      0.123000
     44 H14        -4.4890    2.6550   -0.3240 hc        1 SQL      0.050200
     45 H15        -4.4020    0.2590   -2.2900 hc        1 SQL      0.046200
     46 H16        -3.0190    3.6330   -1.9400 hc        1 SQL      0.041033
     47 H17        -1.7110    3.0410   -0.8330 hc        1 SQL      0.041033
     48 H18        -1.4140    3.1250   -2.6170 hc        1 SQL      0.041033
     49 H19        -2.2160   -0.5620   -2.1970 ha        1 SQL      0.123000
     50 H20        -0.0380    1.1640   -3.0290 hc        1 SQL      0.049200
     51 H21        -0.0260    1.2260   -1.2260 hc        1 SQL      0.049200
     52 H22         0.0240   -1.3040   -1.1450 hc        1 SQL      0.049200
     53 H23         2.2120    0.4200   -2.2320 ha        1 SQL      0.123000
     54 H24         1.4090   -3.2870   -2.4150 hc        1 SQL      0.041033
     55 H25         3.0160   -3.7510   -1.7110 hc        1 SQL      0.041033
     56 H26         1.7090   -3.0900   -0.6410 hc        1 SQL      0.041033
     57 H27         4.5900   -2.1660   -2.6420 hc        1 SQL      0.046200
     58 H28         4.3300   -0.9070    0.1830 hc        1 SQL      0.050200
     59 H29         6.6940   -1.4190   -1.5730 ha        1 SQL      0.123000
     60 H30         8.9540   -2.2340    1.0240 hc        1 SQL      0.045700
     61 H31         8.5230    0.7770    0.4060 hc        1 SQL      0.049700
     62 H32         8.6100    0.0530    2.0570 hc        1 SQL      0.049700
     63 H33        10.9970   -0.8690    0.6670 ha        1 SQL      0.122000
     64 H34        12.9300    2.0380    0.5640 hc        1 SQL      0.040533
     65 H35        12.9980    1.4520    2.2770 hc        1 SQL      0.040533
     66 H36        13.0480    0.2620    0.9100 hc        1 SQL      0.040533
     67 H37         9.6980    2.1930    2.5270 hc        1 SQL      0.040533
     68 H38        11.1480    3.1770    2.0530 hc        1 SQL      0.040533
     69 H39         9.8480    2.8240    0.8380 hc        1 SQL      0.040533
     70 H40         5.7060   -2.4910    1.9320 hc        1 SQL      0.041367
     71 H41         7.2210   -1.8030    2.6560 hc        1 SQL      0.041367
     72 H42         5.8680   -0.7030    2.1560 hc        1 SQL      0.041367
     73 H43        -8.5220   -0.7510    0.4710 hc        1 SQL      0.049700
     74 H44        -8.9530    2.2930    0.8970 hc        1 SQL      0.045700
     75 H45        -4.3300    0.9160    0.1330 hc        1 SQL      0.050200
     76 H46        -4.5960    1.9930   -2.7660 hc        1 SQL      0.046200
     77 H47         0.0330   -1.3550   -2.9490 hc        1 SQL      0.049200
     78 H48         4.3980   -0.4060   -2.2770 hc        1 SQL      0.046200
     79 H49         4.4880   -2.6720   -0.1630 hc        1 SQL      0.050200
     80 H50         8.8280   -1.4940   -0.6210 hc        1 SQL      0.045700
@<TRIPOS>BOND
     1    1    2 1   
     2    1   31 1   
     3    1   32 1   
     4    1   33 1   
     5    2    3 1   
     6    2    4 2   
     7    3   34 1   
     8    3   35 1   
     9    3   36 1   
    10    4    5 1   
    11    4   37 1   
    12    5    6 1   
    13    5   38 1   
    14    5   73 1   
    15    6    7 1   
    16    6   39 1   
    17    6   74 1   
    18    7    8 1   
    19    7    9 2   
    20    8   40 1   
    21    8   41 1   
    22    8   42 1   
    23    9   10 1   
    24    9   43 1   
    25   10   11 1   
    26   10   44 1   
    27   10   75 1   
    28   11   12 1   
    29   11   45 1   
    30   11   76 1   
    31   12   13 1   
    32   12   14 2   
    33   13   46 1   
    34   13   47 1   
    35   13   48 1   
    36   14   15 1   
    37   14   49 1   
    38   15   16 1   
    39   15   50 1   
    40   15   51 1   
    41   16   17 1   
    42   16   52 1   
    43   16   77 1   
    44   17   18 2   
    45   17   53 1   
    46   18   19 1   
    47   18   20 1   
    48   19   54 1   
    49   19   55 1   
    50   19   56 1   
    51   20   21 1   
    52   20   57 1   
    53   20   78 1   
    54   21   22 1   
    55   21   58 1   
    56   21   79 1   
    57   22   23 2   
    58   22   59 1   
    59   23   24 1   
    60   23   30 1   
    61   24   25 1   
    62   24   60 1   
    63   24   80 1   
    64   25   26 1   
    65   25   61 1   
    66   25   62 1   
    67   26   27 2   
    68   26   63 1   
    69   27   28 1   
    70   27   29 1   
    71   28   64 1   
    72   28   65 1   
    73   28   66 1   
    74   29   67 1   
    75   29   68 1   
    76   29   69 1   
    77   30   70 1   
    78   30   71 1   
    79   30   72 1   
@<TRIPOS>SUBSTRUCTURE
     1 SQL         1 TEMP              0 ****  ****    0 ROOT
