@<TRIPOS>MOLECULE
SQO
   41    44     1     0     0
SMALL
bcc


@<TRIPOS>ATOM
      1 N1         -0.0930   -0.2210   -0.0250 n         1 SQO     -0.502400
      2 N3         -0.1580    0.5700    2.2500 nc        1 SQO     -0.609100
      3 C4          1.2110    0.2780    2.3940 ca        1 SQO      0.160400
      4 C5          1.9580   -0.2760    1.3080 ca        1 SQO     -0.182600
      5 C6          1.2740   -0.5440    0.0260 c         1 SQO      0.707100
      6 C7          3.3190   -0.5730    1.4160 ca        1 SQO     -0.057000
      7 C8          3.9330   -0.3180    2.6330 ca        1 SQO     -0.105200
      8 C10         1.8410    0.5400    3.6280 ca        1 SQO     -0.081000
      9 N12         5.2690   -0.4450    3.0550 na        1 SQO     -0.286300
     10 C13         5.2720   -0.0610    4.4370 cc        1 SQO      0.613700
     11 C2         -0.7200    0.3160    1.0950 cd        1 SQO      0.481800
     12 C9          3.1950    0.2420    3.7580 ca        1 SQO      0.130400
     13 N14         4.0560    0.4030    4.8600 nd        1 SQO     -0.617100
     14 N15         6.4110   -0.2090    5.2510 nh        1 SQO     -0.773200
     15 O16         1.8190   -1.0260   -0.9850 o         1 SQO     -0.629500
     16 C25         7.7010   -0.0170    4.6160 c3        1 SQO      0.172800
     17 C11         8.8290    0.1370    5.6640 c3        1 SQO      0.163800
     18 N6         10.1370    0.2070    5.0310 n3        1 SQO     -0.730600
     19 C12        11.2020   -0.2480    5.9180 c3        1 SQO      0.132800
     20 C131       12.5890   -0.1200    5.2790 c3        1 SQO      0.126400
     21 O2         12.8240    1.1950    4.7900 os        1 SQO     -0.412600
     22 C14        11.8290    1.6050    3.8600 c3        1 SQO      0.126400
     23 C15        10.4220    1.5190    4.4630 c3        1 SQO      0.132800
     24 HN1        -0.6000   -0.3820   -0.8640 hn        1 SQO      0.337500
     25 H7          3.8610   -0.9920    0.5540 ha        1 SQO      0.163000
     26 H10         1.2760    0.9700    4.4700 ha        1 SQO      0.170000
     27 HN12        5.9140   -1.0780    2.6570 hn        1 SQO      0.302700
     28 H2         -1.8020    0.5470    0.9830 h5        1 SQO      0.051800
     29 HN15        6.3140    0.2750    6.1250 hn        1 SQO      0.422800
     30 H25         7.9100   -0.9260    3.9840 h1        1 SQO      0.052700
     31 H25A        7.6990    0.8840    3.9370 h1        1 SQO      0.052700
     32 H9          8.8080   -0.7610    6.3450 h1        1 SQO      0.044200
     33 H101        8.6200    1.0500    6.2960 h1        1 SQO      0.044200
     34 H11        11.0170   -1.3330    6.1510 h1        1 SQO      0.042700
     35 H12        11.2030    0.3250    6.8910 h1        1 SQO      0.042700
     36 H13        12.7100   -0.8590    4.4430 h1        1 SQO      0.056450
     37 H14        13.3850   -0.2770    6.0530 h1        1 SQO      0.056450
     38 H15        12.0840    2.6720    3.6270 h1        1 SQO      0.056450
     39 H16        11.9010    0.9790    2.9310 h1        1 SQO      0.056450
     40 H17        10.3160    2.3370    5.2350 h1        1 SQO      0.042700
     41 H18         9.6720    1.7130    3.6470 h1        1 SQO      0.042700
@<TRIPOS>BOND
     1    1    5 1   
     2    1   11 1   
     3    1   24 1   
     4    2    3 1   
     5    2   11 2   
     6    3    4 ar  
     7    3    8 ar  
     8    4    5 1   
     9    4    6 ar  
    10    5   15 2   
    11    6    7 ar  
    12    6   25 1   
    13    7    9 1   
    14    7   12 ar  
    15    8   12 ar  
    16    8   26 1   
    17    9   10 1   
    18    9   27 1   
    19   10   13 2   
    20   10   14 1   
    21   11   28 1   
    22   12   13 1   
    23   14   16 1   
    24   14   29 1   
    25   16   17 1   
    26   16   30 1   
    27   16   31 1   
    28   17   18 1   
    29   17   32 1   
    30   17   33 1   
    31   18   19 1   
    32   18   23 1   
    33   19   20 1   
    34   19   34 1   
    35   19   35 1   
    36   20   21 1   
    37   20   36 1   
    38   20   37 1   
    39   21   22 1   
    40   22   23 1   
    41   22   38 1   
    42   22   39 1   
    43   23   40 1   
    44   23   41 1   
@<TRIPOS>SUBSTRUCTURE
     1 SQO         1 TEMP              0 ****  ****    0 ROOT
