@<TRIPOS>MOLECULE
SQO
   42    45     1     0     0
SMALL
bcc


@<TRIPOS>ATOM
      1 N1         -0.0990   -0.2430    0.2130 n         1 SQO     -0.490400
      2 N3          0.0280   -0.2580    2.6190 nc        1 SQO     -0.617100
      3 C4          1.4290   -0.2210    2.5530 ca        1 SQO      0.175400
      4 C5          2.1050   -0.1920    1.2870 ca        1 SQO     -0.139600
      5 C6          1.2930   -0.2050    0.0410 c         1 SQO      0.698100
      6 C7          3.4910   -0.1520    1.1740 ca        1 SQO     -0.056000
      7 C8          4.2240   -0.1420    2.3600 ca        1 SQO     -0.073200
      8 C10         2.1710   -0.2120    3.7500 ca        1 SQO     -0.042000
      9 N12         5.6040   -0.0680    2.6050 na        1 SQO     -0.251300
     10 C13         5.7240   -0.1390    4.0200 cc        1 SQO      0.407700
     11 C2         -0.6430   -0.2680    1.4920 cd        1 SQO      0.517800
     12 C9          3.5640   -0.1750    3.6590 ca        1 SQO      0.086400
     13 N14         4.5340   -0.1610    4.6770 nd        1 SQO     -0.485100
     14 N15         7.0170   -0.0820    4.7090 n4        1 SQO     -0.673000
     15 O16         1.7810   -0.1840   -1.1000 o         1 SQO     -0.588500
     16 C25         7.4340    1.3350    4.9700 c3        1 SQO      0.107800
     17 C11         8.7350    1.4070    5.7960 c3        1 SQO      0.136800
     18 N6          9.7830    0.5770    5.2280 n3        1 SQO     -0.775600
     19 C12        10.6410   -0.0250    6.2470 c3        1 SQO      0.123800
     20 C131       11.7830   -0.8490    5.6360 c3        1 SQO      0.124900
     21 O2         12.5210   -0.0890    4.6900 os        1 SQO     -0.389600
     22 C14        11.7010    0.4150    3.6460 c3        1 SQO      0.124900
     23 C15        10.5590    1.2750    4.2040 c3        1 SQO      0.123800
     24 HN1        -0.6860   -0.2530   -0.5920 hn        1 SQO      0.357500
     25 H7          3.9670   -0.1260    0.1790 ha        1 SQO      0.184000
     26 H10         1.6670   -0.2310    4.7310 ha        1 SQO      0.189000
     27 HN12        6.3100   -0.2770    1.9450 hn        1 SQO      0.323700
     28 H2         -1.7550   -0.2980    1.5530 h5        1 SQO      0.075800
     29 HN15        6.9290   -0.5810    5.6080 hn        1 SQO      0.478300
     30 H25         7.5640    1.8410    3.9730 hx        1 SQO      0.115200
     31 H25A        6.6050    1.8460    5.5390 hx        1 SQO      0.115200
     32 H9          8.5130    1.0780    6.8520 h1        1 SQO      0.082700
     33 H101        9.0080    2.5030    5.8350 h1        1 SQO      0.082700
     34 H11        10.0070   -0.7070    6.8800 h1        1 SQO      0.051450
     35 H12        11.0900    0.7620    6.9190 h1        1 SQO      0.051450
     36 H13        11.3870   -1.7800    5.1510 h1        1 SQO      0.067200
     37 H14        12.5310   -1.1130    6.4300 h1        1 SQO      0.067200
     38 H15        12.3900    1.0470    3.0260 h1        1 SQO      0.067200
     39 H16        11.2980   -0.4340    3.0340 h1        1 SQO      0.067200
     40 H17        11.0020    2.2320    4.6070 h1        1 SQO      0.051450
     41 H18         9.8610    1.5420    3.3620 h1        1 SQO      0.051450
     42 H152        7.7370   -0.5580    4.1480 hn        1 SQO      0.478300
@<TRIPOS>BOND
     1    1    5 1   
     2    1   11 1   
     3    1   24 1   
     4    2    3 1   
     5    2   11 2   
     6    3    4 ar  
     7    3    8 ar  
     8    4    5 1   
     9    4    6 ar  
    10    5   15 2   
    11    6    7 ar  
    12    6   25 1   
    13    7    9 1   
    14    7   12 ar  
    15    8   12 ar  
    16    8   26 1   
    17    9   10 1   
    18    9   27 1   
    19   10   13 2   
    20   10   14 1   
    21   11   28 1   
    22   12   13 1   
    23   14   16 1   
    24   14   29 1   
    25   14   42 1   
    26   16   17 1   
    27   16   30 1   
    28   16   31 1   
    29   17   18 1   
    30   17   32 1   
    31   17   33 1   
    32   18   19 1   
    33   18   23 1   
    34   19   20 1   
    35   19   34 1   
    36   19   35 1   
    37   20   21 1   
    38   20   36 1   
    39   20   37 1   
    40   21   22 1   
    41   22   23 1   
    42   22   38 1   
    43   22   39 1   
    44   23   40 1   
    45   23   41 1   
@<TRIPOS>SUBSTRUCTURE
     1 SQO         1 TEMP              0 ****  ****    0 ROOT
