@<TRIPOS>MOLECULE
SQO
   41    44     1     0     0
SMALL
bcc


@<TRIPOS>ATOM
      1 N1          6.4560   -1.0610   -0.2250 n         1 SQO     -0.502400
      2 N3          5.6770    0.9720    0.8070 nc        1 SQO     -0.609100
      3 C4          4.3600    0.6730    0.4120 ca        1 SQO      0.160400
      4 C5          4.0720   -0.5220   -0.3200 ca        1 SQO     -0.182600
      5 C6          5.1760   -1.4420   -0.6610 c         1 SQO      0.707100
      6 C7          2.7750   -0.8520   -0.7240 ca        1 SQO     -0.057000
      7 C8          1.7590    0.0350   -0.3960 ca        1 SQO     -0.105200
      8 C10         3.3240    1.5690    0.7470 ca        1 SQO     -0.081000
      9 N12         0.3680   -0.0170   -0.5970 na        1 SQO     -0.286300
     10 C13        -0.1400    1.2160   -0.0680 cc        1 SQO      0.613700
     11 C2          6.6220    0.1260    0.4830 cd        1 SQO      0.481800
     12 C9          2.0260    1.2610    0.3440 ca        1 SQO      0.130400
     13 N14         0.8250    1.9680    0.5450 nd        1 SQO     -0.617100
     14 N15        -1.4850    1.6000   -0.2310 nh        1 SQO     -0.773200
     15 O16         5.0450   -2.5060   -1.2950 o         1 SQO     -0.629500
     16 C25        -2.4750    0.5400   -0.2220 c3        1 SQO      0.172800
     17 C11        -3.9060    1.1050   -0.0600 c3        1 SQO      0.163800
     18 N6         -4.9090    0.0560   -0.1730 n3        1 SQO     -0.730600
     19 C12        -6.1950    0.5720   -0.6270 c3        1 SQO      0.132800
     20 C131       -7.2720   -0.5180   -0.6900 c3        1 SQO      0.126400
     21 O2         -7.3800   -1.2220    0.5410 os        1 SQO     -0.412600
     22 C14        -6.1410   -1.7960    0.9380 c3        1 SQO      0.126400
     23 C15        -5.0360   -0.7390    1.0420 c3        1 SQO      0.132800
     24 HN1         7.2340   -1.6450   -0.4280 hn        1 SQO      0.337500
     25 H7          2.5930   -1.7850   -1.2790 ha        1 SQO      0.163000
     26 H10         3.5340    2.4890    1.3130 ha        1 SQO      0.170000
     27 HN12       -0.0650   -0.5270   -1.3240 hn        1 SQO      0.302700
     28 H2          7.6610    0.3640    0.7960 h5        1 SQO      0.051800
     29 HN15       -1.7250    2.3820    0.3510 hn        1 SQO      0.422800
     30 H25        -2.4040   -0.0020   -1.2080 h1        1 SQO      0.052700
     31 H25A       -2.2750   -0.2080    0.5990 h1        1 SQO      0.052700
     32 H9         -3.9760    1.6460    0.9290 h1        1 SQO      0.044200
     33 H101       -4.0860    1.8610   -0.8760 h1        1 SQO      0.044200
     34 H11        -6.5670    1.4030    0.0420 h1        1 SQO      0.042700
     35 H12        -6.0540    0.9920   -1.6610 h1        1 SQO      0.042700
     36 H13        -8.2820   -0.0520   -0.8370 h1        1 SQO      0.056450
     37 H14        -7.0550   -1.2410   -1.5200 h1        1 SQO      0.056450
     38 H15        -6.3480   -2.2370    1.9480 h1        1 SQO      0.056450
     39 H16        -5.8510   -2.6040    0.2150 h1        1 SQO      0.056450
     40 H17        -4.0560   -1.2640    1.2160 h1        1 SQO      0.042700
     41 H18        -5.2480   -0.0900    1.9420 h1        1 SQO      0.042700
@<TRIPOS>BOND
     1    1    5 1   
     2    1   11 1   
     3    1   24 1   
     4    2    3 1   
     5    2   11 2   
     6    3    4 ar  
     7    3    8 ar  
     8    4    5 1   
     9    4    6 ar  
    10    5   15 2   
    11    6    7 ar  
    12    6   25 1   
    13    7    9 1   
    14    7   12 ar  
    15    8   12 ar  
    16    8   26 1   
    17    9   10 1   
    18    9   27 1   
    19   10   13 2   
    20   10   14 1   
    21   11   28 1   
    22   12   13 1   
    23   14   16 1   
    24   14   29 1   
    25   16   17 1   
    26   16   30 1   
    27   16   31 1   
    28   17   18 1   
    29   17   32 1   
    30   17   33 1   
    31   18   19 1   
    32   18   23 1   
    33   19   20 1   
    34   19   34 1   
    35   19   35 1   
    36   20   21 1   
    37   20   36 1   
    38   20   37 1   
    39   21   22 1   
    40   22   23 1   
    41   22   38 1   
    42   22   39 1   
    43   23   40 1   
    44   23   41 1   
@<TRIPOS>SUBSTRUCTURE
     1 SQO         1 TEMP              0 ****  ****    0 ROOT
