@<TRIPOS>MOLECULE
SQO
   41    44     1     0     0
SMALL
bcc


@<TRIPOS>ATOM
      1 N1         -0.1000   -0.2060   -0.0130 ns        1 SQO     -0.502400
      2 N3         -0.1630    0.5610    2.2700 nc        1 SQO     -0.609100
      3 C4          1.2080    0.2730    2.4080 ca        1 SQO      0.160400
      4 C5          1.9540   -0.2670    1.3140 ca        1 SQO     -0.182600
      5 C6          1.2670   -0.5250    0.0310 c         1 SQO      0.707100
      6 C7          3.3160   -0.5610    1.4150 ca        1 SQO     -0.057000
      7 C8          3.9330   -0.3170    2.6340 ca        1 SQO     -0.105200
      8 C10         1.8400    0.5240    3.6430 ca        1 SQO     -0.081000
      9 N12         5.2700   -0.4440    3.0500 na        1 SQO     -0.286300
     10 C13         5.2750   -0.0730    4.4370 cc        1 SQO      0.613700
     11 C2         -0.7270    0.3180    1.1140 cd        1 SQO      0.481800
     12 C9          3.1950    0.2290    3.7660 ca        1 SQO      0.130400
     13 N14         4.0590    0.3820    4.8680 nd        1 SQO     -0.617100
     14 N15         6.4170   -0.2270    5.2470 nu        1 SQO     -0.773200
     15 O16         1.8110   -0.9940   -0.9860 o         1 SQO     -0.629500
     16 C25         7.7040   -0.0230    4.6100 c3        1 SQO      0.172800
     17 C11         8.8340    0.1230    5.6570 c3        1 SQO      0.163800
     18 N6         10.1400    0.2050    5.0220 n3        1 SQO     -0.730600
     19 C12        11.2090   -0.2570    5.9010 c3        1 SQO      0.132800
     20 C131       12.5950   -0.1160    5.2600 c3        1 SQO      0.126400
     21 O2         12.8230    1.2050    4.7860 os        1 SQO     -0.412600
     22 C14        11.8240    1.6220    3.8630 c3        1 SQO      0.126400
     23 C15        10.4190    1.5250    4.4690 c3        1 SQO      0.132800
     24 HN1        -0.6100   -0.3590   -0.8530 hn        1 SQO      0.337500
     25 H7          3.8570   -0.9690    0.5470 ha        1 SQO      0.163000
     26 H10         1.2760    0.9440    4.4900 ha        1 SQO      0.170000
     27 HN12        5.9160   -1.0710    2.6440 hn        1 SQO      0.302700
     28 H2         -1.8090    0.5460    1.0060 h5        1 SQO      0.051800
     29 HN15        6.3200    0.2480    6.1250 hn        1 SQO      0.422800
     30 H25         7.9140   -0.9240    3.9670 h1        1 SQO      0.052700
     31 H25A        7.6970    0.8860    3.9420 h1        1 SQO      0.052700
     32 H9          8.8190   -0.7830    6.3280 h1        1 SQO      0.044200
     33 H101        8.6230    1.0280    6.3000 h1        1 SQO      0.044200
     34 H11        11.0280   -1.3450    6.1220 h1        1 SQO      0.042700
     35 H12        11.2110    0.3040    6.8800 h1        1 SQO      0.042700
     36 H13        13.3930   -0.2800    6.0300 h1        1 SQO      0.056450
     37 H14        12.7160   -0.8450    4.4150 h1        1 SQO      0.056450
     38 H15        11.8960    1.0080    2.9270 h1        1 SQO      0.056450
     39 H16        12.0750    2.6930    3.6430 h1        1 SQO      0.056450
     40 H17        10.3120    2.3330    5.2510 h1        1 SQO      0.042700
     41 H18         9.6670    1.7260    3.6570 h1        1 SQO      0.042700
@<TRIPOS>BOND
     1    1    5 1   
     2    1   11 1   
     3    1   24 1   
     4    2    3 1   
     5    2   11 2   
     6    3    4 ar  
     7    3    8 ar  
     8    4    5 1   
     9    4    6 ar  
    10    5   15 2   
    11    6    7 ar  
    12    6   25 1   
    13    7    9 1   
    14    7   12 ar  
    15    8   12 ar  
    16    8   26 1   
    17    9   10 1   
    18    9   27 1   
    19   10   13 2   
    20   10   14 1   
    21   11   28 1   
    22   12   13 1   
    23   14   16 1   
    24   14   29 1   
    25   16   17 1   
    26   16   30 1   
    27   16   31 1   
    28   17   18 1   
    29   17   32 1   
    30   17   33 1   
    31   18   19 1   
    32   18   23 1   
    33   19   20 1   
    34   19   34 1   
    35   19   35 1   
    36   20   21 1   
    37   20   36 1   
    38   20   37 1   
    39   21   22 1   
    40   22   23 1   
    41   22   38 1   
    42   22   39 1   
    43   23   40 1   
    44   23   41 1   
@<TRIPOS>SUBSTRUCTURE
     1 SQO         1 TEMP              0 ****  ****    0 ROOT
