@<TRIPOS>MOLECULE
SQS
   58    57     1     0     0
SMALL
bcc


@<TRIPOS>ATOM
      1 C4          5.3890   -0.7110    0.4460 c2        1 SQS     -0.208200
      2 C5          4.2760   -1.0680   -0.2020 c2        1 SQS     -0.160200
      3 C6          2.9890   -1.3480    0.4780 c3        1 SQS     -0.050200
      4 C7          1.8210   -0.7200   -0.2580 c3        1 SQS     -0.076400
      5 C8          0.5110   -1.0300    0.4320 c3        1 SQS     -0.079400
      6 C10        -1.9680   -0.7160    0.3890 c3        1 SQS     -0.079400
      7 C13        -5.6150    0.2210   -0.3870 c3        1 SQS     -0.079400
      8 C15        -8.0940    0.5350   -0.4300 c3        1 SQS     -0.079400
      9 C17       -10.5740    0.8480   -0.4720 c3        1 SQS     -0.080400
     10 O3          6.5560   -0.2680   -1.6340 oh        1 SQS     -0.600800
     11 C3          6.6960   -0.4720   -0.2360 c3        1 SQS      0.176300
     12 C2          7.4490    0.7340    0.3910 c3        1 SQS      0.137500
     13 N2          7.7320    0.5340    1.7970 n3        1 SQS     -0.894800
     14 C1          8.6960    1.0080   -0.4810 c3        1 SQS      0.087400
     15 O1          9.3370    2.1520    0.0600 oh        1 SQS     -0.612800
     16 C9         -0.6570   -0.4060   -0.3010 c3        1 SQS     -0.079400
     17 C11        -3.1360   -0.0920   -0.3440 c3        1 SQS     -0.079400
     18 C12        -4.4470   -0.4020    0.3460 c3        1 SQS     -0.079400
     19 C14        -6.9260   -0.0890    0.3030 c3        1 SQS     -0.079400
     20 C16        -9.4050    0.2250    0.2600 c3        1 SQS     -0.079400
     21 C18       -11.8820    0.5420    0.2110 c3        1 SQS     -0.092100
     22 H1          5.4050   -0.5930    1.5420 ha        1 SQS      0.151000
     23 H2          4.2690   -1.1930   -1.2980 ha        1 SQS      0.127000
     24 H3          2.8420   -2.4620    0.5230 hc        1 SQS      0.049200
     25 H4          3.0080   -0.9750    1.5370 hc        1 SQS      0.049200
     26 H5          1.9650    0.3920   -0.3110 hc        1 SQS      0.041700
     27 H6          1.7910   -1.1010   -1.3130 hc        1 SQS      0.041700
     28 H7          0.3690   -2.1420    0.4880 hc        1 SQS      0.040200
     29 H8          0.5410   -0.6480    1.4870 hc        1 SQS      0.040200
     30 H9         -2.1100   -1.8280    0.4460 hc        1 SQS      0.039700
     31 H10        -1.9380   -0.3330    1.4440 hc        1 SQS      0.039700
     32 H11        -5.4730    1.3330   -0.4430 hc        1 SQS      0.039700
     33 H12        -5.6450   -0.1620   -1.4410 hc        1 SQS      0.039700
     34 H13        -7.9520    1.6460   -0.4860 hc        1 SQS      0.039700
     35 H14        -8.1240    0.1520   -1.4840 hc        1 SQS      0.039700
     36 H15       -10.4300    1.9590   -0.5290 hc        1 SQS      0.038700
     37 H16       -10.6010    0.4650   -1.5260 hc        1 SQS      0.038700
     38 H17         5.9280    0.4540   -1.7580 ho        1 SQS      0.402000
     39 H18         7.3350   -1.4010   -0.1650 h1        1 SQS      0.079700
     40 H19         6.7790    1.6410    0.3170 h1        1 SQS      0.070700
     41 H20         8.3410   -0.2510    1.9240 hn        1 SQS      0.354300
     42 H21         8.1820    1.3530    2.1630 hn        1 SQS      0.354300
     43 H23         9.3960    0.1310   -0.4570 h1        1 SQS      0.036200
     44 H24         8.3820    1.1980   -1.5410 h1        1 SQS      0.036200
     45 H25        10.0590    2.3730   -0.5390 ho        1 SQS      0.405000
     46 H26        -0.5150    0.7060   -0.3570 hc        1 SQS      0.039700
     47 H27        -0.6870   -0.7890   -1.3550 hc        1 SQS      0.039700
     48 H28        -2.9940    1.0190   -0.4000 hc        1 SQS      0.039700
     49 H29        -3.1660   -0.4750   -1.3980 hc        1 SQS      0.039700
     50 H30        -4.4170   -0.0190    1.4010 hc        1 SQS      0.039700
     51 H31        -4.5880   -1.5140    0.4030 hc        1 SQS      0.039700
     52 H32        -7.0670   -1.2000    0.3600 hc        1 SQS      0.039700
     53 H33        -6.8960    0.2940    1.3570 hc        1 SQS      0.039700
     54 H34        -9.5470   -0.8870    0.3170 hc        1 SQS      0.039700
     55 H35        -9.3750    0.6080    1.3140 hc        1 SQS      0.039700
     56 H36       -12.0550   -0.5600    0.2560 hc        1 SQS      0.032700
     57 H37       -11.8830    0.9380    1.2560 hc        1 SQS      0.032700
     58 H38       -12.7300    1.0100   -0.3440 hc        1 SQS      0.032700
@<TRIPOS>BOND
     1    1    2 2   
     2    1   11 1   
     3    1   22 1   
     4    2    3 1   
     5    2   23 1   
     6    3    4 1   
     7    3   24 1   
     8    3   25 1   
     9    4    5 1   
    10    4   26 1   
    11    4   27 1   
    12    5   16 1   
    13    5   28 1   
    14    5   29 1   
    15    6   16 1   
    16    6   17 1   
    17    6   30 1   
    18    6   31 1   
    19    7   18 1   
    20    7   19 1   
    21    7   32 1   
    22    7   33 1   
    23    8   19 1   
    24    8   20 1   
    25    8   34 1   
    26    8   35 1   
    27    9   20 1   
    28    9   21 1   
    29    9   36 1   
    30    9   37 1   
    31   10   11 1   
    32   10   38 1   
    33   11   12 1   
    34   11   39 1   
    35   12   13 1   
    36   12   14 1   
    37   12   40 1   
    38   13   41 1   
    39   13   42 1   
    40   14   15 1   
    41   14   43 1   
    42   14   44 1   
    43   15   45 1   
    44   16   46 1   
    45   16   47 1   
    46   17   18 1   
    47   17   48 1   
    48   17   49 1   
    49   18   50 1   
    50   18   51 1   
    51   19   52 1   
    52   19   53 1   
    53   20   54 1   
    54   20   55 1   
    55   21   56 1   
    56   21   57 1   
    57   21   58 1   
@<TRIPOS>SUBSTRUCTURE
     1 SQS         1 TEMP              0 ****  ****    0 ROOT
