@<TRIPOS>MOLECULE
SQS
   59    58     1     0     0
SMALL
bcc


@<TRIPOS>ATOM
      1 C4          0.7010    0.4270    0.3320 c2        1 SQS     -0.331200
      2 C5          0.9960   -0.4780    1.2720 c2        1 SQS     -0.067200
      3 C6          0.8670   -1.9510    1.1680 c3        1 SQS     -0.087200
      4 C7          2.2220   -2.6390    1.1790 c3        1 SQS     -0.074400
      5 C8          2.8870   -2.5890    2.5380 c3        1 SQS     -0.082400
      6 C10         4.8800   -3.2760    3.8790 c3        1 SQS     -0.078400
      7 C13         8.1930   -4.7020    5.2060 c3        1 SQS     -0.079400
      8 C15        10.1830   -5.3950    6.5500 c3        1 SQS     -0.079400
      9 C17        12.1720   -6.0890    7.8950 c3        1 SQS     -0.080400
     10 O3          0.8300   -0.9440   -1.7060 oh        1 SQS     -0.590800
     11 C3          0.2340    0.1680   -1.0600 c3        1 SQS      0.186300
     12 C2         -1.2900   -0.1400   -1.0980 c3        1 SQS      0.088500
     13 N2         -2.0720    0.8540   -0.2940 n4        1 SQS     -0.828600
     14 C1         -1.7730   -0.1710   -2.5600 c3        1 SQS      0.114400
     15 O1         -3.1740   -0.3600   -2.5320 oh        1 SQS     -0.634800
     16 C9          4.2110   -3.3250    2.5220 c3        1 SQS     -0.080400
     17 C11         6.2020   -4.0120    3.8640 c3        1 SQS     -0.079400
     18 C12         6.8710   -3.9650    5.2210 c3        1 SQS     -0.078400
     19 C14         8.8610   -4.6570    6.5640 c3        1 SQS     -0.078400
     20 C16        10.8500   -5.3520    7.9080 c3        1 SQS     -0.079400
     21 C18        12.8400   -6.0500    9.2450 c3        1 SQS     -0.093100
     22 H1          0.8750    1.4980    0.5440 ha        1 SQS      0.144000
     23 H2          1.3890   -0.1270    2.2470 ha        1 SQS      0.153000
     24 H3          0.2620   -2.3210    2.0420 hc        1 SQS      0.060200
     25 H4          0.3180   -2.2440    0.2320 hc        1 SQS      0.060200
     26 H5          2.0760   -3.7110    0.8790 hc        1 SQS      0.053200
     27 H6          2.8930   -2.1670    0.4130 hc        1 SQS      0.053200
     28 H7          2.2120   -3.0500    3.3060 hc        1 SQS      0.042200
     29 H8          3.0570   -1.5220    2.8420 hc        1 SQS      0.042200
     30 H9          4.2040   -3.7330    4.6490 hc        1 SQS      0.041200
     31 H10         5.0480   -2.2080    4.1780 hc        1 SQS      0.041200
     32 H11         8.8710   -4.2440    4.4390 hc        1 SQS      0.041200
     33 H12         8.0260   -5.7700    4.9050 hc        1 SQS      0.041200
     34 H13        10.8610   -4.9360    5.7830 hc        1 SQS      0.040200
     35 H14        10.0150   -6.4620    6.2470 hc        1 SQS      0.040200
     36 H15        12.8490   -5.6300    7.1270 hc        1 SQS      0.038700
     37 H16        12.0020   -7.1560    7.5900 hc        1 SQS      0.038700
     38 H17         1.6620   -1.1460   -1.2540 ho        1 SQS      0.446000
     39 H18         0.4400    1.0740   -1.7050 h1        1 SQS      0.072700
     40 H19        -1.4720   -1.1550   -0.6300 hx        1 SQS      0.124700
     41 H20        -3.0680    0.6050   -0.3460 hn        1 SQS      0.464133
     42 H21        -1.7480    0.8430    0.6780 hn        1 SQS      0.464133
     43 H23        -1.5530    0.8030   -3.0770 h1        1 SQS      0.087700
     44 H24        -1.2240   -1.0020   -3.0790 h1        1 SQS      0.087700
     45 H25        -3.4130   -0.9690   -3.2440 ho        1 SQS      0.454000
     46 H26         4.8870   -2.8670    1.7520 hc        1 SQS      0.045200
     47 H27         4.0440   -4.3930    2.2230 hc        1 SQS      0.045200
     48 H28         6.8790   -3.5550    3.0950 hc        1 SQS      0.042200
     49 H29         6.0350   -5.0800    3.5640 hc        1 SQS      0.042200
     50 H30         7.0390   -2.8970    5.5220 hc        1 SQS      0.040200
     51 H31         6.1940   -4.4230    5.9900 hc        1 SQS      0.040200
     52 H32         9.0290   -3.5900    6.8660 hc        1 SQS      0.040200
     53 H33         8.1830   -5.1150    7.3320 hc        1 SQS      0.040200
     54 H34        11.0180   -4.2850    8.2110 hc        1 SQS      0.039700
     55 H35        10.1720   -5.8110    8.6750 hc        1 SQS      0.039700
     56 H36        12.1910   -6.5260   10.0200 hc        1 SQS      0.034033
     57 H37        13.8120   -6.5990    9.2130 hc        1 SQS      0.034033
     58 H38        13.0400   -4.9960    9.5560 hc        1 SQS      0.034033
     59 H231       -1.9470    1.7930   -0.6820 hn        1 SQS      0.464133
@<TRIPOS>BOND
     1    1    2 2   
     2    1   11 1   
     3    1   22 1   
     4    2    3 1   
     5    2   23 1   
     6    3    4 1   
     7    3   24 1   
     8    3   25 1   
     9    4    5 1   
    10    4   26 1   
    11    4   27 1   
    12    5   16 1   
    13    5   28 1   
    14    5   29 1   
    15    6   16 1   
    16    6   17 1   
    17    6   30 1   
    18    6   31 1   
    19    7   18 1   
    20    7   19 1   
    21    7   32 1   
    22    7   33 1   
    23    8   19 1   
    24    8   20 1   
    25    8   34 1   
    26    8   35 1   
    27    9   20 1   
    28    9   21 1   
    29    9   36 1   
    30    9   37 1   
    31   10   11 1   
    32   10   38 1   
    33   11   12 1   
    34   11   39 1   
    35   12   13 1   
    36   12   14 1   
    37   12   40 1   
    38   13   41 1   
    39   13   42 1   
    40   13   59 1   
    41   14   15 1   
    42   14   43 1   
    43   14   44 1   
    44   15   45 1   
    45   16   46 1   
    46   16   47 1   
    47   17   18 1   
    48   17   48 1   
    49   17   49 1   
    50   18   50 1   
    51   18   51 1   
    52   19   52 1   
    53   19   53 1   
    54   20   54 1   
    55   20   55 1   
    56   21   56 1   
    57   21   57 1   
    58   21   58 1   
@<TRIPOS>SUBSTRUCTURE
     1 SQS         1 TEMP              0 ****  ****    0 ROOT
