@<TRIPOS>MOLECULE
SQS
   59    58     1     0     0
SMALL
bcc


@<TRIPOS>ATOM
      1 C4          0.8150    0.4030    0.1630 c2        1 SQS     -0.331200
      2 C5          1.0890   -0.4110    1.1890 c2        1 SQS     -0.067200
      3 C6          0.8350   -1.8690    1.2680 c3        1 SQS     -0.087200
      4 C7          2.1280   -2.6670    1.2950 c3        1 SQS     -0.074400
      5 C8          2.8740   -2.5180    2.6030 c3        1 SQS     -0.082400
      6 C10         4.8830   -3.2130    3.9150 c3        1 SQS     -0.078400
      7 C13         8.1490   -4.7510    5.2340 c3        1 SQS     -0.079400
      8 C15        10.1610   -5.4440    6.5450 c3        1 SQS     -0.079400
      9 C17        12.1740   -6.1350    7.8570 c3        1 SQS     -0.080400
     10 O3          0.7150   -1.1990   -1.7000 oh        1 SQS     -0.590800
     11 C3          0.2510    0.0270   -1.1640 c3        1 SQS      0.186300
     12 C2         -1.2940   -0.1470   -1.0940 c3        1 SQS      0.088500
     13 N2         -1.9440    0.9970   -0.3790 nz        1 SQS     -0.828600
     14 C1         -1.8590   -0.3020   -2.5190 c3        1 SQS      0.114400
     15 O1         -3.2680   -0.3630   -2.4030 oh        1 SQS     -0.634800
     16 C9          4.1310   -3.3640    2.6100 c3        1 SQS     -0.080400
     17 C11         6.1390   -4.0580    3.9230 c3        1 SQS     -0.079400
     18 C12         6.8930   -3.9080    5.2270 c3        1 SQS     -0.078400
     19 C14         8.9040   -4.6000    6.5380 c3        1 SQS     -0.078400
     20 C16        10.9160   -5.2920    7.8480 c3        1 SQS     -0.079400
     21 C18        12.9290   -5.9870    9.1520 c3        1 SQS     -0.093100
     22 H1          1.0870    1.4720    0.2380 ha        1 SQS      0.143000
     23 H2          1.5640    0.0140    2.0960 ha        1 SQS      0.153000
     24 H3          0.2540   -2.0820    2.2080 hc        1 SQS      0.060200
     25 H4          0.2100   -2.2180    0.4020 hc        1 SQS      0.060200
     26 H5          1.8770   -3.7500    1.1340 hc        1 SQS      0.052700
     27 H6          2.7870   -2.3490    0.4450 hc        1 SQS      0.052700
     28 H7          3.1470   -1.4420    2.7670 hc        1 SQS      0.042200
     29 H8          2.2110   -2.8270    3.4540 hc        1 SQS      0.042200
     30 H9          5.1540   -2.1360    4.0730 hc        1 SQS      0.041200
     31 H10         4.2210   -3.5170    4.7690 hc        1 SQS      0.041200
     32 H11         7.8800   -5.8290    5.0790 hc        1 SQS      0.041200
     33 H12         8.8110   -4.4490    4.3800 hc        1 SQS      0.041200
     34 H13        10.8220   -5.1420    5.6900 hc        1 SQS      0.040200
     35 H14         9.8920   -6.5220    6.3900 hc        1 SQS      0.040200
     36 H15        12.8320   -5.8320    7.0000 hc        1 SQS      0.038700
     37 H16        11.9030   -7.2120    7.7000 hc        1 SQS      0.038700
     38 H17         1.5530   -1.4200   -1.2680 ho        1 SQS      0.446000
     39 H18         0.4930    0.8320   -1.9220 h1        1 SQS      0.072700
     40 H19        -1.5310   -1.0820   -0.5020 hx        1 SQS      0.124700
     41 H20        -1.5690    1.0690    0.5720 hn        1 SQS      0.464133
     42 H21        -1.7650    1.8710   -0.8810 hn        1 SQS      0.464133
     43 H23        -1.5900    0.5830   -3.1570 h1        1 SQS      0.087700
     44 H24        -1.4110   -1.2330   -2.9600 h1        1 SQS      0.087700
     45 H25        -3.5950   -1.0260   -3.0250 ho        1 SQS      0.454000
     46 H26         4.7940   -3.0610    1.7570 hc        1 SQS      0.045200
     47 H27         3.8610   -4.4410    2.4540 hc        1 SQS      0.045200
     48 H28         6.8010   -3.7560    3.0690 hc        1 SQS      0.042200
     49 H29         5.8690   -5.1360    3.7670 hc        1 SQS      0.042200
     50 H30         7.1630   -2.8300    5.3830 hc        1 SQS      0.040200
     51 H31         6.2320   -4.2100    6.0810 hc        1 SQS      0.040200
     52 H32         8.2430   -4.9030    7.3930 hc        1 SQS      0.040200
     53 H33         9.1740   -3.5220    6.6940 hc        1 SQS      0.040200
     54 H34        11.1850   -4.2140    8.0040 hc        1 SQS      0.039700
     55 H35        10.2560   -5.5950    8.7030 hc        1 SQS      0.039700
     56 H36        13.2300   -4.9230    9.3150 hc        1 SQS      0.034033
     57 H37        13.8520   -6.6150    9.1370 hc        1 SQS      0.034033
     58 H38        12.2980   -6.3080   10.0160 hc        1 SQS      0.034033
     59 H231       -2.9590    0.8330   -0.3550 hn        1 SQS      0.464133
@<TRIPOS>BOND
     1    1    2 2   
     2    1   11 1   
     3    1   22 1   
     4    2    3 1   
     5    2   23 1   
     6    3    4 1   
     7    3   24 1   
     8    3   25 1   
     9    4    5 1   
    10    4   26 1   
    11    4   27 1   
    12    5   16 1   
    13    5   28 1   
    14    5   29 1   
    15    6   16 1   
    16    6   17 1   
    17    6   30 1   
    18    6   31 1   
    19    7   18 1   
    20    7   19 1   
    21    7   32 1   
    22    7   33 1   
    23    8   19 1   
    24    8   20 1   
    25    8   34 1   
    26    8   35 1   
    27    9   20 1   
    28    9   21 1   
    29    9   36 1   
    30    9   37 1   
    31   10   11 1   
    32   10   38 1   
    33   11   12 1   
    34   11   39 1   
    35   12   13 1   
    36   12   14 1   
    37   12   40 1   
    38   13   41 1   
    39   13   42 1   
    40   13   59 1   
    41   14   15 1   
    42   14   43 1   
    43   14   44 1   
    44   15   45 1   
    45   16   46 1   
    46   16   47 1   
    47   17   18 1   
    48   17   48 1   
    49   17   49 1   
    50   18   50 1   
    51   18   51 1   
    52   19   52 1   
    53   19   53 1   
    54   20   54 1   
    55   20   55 1   
    56   21   56 1   
    57   21   57 1   
    58   21   58 1   
@<TRIPOS>SUBSTRUCTURE
     1 SQS         1 TEMP              0 ****  ****    0 ROOT
