@<TRIPOS>MOLECULE
SQS
   59    58     1     0     0
SMALL
bcc


@<TRIPOS>ATOM
      1 C4          0.6230    0.3220   -1.1610 c2        1 SQS     -0.328200
      2 C5          1.4120    0.6390   -0.1280 c2        1 SQS     -0.070200
      3 C6          1.6710   -0.1730    1.0840 c3        1 SQS     -0.089200
      4 C7          3.1280   -0.5970    1.1520 c3        1 SQS     -0.073400
      5 C8          3.4060   -1.3700    2.4230 c3        1 SQS     -0.080400
      6 C10         5.1360   -2.5770    3.7600 c3        1 SQS     -0.078400
      7 C13         8.3140   -4.2220    5.1640 c3        1 SQS     -0.079400
      8 C15        10.0440   -5.4310    6.5010 c3        1 SQS     -0.079400
      9 C17        11.7750   -6.6410    7.8390 c3        1 SQS     -0.080400
     10 O3          0.5500   -2.1300   -0.9850 oh        1 SQS     -0.589800
     11 C3         -0.1300   -0.9480   -1.3670 c3        1 SQS      0.186300
     12 C2         -1.4410   -0.9710   -0.5300 c3        1 SQS      0.087500
     13 N2         -2.2150    0.3020   -0.6850 n4        1 SQS     -0.828600
     14 C1         -2.2910   -2.1890   -0.9390 c3        1 SQS      0.114400
     15 O1         -3.5050   -2.1090   -0.2170 oh        1 SQS     -0.634800
     16 C9          4.8550   -1.8040    2.4890 c3        1 SQS     -0.079400
     17 C11         6.5840   -3.0130    3.8260 c3        1 SQS     -0.079400
     18 C12         6.8660   -3.7860    5.0970 c3        1 SQS     -0.078400
     19 C14         8.5960   -4.9950    6.4340 c3        1 SQS     -0.078400
     20 C16        10.3270   -6.2040    7.7710 c3        1 SQS     -0.079400
     21 C18        12.0610   -7.4110    9.1020 c3        1 SQS     -0.093100
     22 H1          0.5470    1.0210   -2.0140 ha        1 SQS      0.145000
     23 H2          1.9540    1.6060   -0.1470 ha        1 SQS      0.152000
     24 H3          1.0150   -1.0840    1.1210 hc        1 SQS      0.061200
     25 H4          1.4290    0.4490    1.9910 hc        1 SQS      0.061200
     26 H5          3.7880    0.3100    1.1090 hc        1 SQS      0.050700
     27 H6          3.3770   -1.2330    0.2610 hc        1 SQS      0.050700
     28 H7          3.1640   -0.7310    3.3130 hc        1 SQS      0.044200
     29 H8          2.7400   -2.2720    2.4710 hc        1 SQS      0.044200
     30 H9          4.8940   -1.9390    4.6510 hc        1 SQS      0.041700
     31 H10         4.4690   -3.4790    3.8080 hc        1 SQS      0.041700
     32 H11         8.9810   -3.3210    5.1160 hc        1 SQS      0.041200
     33 H12         8.5560   -4.8600    4.2730 hc        1 SQS      0.041200
     34 H13        10.2860   -6.0690    5.6100 hc        1 SQS      0.040200
     35 H14        10.7110   -4.5300    6.4530 hc        1 SQS      0.040200
     36 H15        12.4400   -5.7390    7.7890 hc        1 SQS      0.038700
     37 H16        12.0150   -7.2780    6.9470 hc        1 SQS      0.038700
     38 H17         1.4960   -1.9310   -0.9240 ho        1 SQS      0.447000
     39 H18        -0.3940   -1.0610   -2.4610 h1        1 SQS      0.073700
     40 H19        -1.1750   -1.0610    0.5670 hx        1 SQS      0.124700
     41 H20        -1.6380    1.0960   -0.3900 hn        1 SQS      0.464133
     42 H21        -2.4880    0.4270   -1.6640 hn        1 SQS      0.464133
     43 H23        -2.5250   -2.1660   -2.0380 h1        1 SQS      0.088200
     44 H24        -1.6960   -3.1110   -0.7010 h1        1 SQS      0.088200
     45 H25        -3.7520   -3.0000    0.0620 ho        1 SQS      0.454000
     46 H26         5.0980   -2.4430    1.5990 hc        1 SQS      0.044700
     47 H27         5.5210   -0.9030    2.4420 hc        1 SQS      0.044700
     48 H28         6.8270   -3.6510    2.9360 hc        1 SQS      0.042200
     49 H29         7.2510   -2.1120    3.7790 hc        1 SQS      0.042200
     50 H30         6.1990   -4.6870    5.1450 hc        1 SQS      0.040200
     51 H31         6.6240   -3.1480    5.9870 hc        1 SQS      0.040200
     52 H32         8.3540   -4.3570    7.3240 hc        1 SQS      0.040200
     53 H33         7.9290   -5.8960    6.4820 hc        1 SQS      0.040200
     54 H34         9.6600   -7.1050    7.8200 hc        1 SQS      0.039700
     55 H35        10.0850   -5.5660    8.6620 hc        1 SQS      0.039700
     56 H36        11.4250   -8.3280    9.1580 hc        1 SQS      0.034033
     57 H37        11.8510   -6.7840   10.0030 hc        1 SQS      0.034033
     58 H38        13.1330   -7.7230    9.1320 hc        1 SQS      0.034033
     59 H231       -3.0650    0.2400   -0.1100 hn        1 SQS      0.464133
@<TRIPOS>BOND
     1    1    2 2   
     2    1   11 1   
     3    1   22 1   
     4    2    3 1   
     5    2   23 1   
     6    3    4 1   
     7    3   24 1   
     8    3   25 1   
     9    4    5 1   
    10    4   26 1   
    11    4   27 1   
    12    5   16 1   
    13    5   28 1   
    14    5   29 1   
    15    6   16 1   
    16    6   17 1   
    17    6   30 1   
    18    6   31 1   
    19    7   18 1   
    20    7   19 1   
    21    7   32 1   
    22    7   33 1   
    23    8   19 1   
    24    8   20 1   
    25    8   34 1   
    26    8   35 1   
    27    9   20 1   
    28    9   21 1   
    29    9   36 1   
    30    9   37 1   
    31   10   11 1   
    32   10   38 1   
    33   11   12 1   
    34   11   39 1   
    35   12   13 1   
    36   12   14 1   
    37   12   40 1   
    38   13   41 1   
    39   13   42 1   
    40   13   59 1   
    41   14   15 1   
    42   14   43 1   
    43   14   44 1   
    44   15   45 1   
    45   16   46 1   
    46   16   47 1   
    47   17   18 1   
    48   17   48 1   
    49   17   49 1   
    50   18   50 1   
    51   18   51 1   
    52   19   52 1   
    53   19   53 1   
    54   20   54 1   
    55   20   55 1   
    56   21   56 1   
    57   21   57 1   
    58   21   58 1   
@<TRIPOS>SUBSTRUCTURE
     1 SQS         1 TEMP              0 ****  ****    0 ROOT
