@<TRIPOS>MOLECULE
SQU
   83    82     1     0     0
SMALL
bcc


@<TRIPOS>ATOM
      1 C1          0.0640   -0.6660    0.5950 c3        1 SQU     -0.089600
      2 C2          1.5670   -0.7440    0.7790 c3        1 SQU     -0.067700
      3 C3          1.8980   -1.0720    2.2190 c3        1 SQU     -0.089600
      4 C4          2.1580   -1.7710   -0.1760 c3        1 SQU     -0.075400
      5 C5          3.6520   -1.6040   -0.3490 c3        1 SQU     -0.079400
      6 C6          4.2070   -2.6200   -1.3250 c3        1 SQU     -0.079400
      7 C7          5.7010   -2.4560   -1.4990 c3        1 SQU     -0.079400
      8 C9          6.2550   -3.4710   -2.4760 c3        1 SQU     -0.079400
      9 C10         7.7510   -3.3090   -2.6470 c3        1 SQU     -0.079400
     10 C11         8.3000   -4.3190   -3.6330 c3        1 SQU     -0.076400
     11 C12         9.8140   -4.2290   -3.7750 c3        1 SQU     -0.064700
     12 C13        10.2110   -2.9880   -4.5470 c3        1 SQU     -0.089100
     13 C14        10.3430   -5.4850   -4.4550 c3        1 SQU     -0.076400
     14 C15        11.8390   -5.6430   -4.2920 c3        1 SQU     -0.079400
     15 C16        12.3230   -6.9350   -4.9170 c3        1 SQU     -0.079400
     16 C17        13.8200   -7.0920   -4.7650 c3        1 SQU     -0.079400
     17 C18        14.3040   -8.3840   -5.3880 c3        1 SQU     -0.079400
     18 C20        15.8020   -8.5410   -5.2360 c3        1 SQU     -0.079400
     19 C21        16.2850   -9.8330   -5.8590 c3        1 SQU     -0.079400
     20 C22        17.7820   -9.9900   -5.7070 c3        1 SQU     -0.079400
     21 C23        18.2660  -11.2820   -6.3300 c3        1 SQU     -0.079400
     22 C25        19.7640  -11.4390   -6.1780 c3        1 SQU     -0.079400
     23 C26        20.2470  -12.7310   -6.8020 c3        1 SQU     -0.079400
     24 C27        21.7440  -12.8860   -6.6460 c3        1 SQU     -0.075400
     25 C28        22.2650  -14.1630   -7.2900 c3        1 SQU     -0.067700
     26 C29        23.7640  -14.0720   -7.4900 c3        1 SQU     -0.089600
     27 C30        21.9230  -15.3820   -6.4580 c3        1 SQU     -0.089600
     28 H11        -0.1870   -0.3540   -0.4470 hc        1 SQU      0.033033
     29 H12A       -0.3740    0.0780    1.3030 hc        1 SQU      0.033033
     30 H13        -0.4050   -1.6600    0.7900 hc        1 SQU      0.033033
     31 H2          2.0060    0.2650    0.5330 hc        1 SQU      0.045700
     32 H31         1.4800   -2.0680    2.5020 hc        1 SQU      0.033033
     33 H32         1.4640   -0.3010    2.9010 hc        1 SQU      0.033033
     34 H33         3.0040   -1.0970    2.3720 hc        1 SQU      0.033033
     35 H41         1.9350   -2.8030    0.2020 hc        1 SQU      0.039700
     36 H42         1.6610   -1.6700   -1.1780 hc        1 SQU      0.039700
     37 H51         3.8760   -0.5680   -0.7180 hc        1 SQU      0.039700
     38 H52         4.1650   -1.7190    0.6420 hc        1 SQU      0.039700
     39 H61         3.9810   -3.6560   -0.9580 hc        1 SQU      0.039700
     40 H62         3.6980   -2.5040   -2.3190 hc        1 SQU      0.039700
     41 H71         5.9260   -1.4200   -1.8650 hc        1 SQU      0.039700
     42 H72         6.2100   -2.5740   -0.5060 hc        1 SQU      0.039700
     43 H91         6.0280   -4.5070   -2.1110 hc        1 SQU      0.039700
     44 H92         5.7480   -3.3520   -3.4700 hc        1 SQU      0.039700
     45 H101        7.9750   -2.2680   -3.0010 hc        1 SQU      0.040200
     46 H102        8.2580   -3.4370   -1.6540 hc        1 SQU      0.040200
     47 H111        7.8220   -4.1650   -4.6360 hc        1 SQU      0.039700
     48 H112        8.0200   -5.3500   -3.2870 hc        1 SQU      0.039700
     49 H12        10.2640   -4.1670   -2.7430 hc        1 SQU      0.047700
     50 H131        9.7830   -3.0120   -5.5780 hc        1 SQU      0.033700
     51 H132       11.3230   -2.9170   -4.6280 hc        1 SQU      0.033700
     52 H133        9.8390   -2.0700   -4.0310 hc        1 SQU      0.033700
     53 H141       10.0830   -5.4560   -5.5450 hc        1 SQU      0.039700
     54 H142        9.8340   -6.3860   -4.0170 hc        1 SQU      0.039700
     55 H151       12.1030   -5.6330   -3.2010 hc        1 SQU      0.040200
     56 H152       12.3690   -4.7770   -4.7680 hc        1 SQU      0.040200
     57 H161       11.8030   -7.8040   -4.4360 hc        1 SQU      0.039700
     58 H162       12.0520   -6.9490   -6.0060 hc        1 SQU      0.039700
     59 H171       14.3410   -6.2230   -5.2480 hc        1 SQU      0.039700
     60 H172       14.0920   -7.0750   -3.6760 hc        1 SQU      0.039700
     61 H181       13.7840   -9.2520   -4.9040 hc        1 SQU      0.039700
     62 H182       14.0320   -8.4010   -6.4760 hc        1 SQU      0.039700
     63 H201       16.0730   -8.5240   -4.1470 hc        1 SQU      0.039700
     64 H202       16.3220   -7.6720   -5.7200 hc        1 SQU      0.039700
     65 H211       16.0140   -9.8500   -6.9480 hc        1 SQU      0.039700
     66 H212       15.7640  -10.7010   -5.3760 hc        1 SQU      0.039700
     67 H221       18.3030   -9.1210   -6.1910 hc        1 SQU      0.039700
     68 H222       18.0540   -9.9730   -4.6190 hc        1 SQU      0.039700
     69 H231       17.9950  -11.2980   -7.4190 hc        1 SQU      0.039700
     70 H232       17.7450  -12.1500   -5.8470 hc        1 SQU      0.039700
     71 H251       20.2840  -10.5700   -6.6600 hc        1 SQU      0.039700
     72 H252       20.0340  -11.4230   -5.0890 hc        1 SQU      0.039700
     73 H261       19.7220  -13.5980   -6.3210 hc        1 SQU      0.039700
     74 H262       19.9770  -12.7450   -7.8910 hc        1 SQU      0.039700
     75 H271       22.2540  -12.0040   -7.1170 hc        1 SQU      0.039700
     76 H272       22.0130  -12.8810   -5.5570 hc        1 SQU      0.039700
     77 H28        21.7790  -14.2760   -8.3010 hc        1 SQU      0.045700
     78 H291       24.0180  -13.2180   -8.1620 hc        1 SQU      0.033033
     79 H292       24.2800  -13.9190   -6.5120 hc        1 SQU      0.033033
     80 H293       24.1510  -15.0130   -7.9510 hc        1 SQU      0.033033
     81 H301       22.3870  -15.3070   -5.4440 hc        1 SQU      0.033033
     82 H302       22.3050  -16.3070   -6.9530 hc        1 SQU      0.033033
     83 H303       20.8180  -15.4760   -6.3350 hc        1 SQU      0.033033
@<TRIPOS>BOND
     1    1    2 1   
     2    1   28 1   
     3    1   29 1   
     4    1   30 1   
     5    2    3 1   
     6    2    4 1   
     7    2   31 1   
     8    3   32 1   
     9    3   33 1   
    10    3   34 1   
    11    4    5 1   
    12    4   35 1   
    13    4   36 1   
    14    5    6 1   
    15    5   37 1   
    16    5   38 1   
    17    6    7 1   
    18    6   39 1   
    19    6   40 1   
    20    7    8 1   
    21    7   41 1   
    22    7   42 1   
    23    8    9 1   
    24    8   43 1   
    25    8   44 1   
    26    9   10 1   
    27    9   45 1   
    28    9   46 1   
    29   10   11 1   
    30   10   47 1   
    31   10   48 1   
    32   11   12 1   
    33   11   13 1   
    34   11   49 1   
    35   12   50 1   
    36   12   51 1   
    37   12   52 1   
    38   13   14 1   
    39   13   53 1   
    40   13   54 1   
    41   14   15 1   
    42   14   55 1   
    43   14   56 1   
    44   15   16 1   
    45   15   57 1   
    46   15   58 1   
    47   16   17 1   
    48   16   59 1   
    49   16   60 1   
    50   17   18 1   
    51   17   61 1   
    52   17   62 1   
    53   18   19 1   
    54   18   63 1   
    55   18   64 1   
    56   19   20 1   
    57   19   65 1   
    58   19   66 1   
    59   20   21 1   
    60   20   67 1   
    61   20   68 1   
    62   21   22 1   
    63   21   69 1   
    64   21   70 1   
    65   22   23 1   
    66   22   71 1   
    67   22   72 1   
    68   23   24 1   
    69   23   73 1   
    70   23   74 1   
    71   24   25 1   
    72   24   75 1   
    73   24   76 1   
    74   25   26 1   
    75   25   27 1   
    76   25   77 1   
    77   26   78 1   
    78   26   79 1   
    79   26   80 1   
    80   27   81 1   
    81   27   82 1   
    82   27   83 1   
@<TRIPOS>SUBSTRUCTURE
     1 SQU         1 TEMP              0 ****  ****    0 ROOT
