@<TRIPOS>MOLECULE
SQU
   83    82     1     0     0
SMALL
bcc


@<TRIPOS>ATOM
      1 C1          1.0760   -0.5640  -14.0230 c3        1 SQU     -0.089600
      2 C2          0.2600   -0.9970  -12.8220 c3        1 SQU     -0.067700
      3 C3          0.1190   -2.5050  -12.8060 c3        1 SQU     -0.089600
      4 C4          0.9010   -0.4840  -11.5410 c3        1 SQU     -0.075400
      5 C5         -0.0550   -0.5090  -10.3680 c3        1 SQU     -0.079400
      6 C6          0.6020    0.0330   -9.1160 c3        1 SQU     -0.079400
      7 C7         -0.3510    0.0070   -7.9400 c3        1 SQU     -0.079400
      8 C9          0.3040    0.5500   -6.6890 c3        1 SQU     -0.079400
      9 C10        -0.6480    0.5210   -5.5120 c3        1 SQU     -0.079400
     10 C11         0.0080    1.0750   -4.2660 c3        1 SQU     -0.076400
     11 C12        -0.9010    0.9940   -3.0460 c3        1 SQU     -0.064700
     12 C13        -2.0150    2.0160   -3.1340 c3        1 SQU     -0.089100
     13 C14        -0.0800    1.1930   -1.7780 c3        1 SQU     -0.076400
     14 C15        -0.8230    0.7540   -0.5340 c3        1 SQU     -0.079400
     15 C16         0.0430    0.8990    0.6990 c3        1 SQU     -0.079400
     16 C17        -0.6990    0.4700    1.9460 c3        1 SQU     -0.079400
     17 C18         0.1680    0.6120    3.1780 c3        1 SQU     -0.079400
     18 C20        -0.5750    0.1830    4.4260 c3        1 SQU     -0.079400
     19 C21         0.2920    0.3260    5.6580 c3        1 SQU     -0.079400
     20 C22        -0.4510   -0.1030    6.9050 c3        1 SQU     -0.079400
     21 C23         0.4160    0.0390    8.1380 c3        1 SQU     -0.079400
     22 C25        -0.3260   -0.3900    9.3850 c3        1 SQU     -0.079400
     23 C26         0.5410   -0.2460   10.6170 c3        1 SQU     -0.079400
     24 C27        -0.2040   -0.6780   11.8630 c3        1 SQU     -0.075400
     25 C28         0.6340   -0.5180   13.1230 c3        1 SQU     -0.067700
     26 C29        -0.2590   -0.5430   14.3480 c3        1 SQU     -0.089600
     27 C30         1.6910   -1.5980   13.2270 c3        1 SQU     -0.089600
     28 H11         2.1180   -0.9590  -13.9510 hc        1 SQU      0.033033
     29 H12A        0.6150   -0.9490  -14.9640 hc        1 SQU      0.033033
     30 H13         1.1240    0.5500  -14.0820 hc        1 SQU      0.033033
     31 H2         -0.7690   -0.5450  -12.9110 hc        1 SQU      0.045700
     32 H31         1.1190   -2.9920  -12.7170 hc        1 SQU      0.033033
     33 H32        -0.5110   -2.8310  -11.9440 hc        1 SQU      0.033033
     34 H33        -0.3630   -2.8580  -13.7490 hc        1 SQU      0.033033
     35 H41         1.2530    0.5690  -11.7030 hc        1 SQU      0.039700
     36 H42         1.8060   -1.1030  -11.3030 hc        1 SQU      0.039700
     37 H51        -0.4030   -1.5600  -10.1830 hc        1 SQU      0.039700
     38 H52        -0.9640    0.1020  -10.6090 hc        1 SQU      0.039700
     39 H61         0.9470    1.0850   -9.2970 hc        1 SQU      0.039700
     40 H62         1.5120   -0.5770   -8.8750 hc        1 SQU      0.039700
     41 H71        -0.6950   -1.0460   -7.7580 hc        1 SQU      0.039700
     42 H72        -1.2630    0.6150   -8.1820 hc        1 SQU      0.039700
     43 H91         0.6460    1.6030   -6.8700 hc        1 SQU      0.039700
     44 H92         1.2170   -0.0570   -6.4490 hc        1 SQU      0.039700
     45 H101       -0.9830   -0.5330   -5.3260 hc        1 SQU      0.040200
     46 H102       -1.5640    1.1200   -5.7600 hc        1 SQU      0.040200
     47 H111        0.3060    2.1420   -4.4380 hc        1 SQU      0.039700
     48 H112        0.9490    0.4960   -4.0650 hc        1 SQU      0.039700
     49 H12        -1.3610   -0.0340   -3.0130 hc        1 SQU      0.047700
     50 H131       -1.5980    3.0510   -3.1690 hc        1 SQU      0.033700
     51 H132       -2.6270    1.8500   -4.0530 hc        1 SQU      0.033700
     52 H133       -2.6890    1.9370   -2.2470 hc        1 SQU      0.033700
     53 H141        0.2060    2.2730   -1.6850 hc        1 SQU      0.039700
     54 H142        0.8720    0.6030   -1.8570 hc        1 SQU      0.039700
     55 H151       -1.1440   -0.3160   -0.6440 hc        1 SQU      0.040200
     56 H152       -1.7540    1.3670   -0.4090 hc        1 SQU      0.040200
     57 H161        0.3710    1.9670    0.8050 hc        1 SQU      0.039700
     58 H162        0.9710    0.2790    0.5820 hc        1 SQU      0.039700
     59 H171       -1.0290   -0.5970    1.8390 hc        1 SQU      0.039700
     60 H172       -1.6260    1.0910    2.0640 hc        1 SQU      0.039700
     61 H181        0.4970    1.6790    3.2850 hc        1 SQU      0.039700
     62 H182        1.0940   -0.0100    3.0600 hc        1 SQU      0.039700
     63 H201       -0.9050   -0.8840    4.3190 hc        1 SQU      0.039700
     64 H202       -1.5020    0.8050    4.5440 hc        1 SQU      0.039700
     65 H211        0.6220    1.3930    5.7650 hc        1 SQU      0.039700
     66 H212        1.2180   -0.2960    5.5400 hc        1 SQU      0.039700
     67 H221       -0.7800   -1.1700    6.7980 hc        1 SQU      0.039700
     68 H222       -1.3770    0.5180    7.0240 hc        1 SQU      0.039700
     69 H231        0.7460    1.1060    8.2450 hc        1 SQU      0.039700
     70 H232        1.3430   -0.5820    8.0190 hc        1 SQU      0.039700
     71 H251       -0.6550   -1.4570    9.2780 hc        1 SQU      0.039700
     72 H252       -1.2530    0.2310    9.5030 hc        1 SQU      0.039700
     73 H261        0.8670    0.8220   10.7240 hc        1 SQU      0.039700
     74 H262        1.4690   -0.8650   10.4960 hc        1 SQU      0.039700
     75 H271       -0.5220   -1.7490   11.7600 hc        1 SQU      0.039700
     76 H272       -1.1370   -0.0630   11.9610 hc        1 SQU      0.039700
     77 H28         1.1510    0.4830   13.0830 hc        1 SQU      0.045700
     78 H291        0.3540   -0.4390   15.2760 hc        1 SQU      0.033033
     79 H292       -0.9950    0.2950   14.3130 hc        1 SQU      0.033033
     80 H293       -0.8210   -1.5060   14.4020 hc        1 SQU      0.033033
     81 H301        1.2170   -2.6080   13.2680 hc        1 SQU      0.033033
     82 H302        2.3740   -1.5640   12.3450 hc        1 SQU      0.033033
     83 H303        2.2990   -1.4550   14.1520 hc        1 SQU      0.033033
@<TRIPOS>BOND
     1    1    2 1   
     2    1   28 1   
     3    1   29 1   
     4    1   30 1   
     5    2    3 1   
     6    2    4 1   
     7    2   31 1   
     8    3   32 1   
     9    3   33 1   
    10    3   34 1   
    11    4    5 1   
    12    4   35 1   
    13    4   36 1   
    14    5    6 1   
    15    5   37 1   
    16    5   38 1   
    17    6    7 1   
    18    6   39 1   
    19    6   40 1   
    20    7    8 1   
    21    7   41 1   
    22    7   42 1   
    23    8    9 1   
    24    8   43 1   
    25    8   44 1   
    26    9   10 1   
    27    9   45 1   
    28    9   46 1   
    29   10   11 1   
    30   10   47 1   
    31   10   48 1   
    32   11   12 1   
    33   11   13 1   
    34   11   49 1   
    35   12   50 1   
    36   12   51 1   
    37   12   52 1   
    38   13   14 1   
    39   13   53 1   
    40   13   54 1   
    41   14   15 1   
    42   14   55 1   
    43   14   56 1   
    44   15   16 1   
    45   15   57 1   
    46   15   58 1   
    47   16   17 1   
    48   16   59 1   
    49   16   60 1   
    50   17   18 1   
    51   17   61 1   
    52   17   62 1   
    53   18   19 1   
    54   18   63 1   
    55   18   64 1   
    56   19   20 1   
    57   19   65 1   
    58   19   66 1   
    59   20   21 1   
    60   20   67 1   
    61   20   68 1   
    62   21   22 1   
    63   21   69 1   
    64   21   70 1   
    65   22   23 1   
    66   22   71 1   
    67   22   72 1   
    68   23   24 1   
    69   23   73 1   
    70   23   74 1   
    71   24   25 1   
    72   24   75 1   
    73   24   76 1   
    74   25   26 1   
    75   25   27 1   
    76   25   77 1   
    77   26   78 1   
    78   26   79 1   
    79   26   80 1   
    80   27   81 1   
    81   27   82 1   
    82   27   83 1   
@<TRIPOS>SUBSTRUCTURE
     1 SQU         1 TEMP              0 ****  ****    0 ROOT
