@<TRIPOS>MOLECULE
SQU
   83    82     1     0     0
SMALL
bcc


@<TRIPOS>ATOM
      1 C1          0.1570   -0.5650    0.7490 c3        1 SQU     -0.089600
      2 C2          1.6710   -0.5490    0.8020 c3        1 SQU     -0.067700
      3 C3          2.1430   -0.6260    2.2390 c3        1 SQU     -0.089600
      4 C4          2.2360   -1.6920   -0.0310 c3        1 SQU     -0.075400
      5 C5          3.6980   -1.4920   -0.3670 c3        1 SQU     -0.079400
      6 C6          4.2230   -2.6290   -1.2170 c3        1 SQU     -0.079400
      7 C7          5.6860   -2.4330   -1.5540 c3        1 SQU     -0.079400
      8 C9          6.2120   -3.5690   -2.4050 c3        1 SQU     -0.079400
      9 C10         7.6760   -3.3730   -2.7390 c3        1 SQU     -0.079400
     10 C11         8.1950   -4.5080   -3.5970 c3        1 SQU     -0.076400
     11 C12         9.6830   -4.3750   -3.8950 c3        1 SQU     -0.064700
     12 C13         9.9370   -3.2680   -4.8970 c3        1 SQU     -0.089100
     13 C14        10.2260   -5.7050   -4.4050 c3        1 SQU     -0.076400
     14 C15        11.7380   -5.7640   -4.3670 c3        1 SQU     -0.079400
     15 C16        12.2420   -7.1210   -4.8090 c3        1 SQU     -0.079400
     16 C17        13.7540   -7.1810   -4.7830 c3        1 SQU     -0.079400
     17 C18        14.2580   -8.5390   -5.2220 c3        1 SQU     -0.079400
     18 C20        15.7700   -8.5990   -5.1970 c3        1 SQU     -0.079400
     19 C21        16.2740   -9.9570   -5.6360 c3        1 SQU     -0.079400
     20 C22        17.7860  -10.0160   -5.6120 c3        1 SQU     -0.079400
     21 C23        18.2900  -11.3750   -6.0510 c3        1 SQU     -0.079400
     22 C25        19.8020  -11.4340   -6.0280 c3        1 SQU     -0.079400
     23 C26        20.3060  -12.7930   -6.4660 c3        1 SQU     -0.079400
     24 C27        21.8190  -12.8470   -6.4440 c3        1 SQU     -0.075400
     25 C28        22.3550  -14.2120   -6.8530 c3        1 SQU     -0.067700
     26 C29        23.7980  -14.3570   -6.4140 c3        1 SQU     -0.089600
     27 C30        22.2410  -14.4270   -8.3480 c3        1 SQU     -0.089600
     28 H11        -0.2610    0.2640    1.3690 hc        1 SQU      0.033033
     29 H12A       -0.1990   -0.4370   -0.3010 hc        1 SQU      0.033033
     30 H13        -0.2380   -1.5340    1.1410 hc        1 SQU      0.033033
     31 H2          2.0310    0.4240    0.3610 hc        1 SQU      0.045700
     32 H31         3.2570   -0.5800    2.2900 hc        1 SQU      0.033033
     33 H32         1.7260    0.2260    2.8280 hc        1 SQU      0.033033
     34 H33         1.8060   -1.5800    2.7120 hc        1 SQU      0.033033
     35 H41         2.1050   -2.6580    0.5240 hc        1 SQU      0.039700
     36 H42         1.6500   -1.7750   -0.9850 hc        1 SQU      0.039700
     37 H51         3.8300   -0.5210   -0.9140 hc        1 SQU      0.039700
     38 H52         4.2990   -1.4230    0.5780 hc        1 SQU      0.039700
     39 H61         3.6260   -2.6970   -2.1650 hc        1 SQU      0.039700
     40 H62         4.0900   -3.6000   -0.6720 hc        1 SQU      0.039700
     41 H71         6.2840   -2.3640   -0.6070 hc        1 SQU      0.039700
     42 H72         5.8200   -1.4610   -2.0990 hc        1 SQU      0.039700
     43 H91         5.6150   -3.6360   -3.3530 hc        1 SQU      0.039700
     44 H92         6.0760   -4.5400   -1.8600 hc        1 SQU      0.039700
     45 H101        7.8080   -2.3970   -3.2750 hc        1 SQU      0.040200
     46 H102        8.2720   -3.3140   -1.7900 hc        1 SQU      0.040200
     47 H111        7.6230   -4.5430   -4.5610 hc        1 SQU      0.039700
     48 H112        8.0080   -5.4780   -3.0640 hc        1 SQU      0.039700
     49 H12        10.2160   -4.1200   -2.9360 hc        1 SQU      0.047700
     50 H131       11.0310   -3.1600   -5.0910 hc        1 SQU      0.033700
     51 H132        9.5530   -2.2940   -4.5080 hc        1 SQU      0.033700
     52 H133        9.4270   -3.4880   -5.8650 hc        1 SQU      0.033700
     53 H141        9.8150   -6.5390   -3.7750 hc        1 SQU      0.039700
     54 H142        9.8670   -5.8750   -5.4540 hc        1 SQU      0.039700
     55 H151       12.1680   -4.9710   -5.0340 hc        1 SQU      0.040200
     56 H152       12.0980   -5.5520   -3.3250 hc        1 SQU      0.040200
     57 H161       11.8750   -7.3380   -5.8470 hc        1 SQU      0.039700
     58 H162       11.8220   -7.9160   -4.1380 hc        1 SQU      0.039700
     59 H171       14.1210   -6.9620   -3.7460 hc        1 SQU      0.039700
     60 H172       14.1740   -6.3880   -5.4570 hc        1 SQU      0.039700
     61 H181       13.8390   -9.3320   -4.5480 hc        1 SQU      0.039700
     62 H182       13.8900   -8.7600   -6.2590 hc        1 SQU      0.039700
     63 H201       16.1890   -7.8060   -5.8720 hc        1 SQU      0.039700
     64 H202       16.1380   -8.3780   -4.1610 hc        1 SQU      0.039700
     65 H211       15.9050  -10.1780   -6.6730 hc        1 SQU      0.039700
     66 H212       15.8560  -10.7500   -4.9610 hc        1 SQU      0.039700
     67 H221       18.1550   -9.7950   -4.5760 hc        1 SQU      0.039700
     68 H222       18.2040   -9.2240   -6.2880 hc        1 SQU      0.039700
     69 H231       17.8720  -12.1670   -5.3750 hc        1 SQU      0.039700
     70 H232       17.9210  -11.5960   -7.0870 hc        1 SQU      0.039700
     71 H251       20.1710  -11.2110   -4.9920 hc        1 SQU      0.039700
     72 H252       20.2200  -10.6420   -6.7040 hc        1 SQU      0.039700
     73 H261       19.8900  -13.5830   -5.7870 hc        1 SQU      0.039700
     74 H262       19.9320  -13.0140   -7.5000 hc        1 SQU      0.039700
     75 H271       22.1780  -12.6070   -5.4080 hc        1 SQU      0.039700
     76 H272       22.2350  -12.0630   -7.1300 hc        1 SQU      0.039700
     77 H28        21.7450  -15.0040   -6.3320 hc        1 SQU      0.045700
     78 H291       24.1990  -15.3520   -6.7230 hc        1 SQU      0.033033
     79 H292       23.8800  -14.2710   -5.3040 hc        1 SQU      0.033033
     80 H293       24.4300  -13.5620   -6.8780 hc        1 SQU      0.033033
     81 H301       22.6300  -15.4370   -8.6230 hc        1 SQU      0.033033
     82 H302       21.1760  -14.3570   -8.6750 hc        1 SQU      0.033033
     83 H303       22.8320  -13.6580   -8.9010 hc        1 SQU      0.033033
@<TRIPOS>BOND
     1    1    2 1   
     2    1   28 1   
     3    1   29 1   
     4    1   30 1   
     5    2    3 1   
     6    2    4 1   
     7    2   31 1   
     8    3   32 1   
     9    3   33 1   
    10    3   34 1   
    11    4    5 1   
    12    4   35 1   
    13    4   36 1   
    14    5    6 1   
    15    5   37 1   
    16    5   38 1   
    17    6    7 1   
    18    6   39 1   
    19    6   40 1   
    20    7    8 1   
    21    7   41 1   
    22    7   42 1   
    23    8    9 1   
    24    8   43 1   
    25    8   44 1   
    26    9   10 1   
    27    9   45 1   
    28    9   46 1   
    29   10   11 1   
    30   10   47 1   
    31   10   48 1   
    32   11   12 1   
    33   11   13 1   
    34   11   49 1   
    35   12   50 1   
    36   12   51 1   
    37   12   52 1   
    38   13   14 1   
    39   13   53 1   
    40   13   54 1   
    41   14   15 1   
    42   14   55 1   
    43   14   56 1   
    44   15   16 1   
    45   15   57 1   
    46   15   58 1   
    47   16   17 1   
    48   16   59 1   
    49   16   60 1   
    50   17   18 1   
    51   17   61 1   
    52   17   62 1   
    53   18   19 1   
    54   18   63 1   
    55   18   64 1   
    56   19   20 1   
    57   19   65 1   
    58   19   66 1   
    59   20   21 1   
    60   20   67 1   
    61   20   68 1   
    62   21   22 1   
    63   21   69 1   
    64   21   70 1   
    65   22   23 1   
    66   22   71 1   
    67   22   72 1   
    68   23   24 1   
    69   23   73 1   
    70   23   74 1   
    71   24   25 1   
    72   24   75 1   
    73   24   76 1   
    74   25   26 1   
    75   25   27 1   
    76   25   77 1   
    77   26   78 1   
    78   26   79 1   
    79   26   80 1   
    80   27   81 1   
    81   27   82 1   
    82   27   83 1   
@<TRIPOS>SUBSTRUCTURE
     1 SQU         1 TEMP              0 ****  ****    0 ROOT
