@<TRIPOS>MOLECULE
SR1
   23    23     1     0     0
SMALL
bcc


@<TRIPOS>ATOM
      1 CS         -0.1390   -0.2700    0.4340 c3        1 SR1     -0.044000
      2 S           1.4680   -0.7680    0.9220 ss        1 SR1     -0.275200
      3 C5'         2.0940    0.7110    1.6610 c3        1 SR1     -0.037300
      4 C4'         3.6020    0.6090    1.7720 c3        1 SR1      0.149100
      5 O4'         4.1060    1.9290    2.0650 os        1 SR1     -0.438600
      6 C1'         4.8170    1.9530    3.2920 c3        1 SR1      0.305900
      7 O1'         6.1670    2.1100    2.9350 oh        1 SR1     -0.614800
      8 C2'         4.5720    0.6110    4.0240 c3        1 SR1      0.059100
      9 O2'         5.7200    0.0820    4.6390 oh        1 SR1     -0.583800
     10 C3'         4.0540   -0.3300    2.9090 c3        1 SR1      0.078100
     11 O3'         5.1150   -1.1210    2.4060 oh        1 SR1     -0.596800
     12 HS1        -0.1120    0.5810   -0.2820 h1        1 SR1      0.065367
     13 HS2        -0.5950   -1.1540   -0.0690 h1        1 SR1      0.065367
     14 HS3        -0.7690    0.0170    1.3050 h1        1 SR1      0.065367
     15 H5'1        1.6380    0.8660    2.6680 h1        1 SR1      0.073700
     16 H5'2        1.8360    1.6020    1.0350 h1        1 SR1      0.073700
     17 H4'         4.0620    0.3050    0.7910 h1        1 SR1      0.102700
     18 H1'         4.5200    2.8630    3.8750 h2        1 SR1      0.110700
     19 HO'1        6.3210    1.6200    2.1150 ho        1 SR1      0.427000
     20 H2'         3.8170    0.7280    4.8440 h1        1 SR1      0.093700
     21 HO'2        6.4840    0.2940    4.0810 ho        1 SR1      0.425000
     22 H3'         3.2160   -0.9840    3.2650 h1        1 SR1      0.076700
     23 HO'3        5.4240   -1.6670    3.1430 ho        1 SR1      0.421000
@<TRIPOS>BOND
     1    1    2 1   
     2    1   12 1   
     3    1   13 1   
     4    1   14 1   
     5    2    3 1   
     6    3    4 1   
     7    3   15 1   
     8    3   16 1   
     9    4    5 1   
    10    4   10 1   
    11    4   17 1   
    12    5    6 1   
    13    6    7 1   
    14    6    8 1   
    15    6   18 1   
    16    7   19 1   
    17    8    9 1   
    18    8   10 1   
    19    8   20 1   
    20    9   21 1   
    21   10   11 1   
    22   10   22 1   
    23   11   23 1   
@<TRIPOS>SUBSTRUCTURE
     1 SR1         1 TEMP              0 ****  ****    0 ROOT
