@<TRIPOS>MOLECULE
SR1
   23    23     1     0     0
SMALL
bcc


@<TRIPOS>ATOM
      1 CS          4.1080   -0.6250   -0.5870 c3        1 SR1     -0.044000
      2 S           2.5820   -0.9210    0.2210 ss        1 SR1     -0.275200
      3 C5'         1.4840    0.1210   -0.6920 c3        1 SR1     -0.037300
      4 C4'         0.2090    0.3170    0.1040 c3        1 SR1      0.149100
      5 O4'        -0.5160    1.4090   -0.4990 os        1 SR1     -0.438600
      6 C1'        -1.8010    0.9990   -0.9400 c3        1 SR1      0.305900
      7 O1'        -2.7070    1.6030   -0.0520 oh        1 SR1     -0.614800
      8 C2'        -1.8710   -0.5460   -0.8640 c3        1 SR1      0.059100
      9 O2'        -3.0960   -1.0340   -0.3770 oh        1 SR1     -0.583800
     10 C3'        -0.7050   -0.9250    0.0790 c3        1 SR1      0.078100
     11 O3'        -1.1870   -1.1190    1.3970 oh        1 SR1     -0.596800
     12 HS1         4.8660   -1.2370   -0.0450 h1        1 SR1      0.065367
     13 HS2         4.0830   -0.9400   -1.6540 h1        1 SR1      0.065367
     14 HS3         4.4040    0.4460   -0.5390 h1        1 SR1      0.065367
     15 H5'1        1.9540    1.1200   -0.8770 h1        1 SR1      0.073700
     16 H5'2        1.2560   -0.3300   -1.6880 h1        1 SR1      0.073700
     17 H4'         0.4350    0.6310    1.1600 h1        1 SR1      0.102700
     18 H1'        -1.9970    1.4260   -1.9570 h2        1 SR1      0.110700
     19 HO'1       -2.3050    1.6150    0.8290 ho        1 SR1      0.427000
     20 H2'        -1.7440   -1.0070   -1.8780 h1        1 SR1      0.093700
     21 HO'2       -3.4180   -0.4170    0.2970 ho        1 SR1      0.425000
     22 H3'        -0.1570   -1.8370   -0.2720 h1        1 SR1      0.076700
     23 HO'3       -1.7990   -1.8680    1.3580 ho        1 SR1      0.421000
@<TRIPOS>BOND
     1    1    2 1   
     2    1   12 1   
     3    1   13 1   
     4    1   14 1   
     5    2    3 1   
     6    3    4 1   
     7    3   15 1   
     8    3   16 1   
     9    4    5 1   
    10    4   10 1   
    11    4   17 1   
    12    5    6 1   
    13    6    7 1   
    14    6    8 1   
    15    6   18 1   
    16    7   19 1   
    17    8    9 1   
    18    8   10 1   
    19    8   20 1   
    20    9   21 1   
    21   10   11 1   
    22   10   22 1   
    23   11   23 1   
@<TRIPOS>SUBSTRUCTURE
     1 SR1         1 TEMP              0 ****  ****    0 ROOT
