@<TRIPOS>MOLECULE
SR1
   23    23     1     0     0
SMALL
bcc


@<TRIPOS>ATOM
      1 CS         -0.0680   -0.3610    0.3450 c3        1 SR1     -0.044000
      2 S           1.5400   -0.8160    0.8700 ss        1 SR1     -0.275200
      3 C5'         2.1070    0.6790    1.6260 c3        1 SR1     -0.037300
      4 C4'         3.6140    0.6170    1.7780 c3        1 SR1      0.149100
      5 O4'         4.0750    1.9480    2.0850 os        1 SR1     -0.438600
      6 C1'         4.7520    1.9890    3.3310 c3        1 SR1      0.305900
      7 O1'         6.1070    2.1820    3.0110 oh        1 SR1     -0.614800
      8 C2'         4.5220    0.6400    4.0540 c3        1 SR1      0.059100
      9 O2'         5.6670    0.1400    4.7000 oh        1 SR1     -0.583800
     10 C3'         4.0600   -0.3120    2.9250 c3        1 SR1      0.078100
     11 O3'         5.1550   -1.0740    2.4490 oh        1 SR1     -0.596800
     12 HS1        -0.7260   -0.0930    1.2010 h1        1 SR1      0.065367
     13 HS2        -0.0480    0.4930   -0.3680 h1        1 SR1      0.065367
     14 HS3        -0.4880   -1.2560   -0.1700 h1        1 SR1      0.065367
     15 H5'1        1.6210    0.8210    2.6210 h1        1 SR1      0.073700
     16 H5'2        1.8430    1.5630    0.9940 h1        1 SR1      0.073700
     17 H4'         4.1070    0.3270    0.8090 h1        1 SR1      0.102700
     18 H1'         4.4150    2.8900    3.9060 h2        1 SR1      0.110700
     19 HO'1        6.2950    1.6980    2.1950 ho        1 SR1      0.427000
     20 H2'         3.7430    0.7360    4.8540 h1        1 SR1      0.093700
     21 HO'2        6.4400    0.3740    4.1620 ho        1 SR1      0.425000
     22 H3'         3.2310   -0.9890    3.2570 h1        1 SR1      0.076700
     23 HO'3        5.4580   -1.6140    3.1930 ho        1 SR1      0.421000
@<TRIPOS>BOND
     1    1    2 1   
     2    1   12 1   
     3    1   13 1   
     4    1   14 1   
     5    2    3 1   
     6    3    4 1   
     7    3   15 1   
     8    3   16 1   
     9    4    5 1   
    10    4   10 1   
    11    4   17 1   
    12    5    6 1   
    13    6    7 1   
    14    6    8 1   
    15    6   18 1   
    16    7   19 1   
    17    8    9 1   
    18    8   10 1   
    19    8   20 1   
    20    9   21 1   
    21   10   11 1   
    22   10   22 1   
    23   11   23 1   
@<TRIPOS>SUBSTRUCTURE
     1 SR1         1 TEMP              0 ****  ****    0 ROOT
