@<TRIPOS>MOLECULE
SR2
   47    49     1     0     0
SMALL
bcc


@<TRIPOS>ATOM
      1 C4          3.9870    1.0190   -0.2760 ca        1 SR2     -0.087000
      2 C3          5.1760    1.7320   -0.1230 ca        1 SR2     -0.010900
      3 BRR1        6.6640    1.2840   -1.1730 br        1 SR2     -0.084100
      4 C22         5.2690    2.7780    0.7990 ca        1 SR2     -0.118000
      5 C21         4.1600    3.1090    1.5730 ca        1 SR2     -0.112000
      6 C20         2.9670    2.4070    1.4430 ca        1 SR2     -0.160000
      7 C5          2.8640    1.3500    0.5110 ca        1 SR2      0.134600
      8 N1          1.6210    0.7030    0.3150 nh        1 SR2     -0.721300
      9 C6          1.4780   -0.6940    0.3740 ca        1 SR2      0.677200
     10 C7          0.1350   -1.2620    0.2020 ca        1 SR2     -0.250600
     11 C8         -1.0230   -0.4910   -0.0200 ca        1 SR2     -0.171000
     12 N3          2.5510   -1.4920    0.5450 nb        1 SR2     -0.755000
     13 C19         2.3180   -2.8500    0.5530 ca        1 SR2      0.656900
     14 N2          1.1570   -3.4860    0.4330 nb        1 SR2     -0.698000
     15 C18         0.0410   -2.6860    0.2560 ca        1 SR2      0.407600
     16 C17        -1.2490   -3.2820    0.1150 ca        1 SR2     -0.156300
     17 C13        -2.3680   -2.5180   -0.0860 ca        1 SR2     -0.121000
     18 C9         -2.2770   -1.0940   -0.1660 ca        1 SR2      0.075600
     19 N11        -3.3930   -0.2820   -0.4130 n         1 SR2     -0.472100
     20 C10        -4.7370   -0.6400   -0.3310 c         1 SR2      0.675300
     21 O61        -5.1040   -1.7910   -0.0260 o         1 SR2     -0.592100
     22 C11        -5.7140    0.4390   -0.6320 ce        1 SR2     -0.269200
     23 C51        -7.0300    0.1940   -0.5810 c2        1 SR2     -0.059200
     24 C61        -8.0420    1.2380   -0.9320 c3        1 SR2      0.184000
     25 N63        -9.3180    1.0660   -0.2500 n3        1 SR2     -0.735600
     26 C65        -9.2160    1.1900    1.1870 c3        1 SR2      0.154100
     27 C67       -10.3580    1.8960   -0.8170 c3        1 SR2      0.154100
     28 H4          3.9270    0.1980   -1.0090 ha        1 SR2      0.167000
     29 H22         6.2080    3.3390    0.9180 ha        1 SR2      0.148000
     30 H21         4.2290    3.9320    2.3010 ha        1 SR2      0.139000
     31 H20         2.1070    2.6850    2.0710 ha        1 SR2      0.132000
     32 HN1         0.8450    1.1980    0.7070 hn        1 SR2      0.424800
     33 H8         -0.9420    0.6040   -0.1040 ha        1 SR2      0.128000
     34 H19         3.2300   -3.4710    0.6890 h5        1 SR2      0.055100
     35 H17        -1.3340   -4.3810    0.1670 ha        1 SR2      0.160000
     36 H13        -3.3510   -3.0120   -0.1880 ha        1 SR2      0.181000
     37 HN11       -3.1910    0.6730   -0.6130 hn        1 SR2      0.315500
     38 H111       -5.3210    1.4320   -0.8990 ha        1 SR2      0.132000
     39 H511       -7.4120   -0.8080   -0.3080 ha        1 SR2      0.168000
     40 H611       -7.6060    2.2660   -0.7470 h1        1 SR2      0.047200
     41 H612       -8.2340    1.1500   -2.0430 h1        1 SR2      0.047200
     42 H651       -8.9350    2.2250    1.5240 h1        1 SR2      0.035033
     43 H652      -10.2050    0.9230    1.6420 h1        1 SR2      0.035033
     44 H653       -8.4410    0.4700    1.5600 h1        1 SR2      0.035033
     45 H671      -10.1510    2.9970   -0.7190 h1        1 SR2      0.035033
     46 H672      -10.4700    1.6490   -1.9050 h1        1 SR2      0.035033
     47 H673      -11.3240    1.6670   -0.2950 h1        1 SR2      0.035033
@<TRIPOS>BOND
     1    1    2 ar  
     2    1    7 ar  
     3    1   28 1   
     4    2    3 1   
     5    2    4 ar  
     6    4    5 ar  
     7    4   29 1   
     8    5    6 ar  
     9    5   30 1   
    10    6    7 ar  
    11    6   31 1   
    12    7    8 1   
    13    8    9 1   
    14    8   32 1   
    15    9   10 ar  
    16    9   12 ar  
    17   10   11 ar  
    18   10   15 ar  
    19   11   18 ar  
    20   11   33 1   
    21   12   13 ar  
    22   13   14 ar  
    23   13   34 1   
    24   14   15 ar  
    25   15   16 ar  
    26   16   17 ar  
    27   16   35 1   
    28   17   18 ar  
    29   17   36 1   
    30   18   19 1   
    31   19   20 1   
    32   19   37 1   
    33   20   21 2   
    34   20   22 1   
    35   22   23 2   
    36   22   38 1   
    37   23   24 1   
    38   23   39 1   
    39   24   25 1   
    40   24   40 1   
    41   24   41 1   
    42   25   26 1   
    43   25   27 1   
    44   26   42 1   
    45   26   43 1   
    46   26   44 1   
    47   27   45 1   
    48   27   46 1   
    49   27   47 1   
@<TRIPOS>SUBSTRUCTURE
     1 SR2         1 TEMP              0 ****  ****    0 ROOT
