@<TRIPOS>MOLECULE
SR2
   48    50     1     0     0
SMALL
bcc


@<TRIPOS>ATOM
      1 C4         -0.4280    0.9920    0.2560 ca        1 SR2     -0.083000
      2 C3          0.9500    1.2120    0.2100 ca        1 SR2     -0.013900
      3 BRR1        1.6400    2.4990   -0.9620 br        1 SR2     -0.069100
      4 C22         1.8140    0.4840    1.0320 ca        1 SR2     -0.104000
      5 C21         1.2940   -0.4700    1.9040 ca        1 SR2     -0.111000
      6 C20        -0.0750   -0.7100    1.9610 ca        1 SR2     -0.152000
      7 C5         -0.9540    0.0240    1.1360 ca        1 SR2      0.115600
      8 N1         -2.3560   -0.1580    1.2580 nh        1 SR2     -0.717300
      9 C6         -3.1660   -0.4810    0.1620 ca        1 SR2      0.692200
     10 C7         -4.6070   -0.6610    0.3850 ca        1 SR2     -0.278600
     11 C8         -5.2310   -0.5200    1.6410 ca        1 SR2     -0.109000
     12 N3         -2.6450   -0.5730   -1.0810 nb        1 SR2     -0.746000
     13 C19        -3.5200   -0.8500   -2.1040 ca        1 SR2      0.685900
     14 N2         -4.8350   -1.0620   -2.0300 nb        1 SR2     -0.708000
     15 C18        -5.3930   -0.9670   -0.7700 ca        1 SR2      0.439600
     16 C17        -6.7980   -1.1700   -0.5990 ca        1 SR2     -0.157300
     17 C13        -7.3860   -1.0490    0.6310 ca        1 SR2     -0.108000
     18 C9         -6.6060   -0.7060    1.7760 ca        1 SR2      0.005600
     19 N11        -7.1970   -0.5740    3.0570 n         1 SR2     -0.421100
     20 C10        -8.4770   -0.1580    3.3040 c         1 SR2      0.658300
     21 O61        -9.3110    0.0940    2.3970 o         1 SR2     -0.670100
     22 C11        -8.8820   -0.0220    4.7390 ce        1 SR2     -0.162200
     23 C51        -9.7510    0.8980    5.1700 c2        1 SR2     -0.172200
     24 C61       -10.3700    1.9540    4.3140 c3        1 SR2      0.147000
     25 N63       -11.5150    1.4410    3.4840 n4        1 SR2     -0.684400
     26 C65       -12.6700    1.0620    4.3330 c3        1 SR2      0.085100
     27 C67       -11.9080    2.4500    2.4670 c3        1 SR2      0.085100
     28 H4         -1.1000    1.5700   -0.3990 ha        1 SR2      0.163000
     29 H22         2.9020    0.6570    0.9960 ha        1 SR2      0.156000
     30 H21         1.9740   -1.0460    2.5510 ha        1 SR2      0.146000
     31 H20        -0.4600   -1.4740    2.6530 ha        1 SR2      0.132000
     32 HN1        -2.6310   -0.6020    2.1100 hn        1 SR2      0.423800
     33 H8         -4.6310   -0.2470    2.5240 ha        1 SR2      0.135000
     34 H19        -3.0500   -0.9150   -3.1110 h5        1 SR2      0.069100
     35 H17        -7.4060   -1.4290   -1.4830 ha        1 SR2      0.169000
     36 H13        -8.4720   -1.2080    0.7370 ha        1 SR2      0.160000
     37 HN11       -6.5830   -0.7030    3.8330 hn        1 SR2      0.332500
     38 H111       -8.4360   -0.7440    5.4470 ha        1 SR2      0.173000
     39 H511      -10.0190    0.9500    6.2410 ha        1 SR2      0.167000
     40 H611      -10.7570    2.7990    4.9520 hx        1 SR2      0.110200
     41 H612       -9.5990    2.3620    3.5930 hx        1 SR2      0.110200
     42 H651      -12.3300    0.3280    5.1110 hx        1 SR2      0.102367
     43 H652      -13.0880    1.9740    4.8350 hx        1 SR2      0.102367
     44 H653      -13.4630    0.5920    3.6910 hx        1 SR2      0.102367
     45 H671      -12.7890    2.0630    1.8880 hx        1 SR2      0.102367
     46 H672      -12.1820    3.4130    2.9720 hx        1 SR2      0.102367
     47 H673      -11.0460    2.6170    1.7650 hx        1 SR2      0.102367
     48 H631      -11.1720    0.5940    2.9830 hn        1 SR2      0.489800
@<TRIPOS>BOND
     1    1    2 ar  
     2    1    7 ar  
     3    1   28 1   
     4    2    3 1   
     5    2    4 ar  
     6    4    5 ar  
     7    4   29 1   
     8    5    6 ar  
     9    5   30 1   
    10    6    7 ar  
    11    6   31 1   
    12    7    8 1   
    13    8    9 1   
    14    8   32 1   
    15    9   10 ar  
    16    9   12 ar  
    17   10   11 ar  
    18   10   15 ar  
    19   11   18 ar  
    20   11   33 1   
    21   12   13 ar  
    22   13   14 ar  
    23   13   34 1   
    24   14   15 ar  
    25   15   16 ar  
    26   16   17 ar  
    27   16   35 1   
    28   17   18 ar  
    29   17   36 1   
    30   18   19 1   
    31   19   20 1   
    32   19   37 1   
    33   20   21 2   
    34   20   22 1   
    35   22   23 2   
    36   22   38 1   
    37   23   24 1   
    38   23   39 1   
    39   24   25 1   
    40   24   40 1   
    41   24   41 1   
    42   25   26 1   
    43   25   27 1   
    44   25   48 1   
    45   26   42 1   
    46   26   43 1   
    47   26   44 1   
    48   27   45 1   
    49   27   46 1   
    50   27   47 1   
@<TRIPOS>SUBSTRUCTURE
     1 SR2         1 TEMP              0 ****  ****    0 ROOT
