@<TRIPOS>MOLECULE
SR2
   47    38     1     0     0
SMALL
bcc


@<TRIPOS>ATOM
      1 C4          5.6330    1.1600   -2.2320 c1        1 SR2     -0.161000
      2 C3          7.0200    1.1710   -2.1490 c1        1 SR2     -0.148000
      3 BRR1        8.0440    2.1910   -3.3980 br        1 SR2      0.051000
      4 C22         7.6680    0.3830   -1.1960 c1        1 SR2     -0.117000
      5 C21         6.9260   -0.4130   -0.3290 c1        1 SR2     -0.121667
      6 C20         5.5290   -0.4250   -0.4120 c1        1 SR2     -0.121667
      7 C5          4.8840    0.3580   -1.3570 c1        1 SR2      0.069500
      8 N1          3.4030    0.4330   -1.3690 n2        1 SR2     -0.242000
      9 C6          2.6490   -0.5890   -1.9850 c2        1 SR2      0.159000
     10 C7          1.2810   -0.8650   -1.9750 c1        1 SR2     -0.119000
     11 C8          0.4170   -0.1640   -1.0880 c1        1 SR2     -0.161000
     12 N3          3.4560   -1.2180   -2.8660 n2        1 SR2     -0.232000
     13 C19         2.9230   -2.1420   -3.7640 c1        1 SR2     -0.007000
     14 N2          1.6060   -2.4070   -3.7540 n1        1 SR2     -0.173000
     15 C18         0.7690   -1.7600   -2.8480 c1        1 SR2      0.012000
     16 C17        -0.6270   -2.0020   -2.8780 c1        1 SR2     -0.121667
     17 C13        -1.4760   -1.3140   -2.0070 c1        1 SR2     -0.121667
     18 C9         -0.9600   -0.4040   -1.1200 c1        1 SR2      0.069500
     19 N11        -1.1420    0.5920   -0.0720 n2        1 SR2     -0.325000
     20 C10        -2.4060    0.6680    0.6480 c1        1 SR2      0.352000
     21 O61        -3.3070   -0.0990    0.3760 o         1 SR2     -0.363000
     22 C11        -2.6180    1.7470    1.6860 c1        1 SR2     -0.121667
     23 C51        -3.6380    1.6420    2.5780 c1        1 SR2     -0.121667
     24 C61        -4.5940    0.4090    2.5300 c2        1 SR2     -0.066000
     25 N63        -5.8600    0.7410    3.2040 n3        1 SR2     -0.269000
     26 C65        -6.8380   -0.2600    2.9020 c3        1 SR2     -0.119000
     27 C67        -5.6490    0.7910    4.6350 c3        1 SR2     -0.119000
     28 H4          5.1660    1.7280   -2.9180 ha        1 SR2      0.135500
     29 H22         8.6570    0.3910   -1.1370 ha        1 SR2      0.149000
     30 H21         7.3840   -0.9690    0.3420 ha        1 SR2      0.152500
     31 H20         4.9980   -0.9960    0.2110 ha        1 SR2      0.152500
     32 HN1         2.9850    1.0850   -0.9150 hn        1 SR2      0.221000
     33 H8          0.7960    0.5040   -0.4380 ha        1 SR2      0.135500
     34 H19         3.5180   -2.6040   -4.4120 ha        1 SR2      0.191000
     35 H17        -1.0050   -2.6660   -3.5260 ha        1 SR2      0.152500
     36 H13        -2.4200   -1.4790   -2.0290 ha        1 SR2      0.152500
     37 HN11       -0.4340    1.1500    0.1690 hn        1 SR2      0.229000
     38 H111       -2.0200    2.5180    1.7170 ha        1 SR2      0.152500
     39 H511       -3.7730    2.3310    3.2410 ha        1 SR2      0.152500
     40 H611       -4.7770    0.1690    1.5810 h4        1 SR2      0.112000
     41 H612       -4.1590   -0.3700    2.9970 h4        1 SR2      0.112000
     42 H651       -7.7210    0.0120    3.2800 h1        1 SR2      0.072500
     43 H652       -6.9150   -0.3630    1.9030 h1        1 SR2      0.072500
     44 H653       -6.5690   -1.0960    3.2900 h1        1 SR2      0.072500
     45 H671       -6.4700    0.4980    5.0980 h1        1 SR2      0.072500
     46 H672       -5.4250    1.7360    4.9100 h1        1 SR2      0.072500
     47 H673       -4.9110    0.1990    4.8760 h1        1 SR2      0.072500
@<TRIPOS>BOND
     1    1    7 1   
     2    1   28 1   
     3    2    3 1   
     4    2    4 1   
     5    4   29 1   
     6    5    6 1   
     7    5   30 1   
     8    6   31 1   
     9    8    9 1   
    10    8   32 1   
    11    9   10 1   
    12    9   12 1   
    13   10   15 1   
    14   11   18 1   
    15   11   33 1   
    16   12   13 1   
    17   13   34 1   
    18   14   15 1   
    19   16   17 1   
    20   16   35 1   
    21   17   36 1   
    22   19   20 1   
    23   19   37 1   
    24   20   21 1   
    25   22   23 1   
    26   22   38 1   
    27   23   39 1   
    28   24   25 1   
    29   24   40 1   
    30   24   41 1   
    31   25   26 1   
    32   25   27 1   
    33   26   42 1   
    34   26   43 1   
    35   26   44 1   
    36   27   45 1   
    37   27   46 1   
    38   27   47 1   
@<TRIPOS>SUBSTRUCTURE
     1 SR2         1 TEMP              0 ****  ****    0 ROOT
