@<TRIPOS>MOLECULE
SR2
   50    52     1     0     0
SMALL
bcc


@<TRIPOS>ATOM
      1 C4         -1.0880    0.6760    1.9920 ca        1 SR2     -0.104000
      2 C3         -0.0620    1.5970    1.7770 ca        1 SR2     -0.015900
      3 BRR1       -0.1740    3.2970    2.5350 br        1 SR2      0.011900
      4 C22         1.0500    1.2380    0.9990 ca        1 SR2     -0.027000
      5 C21         1.1310   -0.0360    0.4380 ca        1 SR2     -0.089000
      6 C20         0.1160   -0.9720    0.6370 ca        1 SR2     -0.070000
      7 C5         -0.9930   -0.6050    1.4200 ca        1 SR2     -0.076400
      8 N1         -2.0510   -1.5930    1.6880 n4        1 SR2     -0.624100
      9 C6         -2.9660   -1.7650    0.5260 ca        1 SR2      0.560200
     10 C7         -4.2280   -1.0480    0.4430 ca        1 SR2     -0.256600
     11 C8         -4.7480   -0.1570    1.4100 ca        1 SR2     -0.068000
     12 N3         -2.5440   -2.6010   -0.4210 nb        1 SR2     -0.641000
     13 C19        -3.3630   -2.7710   -1.5290 ca        1 SR2      0.719900
     14 N2         -4.5300   -2.1670   -1.7380 nb        1 SR2     -0.607000
     15 C18        -4.9740   -1.2980   -0.7640 ca        1 SR2      0.463600
     16 C17        -6.2160   -0.6100   -0.9650 ca        1 SR2     -0.092300
     17 C13        -6.6940    0.2620   -0.0220 ca        1 SR2     -0.113000
     18 C9         -5.9620    0.4810    1.1810 ca        1 SR2     -0.025400
     19 N11        -6.4790    1.4660    2.1450 n4        1 SR2     -0.542200
     20 C10        -7.9770    1.3570    2.3970 c         1 SR2      0.558300
     21 O61        -8.6870    1.9830    1.6190 o         1 SR2     -0.419100
     22 C11        -8.4060    0.5710    3.5530 ce        1 SR2     -0.242200
     23 C51        -9.6780    0.5470    3.9950 c2        1 SR2     -0.031200
     24 C61       -10.8090    1.2980    3.3760 c3        1 SR2      0.102000
     25 N63       -12.1180    1.1790    4.0950 n4        1 SR2     -0.678400
     26 C65       -12.1070    1.9240    5.3840 c3        1 SR2      0.076600
     27 C67       -13.2290    1.6660    3.2220 c3        1 SR2      0.076600
     28 H4         -1.9480    0.9550    2.6200 ha        1 SR2      0.132000
     29 H22         1.8710    1.9620    0.8310 ha        1 SR2      0.202000
     30 H21         2.0130   -0.3150   -0.1700 ha        1 SR2      0.197000
     31 H20         0.2030   -1.9750    0.1840 ha        1 SR2      0.181000
     32 HN1        -1.5890   -2.5000    1.8950 hn        1 SR2      0.475800
     33 H8         -4.1790    0.0450    2.3330 ha        1 SR2      0.141000
     34 H19        -2.9800   -3.4850   -2.3040 h5        1 SR2      0.133100
     35 H17        -6.7790   -0.7870   -1.9060 ha        1 SR2      0.222000
     36 H13        -7.6390    0.8040   -0.2140 ha        1 SR2      0.186000
     37 HN11       -6.2950    2.4050    1.7460 hn        1 SR2      0.477800
     38 H111       -7.6420   -0.0380    4.0730 ha        1 SR2      0.192000
     39 H511       -9.9030   -0.0860    4.8820 ha        1 SR2      0.192000
     40 H611      -10.9570    0.9230    2.3130 hx        1 SR2      0.141200
     41 H612      -10.5510    2.4000    3.3020 hx        1 SR2      0.141200
     42 H651      -12.0020    3.0260    5.1870 hx        1 SR2      0.120700
     43 H652      -11.2540    1.5660    6.0190 hx        1 SR2      0.120700
     44 H653      -13.0790    1.7400    5.9240 hx        1 SR2      0.120700
     45 H671      -14.1990    1.5810    3.7890 hx        1 SR2      0.120700
     46 H672      -13.0530    2.7410    2.9480 hx        1 SR2      0.120700
     47 H673      -13.2840    1.0360    2.2930 hx        1 SR2      0.120700
     48 H12        -2.5950   -1.3080    2.5070 hn        1 SR2      0.475800
     49 H112       -5.9770    1.3800    3.0370 hn        1 SR2      0.477800
     50 H631      -12.2910    0.1830    4.3010 hn        1 SR2      0.461800
@<TRIPOS>BOND
     1    1    2 ar  
     2    1    7 ar  
     3    1   28 1   
     4    2    3 1   
     5    2    4 ar  
     6    4    5 ar  
     7    4   29 1   
     8    5    6 ar  
     9    5   30 1   
    10    6    7 ar  
    11    6   31 1   
    12    7    8 1   
    13    8    9 1   
    14    8   32 1   
    15    8   48 1   
    16    9   10 ar  
    17    9   12 ar  
    18   10   11 ar  
    19   10   15 ar  
    20   11   18 ar  
    21   11   33 1   
    22   12   13 ar  
    23   13   14 ar  
    24   13   34 1   
    25   14   15 ar  
    26   15   16 ar  
    27   16   17 ar  
    28   16   35 1   
    29   17   18 ar  
    30   17   36 1   
    31   18   19 1   
    32   19   20 1   
    33   19   37 1   
    34   19   49 1   
    35   20   21 2   
    36   20   22 1   
    37   22   23 2   
    38   22   38 1   
    39   23   24 1   
    40   23   39 1   
    41   24   25 1   
    42   24   40 1   
    43   24   41 1   
    44   25   26 1   
    45   25   27 1   
    46   25   50 1   
    47   26   42 1   
    48   26   43 1   
    49   26   44 1   
    50   27   45 1   
    51   27   46 1   
    52   27   47 1   
@<TRIPOS>SUBSTRUCTURE
     1 SR2         1 TEMP              0 ****  ****    0 ROOT
