@<TRIPOS>MOLECULE
SR2
   48    50     1     0     0
SMALL
bcc


@<TRIPOS>ATOM
      1 C4         -0.4360    0.9780    0.2240 ca        1 SR2     -0.083000
      2 C3          0.9420    1.1960    0.1720 ca        1 SR2     -0.013900
      3 BrR1        1.6280    2.4780   -1.0100 br        1 SR2     -0.069100
      4 C22         1.8090    0.4720    0.9930 ca        1 SR2     -0.104000
      5 C21         1.2920   -0.4780    1.8720 ca        1 SR2     -0.111000
      6 C20        -0.0770   -0.7160    1.9350 ca        1 SR2     -0.152000
      7 C5         -0.9590    0.0150    1.1100 ca        1 SR2      0.115600
      8 N1         -2.3610   -0.1640    1.2390 nu        1 SR2     -0.717300
      9 C6         -3.1750   -0.4910    0.1480 ca        1 SR2      0.692200
     10 C7         -4.6160   -0.6670    0.3790 ca        1 SR2     -0.278600
     11 C8         -5.2350   -0.5200    1.6370 ca        1 SR2     -0.109000
     12 N3         -2.6610   -0.5890   -1.0960 nb        1 SR2     -0.746000
     13 C19        -3.5410   -0.8700   -2.1150 ca        1 SR2      0.685900
     14 N2         -4.8550   -1.0780   -2.0330 nb        1 SR2     -0.708000
     15 C18        -5.4070   -0.9760   -0.7710 ca        1 SR2      0.439600
     16 C17        -6.8130   -1.1760   -0.5940 ca        1 SR2     -0.157300
     17 C13        -7.3960   -1.0480    0.6380 ca        1 SR2     -0.108000
     18 C9         -6.6100   -0.7020    1.7780 ca        1 SR2      0.005600
     19 N11        -7.1950   -0.5630    3.0610 ns        1 SR2     -0.421100
     20 C10        -8.4720   -0.1400    3.3120 c         1 SR2      0.658300
     21 O61        -9.3080    0.1120    2.4070 o         1 SR2     -0.670100
     22 C11        -8.8710    0.0030    4.7470 ce        1 SR2     -0.162200
     23 C51        -9.7340    0.9290    5.1780 c2        1 SR2     -0.172200
     24 C61       -10.3520    1.9840    4.3200 c3        1 SR2      0.147000
     25 N63       -11.5020    1.4740    3.4970 nx        1 SR2     -0.684400
     26 C65       -12.6550    1.1040    4.3510 c3        1 SR2      0.085100
     27 C67       -11.8930    2.4810    2.4780 c3        1 SR2      0.085100
     28 H4         -1.1090    1.5540   -0.4310 ha        1 SR2      0.163000
     29 H22         2.8970    0.6430    0.9510 ha        1 SR2      0.156000
     30 H21         1.9740   -1.0520    2.5180 ha        1 SR2      0.146000
     31 H20        -0.4600   -1.4770    2.6320 ha        1 SR2      0.132000
     32 HN1        -2.6320   -0.6040    2.0940 hn        1 SR2      0.423800
     33 H8         -4.6300   -0.2430    2.5150 ha        1 SR2      0.135000
     34 H19        -3.0750   -0.9400   -3.1230 h5        1 SR2      0.069100
     35 H17        -7.4250   -1.4380   -1.4740 ha        1 SR2      0.169000
     36 H13        -8.4810   -1.2030    0.7500 ha        1 SR2      0.160000
     37 HN11       -6.5790   -0.6910    3.8350 hn        1 SR2      0.332500
     38 H111       -8.4260   -0.7190    5.4560 ha        1 SR2      0.173000
     39 H511       -9.9980    0.9860    6.2500 ha        1 SR2      0.167000
     40 H611       -9.5810    2.3860    3.5960 hx        1 SR2      0.110200
     41 H612      -10.7320    2.8330    4.9580 hx        1 SR2      0.110200
     42 H651      -13.0680    2.0190    4.8520 hx        1 SR2      0.102367
     43 H652      -12.3160    0.3700    5.1310 hx        1 SR2      0.102367
     44 H653      -13.4530    0.6350    3.7140 hx        1 SR2      0.102367
     45 H671      -11.0330    2.6420    1.7720 hx        1 SR2      0.102367
     46 H672      -12.1610    3.4470    2.9800 hx        1 SR2      0.102367
     47 H673      -12.7780    2.0960    1.9030 hx        1 SR2      0.102367
     48 H631      -11.1650    0.6240    2.9970 hn        1 SR2      0.489800
@<TRIPOS>BOND
     1    1    2 ar  
     2    1    7 ar  
     3    1   28 1   
     4    2    3 1   
     5    2    4 ar  
     6    4    5 ar  
     7    4   29 1   
     8    5    6 ar  
     9    5   30 1   
    10    6    7 ar  
    11    6   31 1   
    12    7    8 1   
    13    8    9 1   
    14    8   32 1   
    15    9   10 ar  
    16    9   12 ar  
    17   10   11 ar  
    18   10   15 ar  
    19   11   18 ar  
    20   11   33 1   
    21   12   13 ar  
    22   13   14 ar  
    23   13   34 1   
    24   14   15 ar  
    25   15   16 ar  
    26   16   17 ar  
    27   16   35 1   
    28   17   18 ar  
    29   17   36 1   
    30   18   19 1   
    31   19   20 1   
    32   19   37 1   
    33   20   21 2   
    34   20   22 1   
    35   22   23 2   
    36   22   38 1   
    37   23   24 1   
    38   23   39 1   
    39   24   25 1   
    40   24   40 1   
    41   24   41 1   
    42   25   26 1   
    43   25   27 1   
    44   25   48 1   
    45   26   42 1   
    46   26   43 1   
    47   26   44 1   
    48   27   45 1   
    49   27   46 1   
    50   27   47 1   
@<TRIPOS>SUBSTRUCTURE
     1 SR2         1 TEMP              0 ****  ****    0 ROOT
