@<TRIPOS>MOLECULE
SR3
   38    37     1     0     0
SMALL
bcc


@<TRIPOS>ATOM
      1 C           3.7600    0.2470   -0.1900 c         1 SR3      0.932600
      2 N           2.7950   -2.0540   -0.3970 n4        1 SR3     -0.655800
      3 O           4.1850    0.2320   -1.3600 o         1 SR3     -0.798300
      4 CA          2.5220   -0.6790    0.1620 c3        1 SR3      0.037500
      5 CB          2.2890   -0.7120    1.6730 c3        1 SR3     -0.136200
      6 CG          3.6080   -0.8910    2.3150 c         1 SR3      0.727100
      7 CAA         1.5630    0.5530    2.0780 c3        1 SR3     -0.086100
      8 NAB         6.4590    0.3750    2.3580 n4        1 SR3     -0.768400
      9 OAC         0.3700   -3.5420   -0.5870 o         1 SR3     -0.562100
     10 OAD         6.5000    2.0250    3.9810 o         1 SR3     -0.423100
     11 CAJ         0.5470   -3.5450   -1.8120 c         1 SR3      0.574100
     12 CAK         1.6120   -2.7590   -2.4580 ce        1 SR3     -0.241200
     13 CAL         2.6000   -2.0910   -1.8410 c2        1 SR3      0.000000
     14 CAM         4.2920    1.0520    3.5700 c3        1 SR3      0.099400
     15 CAP         5.7920    1.2230    3.3900 c         1 SR3      0.528100
     16 SAT         0.9650   -1.9110    2.4680 s6        1 SR3      0.156800
     17 OD1         4.5240   -1.6360    1.9430 o         1 SR3     -0.568000
     18 OD2         3.8970   -0.3010    3.5580 os        1 SR3     -0.467900
     19 OXT         4.2590    0.8990    0.7770 o         1 SR3     -0.798300
     20 HN          3.7790   -2.2800   -0.1810 hn        1 SR3      0.469300
     21 HA          1.6140   -0.2650   -0.3590 hx        1 SR3      0.108700
     22 HAA         1.6120    0.6960    3.1860 hc        1 SR3      0.061367
     23 HAAA        0.4900    0.5080    1.7610 hc        1 SR3      0.061367
     24 HAAB        2.0220    1.4500    1.5850 hc        1 SR3      0.061367
     25 HNAB        6.2620   -0.6180    2.5530 hn        1 SR3      0.485800
     26 HNAA        6.0420    0.6000    1.4240 hn        1 SR3      0.485800
     27 HOAG        1.5940   -4.0730    2.3370 ho        1 SR3      0.473500
     28 HOAH        0.2360   -3.0580    4.3170 ho        1 SR3      0.473500
     29 HAJ        -0.1010   -4.1380   -2.4960 h4        1 SR3      0.055200
     30 HAK         1.5730   -2.7250   -3.5640 ha        1 SR3      0.192000
     31 HAL         3.3550   -1.4670   -2.3830 hx        1 SR3      0.244000
     32 HAM         3.7840    1.6620    2.7670 h1        1 SR3      0.138200
     33 HAMA        4.0250    1.4190    4.6030 h1        1 SR3      0.138200
     34 HSAT        0.2090   -1.9650    1.4170 hs        1 SR3      0.314800
     35 OAG         1.9630   -3.2220    2.0540 oh        1 SR3     -0.633700
     36 OAH         0.1060   -3.0890    3.3750 oh        1 SR3     -0.633700
     37 H2          2.1980   -2.7530    0.0750 hn        1 SR3      0.469300
     38 HAB3        7.4670    0.5410    2.3380 hn        1 SR3      0.485800
@<TRIPOS>BOND
     1    1    3 1   
     2    1    4 1   
     3    1   19 1   
     4    2    4 1   
     5    2   13 1   
     6    2   20 1   
     7    2   37 1   
     8    4    5 1   
     9    4   21 1   
    10    5    6 1   
    11    5    7 1   
    12    5   16 1   
    13    6   17 2   
    14    6   18 1   
    15    7   22 1   
    16    7   23 1   
    17    7   24 1   
    18    8   15 1   
    19    8   25 1   
    20    8   26 1   
    21    8   38 1   
    22    9   11 2   
    23   10   15 2   
    24   11   12 1   
    25   11   29 1   
    26   12   13 2   
    27   12   30 1   
    28   13   31 1   
    29   14   15 1   
    30   14   18 1   
    31   14   32 1   
    32   14   33 1   
    33   16   34 1   
    34   16   35 1   
    35   16   36 1   
    36   27   35 1   
    37   28   36 1   
@<TRIPOS>SUBSTRUCTURE
     1 SR3         1 TEMP              0 ****  ****    0 ROOT
