@<TRIPOS>MOLECULE
SR3
   36    35     1     0     0
SMALL
bcc


@<TRIPOS>ATOM
      1 C          -1.6190   -1.6830    0.6700 c2        1 SR3      0.329000
      2 N          -1.7030    0.7320    0.2250 n3        1 SR3     -0.313000
      3 O          -0.8800   -2.4500   -0.1040 os        1 SR3     -0.624000
      4 CA         -1.0750   -0.2810    1.0460 c3        1 SR3      0.063000
      5 CB          0.4380   -0.3200    1.0160 c2        1 SR3     -0.561000
      6 CG          1.1670    0.8660    0.6560 c2        1 SR3      0.364000
      7 CAA         0.9730   -1.0820    2.1850 c3        1 SR3     -0.139000
      8 NAB         3.7530    1.1850   -1.2710 n         1 SR3     -0.396000
      9 OAC        -5.8330    2.8800   -0.8890 o         1 SR3     -0.370000
     10 OAD         5.3780    2.2410   -0.0670 o         1 SR3     -0.430000
     11 CAJ        -5.1590    1.9890   -0.3460 c2        1 SR3      0.241000
     12 CAK        -3.7210    1.9130   -0.4000 c2        1 SR3     -0.447000
     13 CAL        -3.0490    0.9070    0.2410 c2        1 SR3      0.100000
     14 CAM         3.2110    2.1100    0.9760 c3        1 SR3     -0.029000
     15 CAP         4.1970    1.8270   -0.1530 c2        1 SR3      0.277000
     16 SAT         0.7350   -1.7520   -0.6410 s6        1 SR3      1.685000
     17 OD1         0.9190    1.7640   -0.1730 o         1 SR3     -0.455000
     18 OD2         2.4030    0.9860    1.2870 os        1 SR3     -0.289000
     19 OXT        -2.7170   -2.1030    1.0660 o         1 SR3     -0.414000
     20 HN         -1.1160    1.3720   -0.2690 hn        1 SR3      0.263000
     21 HA         -1.4070   -0.1080    2.1200 h1        1 SR3      0.085000
     22 HAA         0.4560   -2.0710    2.2690 hc        1 SR3      0.060667
     23 HAAA        2.0710   -1.2540    2.0740 hc        1 SR3      0.060667
     24 HAAB        0.8110   -0.5250    3.1430 hc        1 SR3      0.060667
     25 HNAB        4.4060    0.8930   -1.9530 hn        1 SR3      0.236000
     26 HNAA        2.8500    0.7610   -1.2800 hn        1 SR3      0.236000
     27 HOAG        1.9850   -1.4460   -2.5490 ho        1 SR3      0.237500
     28 HOAH       -0.4590   -3.1600   -2.0090 ho        1 SR3      0.237500
     29 HAJ        -5.6720    1.1800    0.2300 h4        1 SR3      0.055000
     30 HAK        -3.2000    2.6890   -0.9760 ha        1 SR3      0.142000
     31 HAL        -3.6100    0.1350    0.8170 h4        1 SR3      0.157000
     32 HAM         3.7920    2.3000    1.9190 h1        1 SR3      0.119000
     33 HAMA        2.5910    3.0040    0.7030 h1        1 SR3      0.119000
     34 HSAT        1.4420   -2.5920    0.0230 hs        1 SR3     -0.251000
     35 OAG         2.0260   -1.1540   -1.6420 oh        1 SR3     -0.706500
     36 OAH         0.3990   -2.7400   -2.0020 oh        1 SR3     -0.706500
@<TRIPOS>BOND
     1    1    3 1   
     2    1    4 1   
     3    1   19 1   
     4    2    4 1   
     5    2   13 1   
     6    2   20 1   
     7    3   16 1   
     8    4    5 1   
     9    4   21 1   
    10    5    6 1   
    11    5    7 1   
    12    6   17 1   
    13    6   18 1   
    14    7   22 1   
    15    7   23 1   
    16    7   24 1   
    17    8   15 1   
    18    8   25 1   
    19    8   26 1   
    20    9   11 1   
    21   10   15 1   
    22   11   12 1   
    23   11   29 1   
    24   12   13 1   
    25   12   30 1   
    26   13   31 1   
    27   14   15 1   
    28   14   18 1   
    29   14   32 1   
    30   14   33 1   
    31   16   34 1   
    32   16   35 1   
    33   16   36 1   
    34   27   35 1   
    35   28   36 1   
@<TRIPOS>SUBSTRUCTURE
     1 SR3         1 TEMP              0 ****  ****    0 ROOT
