@<TRIPOS>MOLECULE
SR3
   38    37     1     0     0
SMALL
bcc


@<TRIPOS>ATOM
      1 C           3.8520    0.0700    0.0790 c         1 SR3      0.892600
      2 N           2.8370   -2.2040   -0.1810 ny        1 SR3     -0.655800
      3 O           3.8260    1.2760    0.4460 o         1 SR3     -0.812800
      4 CA          2.5780   -0.8060    0.3240 c3        1 SR3      0.062500
      5 CB          2.2820   -0.7950    1.8290 c3        1 SR3     -0.143200
      6 CG          3.5730   -0.9410    2.5340 c         1 SR3      0.671100
      7 CAA         1.5110    0.4590    2.1780 c3        1 SR3     -0.097100
      8 NAB         6.2630    0.6770    1.7510 nz        1 SR3     -0.767400
      9 OAC         0.2840   -3.2790   -0.7750 o         1 SR3     -0.556100
     10 OAD         6.7700    1.3930    3.8910 o         1 SR3     -0.407100
     11 CAJ         0.6380   -3.3140   -1.9600 c         1 SR3      0.572100
     12 CAK         1.9170   -2.7390   -2.4170 ce        1 SR3     -0.234200
     13 CAL         2.8870   -2.2410   -1.6350 c2        1 SR3      0.001000
     14 CAM         4.3730    1.1220    3.4420 c3        1 SR3      0.084400
     15 CAP         5.8660    1.0810    3.1310 c         1 SR3      0.514100
     16 SAT         0.9480   -2.0030    2.6220 s6        1 SR3      0.156800
     17 OD1         4.4840   -1.7320    2.2730 o         1 SR3     -0.511000
     18 OD2         3.8500   -0.1690    3.6750 os        1 SR3     -0.442900
     19 OXT         4.9030   -0.4920   -0.3460 o         1 SR3     -0.812800
     20 HN          2.1230   -2.8520    0.1860 hn        1 SR3      0.477300
     21 HA          1.7070   -0.3790   -0.2460 hx        1 SR3      0.117700
     22 HAA         0.4350    0.3520    1.8860 hc        1 SR3      0.067700
     23 HAAA        1.5740    0.6640    3.2760 hc        1 SR3      0.067700
     24 HAAB        1.9160    1.3500    1.6290 hc        1 SR3      0.067700
     25 HNAB        5.9690   -0.2980    1.5530 hn        1 SR3      0.488800
     26 HNAA        7.2740    0.7550    1.6190 hn        1 SR3      0.488800
     27 HOAG        1.6410   -4.1500    2.6060 ho        1 SR3      0.476500
     28 HOAH        0.1640   -3.0870    4.4850 ho        1 SR3      0.476500
     29 HAJ         0.0040   -3.7760   -2.7490 h4        1 SR3      0.057200
     30 HAK         2.0690   -2.7280   -3.5140 ha        1 SR3      0.191000
     31 HAL         3.8290   -1.7880   -2.0270 hx        1 SR3      0.228000
     32 HAM         4.2470    1.6530    4.4310 h1        1 SR3      0.134200
     33 HAMA        3.8250    1.6580    2.6140 h1        1 SR3      0.134200
     34 HSAT        0.2070   -2.0740    1.5590 hs        1 SR3      0.317800
     35 OAG         1.9490   -3.3160    2.2190 oh        1 SR3     -0.635200
     36 OAH         0.0940   -3.1730    3.5400 oh        1 SR3     -0.635200
     37 H2          3.7660   -2.4840    0.1920 hn        1 SR3      0.477300
     38 HAB3        5.7710    1.2710    1.0450 hn        1 SR3      0.488800
@<TRIPOS>BOND
     1    1    3 1   
     2    1    4 1   
     3    1   19 1   
     4    2    4 1   
     5    2   13 1   
     6    2   20 1   
     7    2   37 1   
     8    4    5 1   
     9    4   21 1   
    10    5    6 1   
    11    5    7 1   
    12    5   16 1   
    13    6   17 2   
    14    6   18 1   
    15    7   22 1   
    16    7   23 1   
    17    7   24 1   
    18    8   15 1   
    19    8   25 1   
    20    8   26 1   
    21    8   38 1   
    22    9   11 2   
    23   10   15 2   
    24   11   12 1   
    25   11   29 1   
    26   12   13 2   
    27   12   30 1   
    28   13   31 1   
    29   14   15 1   
    30   14   18 1   
    31   14   32 1   
    32   14   33 1   
    33   16   34 1   
    34   16   35 1   
    35   16   36 1   
    36   27   35 1   
    37   28   36 1   
@<TRIPOS>SUBSTRUCTURE
     1 SR3         1 TEMP              0 ****  ****    0 ROOT
