@<TRIPOS>MOLECULE
SR7
   57    62     1     0     0
SMALL
bcc


@<TRIPOS>ATOM
      1 CAA        -0.5800   -1.0720   -0.1320 ca        1 SR7     -0.146000
      2 CAB         0.8240   -0.9680   -0.0030 ca        1 SR7      0.088600
      3 CAC         1.4110   -1.2340    1.2630 ca        1 SR7     -0.146500
      4 CAD         0.5910   -1.6050    2.3380 ca        1 SR7     -0.104000
      5 CAE        -0.7880   -1.7050    2.1920 ca        1 SR7     -0.152000
      6 CAF        -1.3680   -1.4330    0.9540 ca        1 SR7     -0.106000
      7 CAG         4.0530   -0.0290   -4.5810 ca        1 SR7      0.278300
      8 CAH         3.9020    1.2340   -5.2580 ca        1 SR7      0.298300
      9 NAI         2.8890    2.1130   -4.9000 nb        1 SR7     -0.626000
     10 CAJ         2.0880    1.7380   -3.9240 ca        1 SR7      0.337900
     11 CAK         2.2450    0.4670   -3.2330 ca        1 SR7      0.257500
     12 NAL         3.1990   -0.3940   -3.5540 nb        1 SR7     -0.600000
     13 CAM         5.9530   -0.5480   -5.9990 ca        1 SR7     -0.127000
     14 CAN         5.8060    0.6930   -6.6610 ca        1 SR7     -0.115000
     15 CAO         4.8100    1.5680   -6.3080 ca        1 SR7     -0.162300
     16 CAP         5.1040   -0.9100   -4.9830 ca        1 SR7     -0.151300
     17 CAQ         7.2270    1.8990    5.9620 c3        1 SR7      0.165800
     18 CAR         8.2710    3.0310    6.0420 c3        1 SR7      0.162800
     19 NAS         7.9600    4.1440    5.1680 n7        1 SR7     -0.821200
     20 CAT         7.6850    3.7370    3.8050 c3        1 SR7      0.162800
     21 CAU         6.6410    2.6070    3.7210 c3        1 SR7      0.165800
     22 NAV         6.9560    1.4820    4.5920 n3        1 SR7     -0.731600
     23 NAW         4.7590   -0.6150    2.5530 na        1 SR7     -0.134900
     24 CAX         5.0070   -1.3490    1.3390 cc        1 SR7      0.394900
     25 NAY         3.8510   -1.6570    0.7130 nd        1 SR7     -0.642000
     26 CAZ         2.8380   -1.1180    1.5200 cd        1 SR7      0.374800
     27 CBA         3.3860   -0.4740    2.6640 cc        1 SR7     -0.230600
     28 SBB         6.6720   -1.5870    1.1080 ss        1 SR7     -0.030300
     29 CBC         7.0420   -0.7600    2.5450 cc        1 SR7     -0.141100
     30 CBD         5.9430   -0.2910    3.2250 cd        1 SR7     -0.047600
     31 NBE         1.6310   -0.6200   -1.1020 ns        1 SR7     -0.447100
     32 CBF         1.2280    0.1760   -2.1530 c         1 SR7      0.577600
     33 OBG         0.0960    0.6890   -2.2480 o         1 SR7     -0.594100
     34 CBH         5.9460    0.4340    4.5390 c3        1 SR7      0.239100
     35 HAA        -1.0620   -0.8530   -1.0990 ha        1 SR7      0.165000
     36 HAD         1.0570   -1.8210    3.3120 ha        1 SR7      0.133000
     37 HAE        -1.4140   -1.9970    3.0470 ha        1 SR7      0.134000
     38 HAF        -2.4590   -1.5070    0.8290 ha        1 SR7      0.136000
     39 HAM         6.7630   -1.2250   -6.3110 ha        1 SR7      0.140000
     40 HAN         6.5060    0.9490   -7.4720 ha        1 SR7      0.140000
     41 HAO         4.6950    2.5340   -6.8250 ha        1 SR7      0.155000
     42 HAP         5.2170   -1.8770   -4.4670 ha        1 SR7      0.156000
     43 HAQ         6.2870    2.2360    6.4890 h1        1 SR7      0.041700
     44 HAQA        7.6380    1.0120    6.5190 h1        1 SR7      0.041700
     45 HAR         9.2880    2.5900    5.8290 h1        1 SR7      0.036950
     46 HARA        8.2780    3.4190    7.0990 h1        1 SR7      0.036950
     47 HNAS        8.7070    4.8140    5.1850 hn        1 SR7      0.366800
     48 HAT         7.2720    4.6310    3.2590 h1        1 SR7      0.036950
     49 HATA        8.6170    3.4000    3.2630 h1        1 SR7      0.036950
     50 HAU         5.6230    3.0400    3.9530 h1        1 SR7      0.041700
     51 HAUA        6.6220    2.2240    2.6620 h1        1 SR7      0.041700
     52 HBA         2.9020    0.0500    3.4850 h4        1 SR7      0.189000
     53 HBC         8.0700   -0.6160    2.8790 h4        1 SR7      0.197000
     54 HNBE        2.5580   -0.9890   -1.1140 hn        1 SR7      0.361500
     55 HBH         4.9110    0.8370    4.7560 h1        1 SR7      0.052700
     56 HBHA        6.1890   -0.3280    5.3370 h1        1 SR7      0.052700
     57 HAJ         1.2600    2.4120   -3.6330 h4        1 SR7      0.060100
@<TRIPOS>BOND
     1    1    2 ar  
     2    1    6 ar  
     3    1   35 1   
     4    2    3 ar  
     5    2   31 1   
     6    3    4 ar  
     7    3   26 1   
     8    4    5 ar  
     9    4   36 1   
    10    5    6 ar  
    11    5   37 1   
    12    6   38 1   
    13    7    8 ar  
    14    7   12 ar  
    15    7   16 ar  
    16    8    9 ar  
    17    8   15 ar  
    18    9   10 ar  
    19   10   11 ar  
    20   10   57 1   
    21   11   12 ar  
    22   11   32 1   
    23   13   14 ar  
    24   13   16 ar  
    25   13   39 1   
    26   14   15 ar  
    27   14   40 1   
    28   15   41 1   
    29   16   42 1   
    30   17   18 1   
    31   17   22 1   
    32   17   43 1   
    33   17   44 1   
    34   18   19 1   
    35   18   45 1   
    36   18   46 1   
    37   19   20 1   
    38   19   47 1   
    39   20   21 1   
    40   20   48 1   
    41   20   49 1   
    42   21   22 1   
    43   21   50 1   
    44   21   51 1   
    45   22   34 1   
    46   23   24 1   
    47   23   27 1   
    48   23   30 1   
    49   24   25 2   
    50   24   28 1   
    51   25   26 1   
    52   26   27 2   
    53   27   52 1   
    54   28   29 1   
    55   29   30 2   
    56   29   53 1   
    57   30   34 1   
    58   31   32 1   
    59   31   54 1   
    60   32   33 2   
    61   34   55 1   
    62   34   56 1   
@<TRIPOS>SUBSTRUCTURE
     1 SR7         1 TEMP              0 ****  ****    0 ROOT
