@<TRIPOS>MOLECULE
SR7
   58    63     1     0     0
SMALL
bcc


@<TRIPOS>ATOM
      1 CAA        -0.4560   -1.5420   -0.3440 ca        1 SR7     -0.102000
      2 CAB         0.8780   -1.0940   -0.2580 ca        1 SR7     -0.039400
      3 CAC         1.4250   -0.6820    0.9800 ca        1 SR7     -0.034500
      4 CAD         0.5940   -0.7430    2.1150 ca        1 SR7     -0.118000
      5 CAE        -0.7170   -1.1920    2.0290 ca        1 SR7     -0.072000
      6 CAF        -1.2440   -1.5930    0.7980 ca        1 SR7     -0.110000
      7 CAG         3.9540   -0.6370   -4.9960 ca        1 SR7      0.281300
      8 CAH         4.3510    0.6800   -5.4520 ca        1 SR7      0.331300
      9 NAI         3.9010    1.8160   -4.8070 nb        1 SR7     -0.598000
     10 CAJ         3.0990    1.6530   -3.7710 ca        1 SR7      0.358900
     11 CAK         2.7040    0.3360   -3.3150 ca        1 SR7      0.210500
     12 NAL         3.1250   -0.7820   -3.9120 nb        1 SR7     -0.617000
     13 CAM         5.2670   -1.6350   -6.7770 ca        1 SR7     -0.104000
     14 CAN         5.6550   -0.3470   -7.2230 ca        1 SR7     -0.081000
     15 CAO         5.2160    0.7860   -6.5850 ca        1 SR7     -0.165300
     16 CAP         4.4400   -1.7900   -5.6960 ca        1 SR7     -0.155300
     17 CAQ         7.6460    1.1840    5.9670 c3        1 SR7      0.166800
     18 CAR         8.4440    2.3150    6.6470 c3        1 SR7      0.163800
     19 NAS         7.6430    3.4980    6.8810 n3        1 SR7     -0.822200
     20 CAT         6.9620    3.9610    5.6890 c3        1 SR7      0.163800
     21 CAU         6.1510    2.8420    5.0050 c3        1 SR7      0.166800
     22 NAV         6.9350    1.6350    4.7760 n3        1 SR7     -0.736600
     23 NAW         4.7150    0.4160    2.0820 na        1 SR7     -0.123900
     24 CAX         4.7300    0.6990    0.6700 cc        1 SR7      0.413900
     25 NAY         3.5670    0.3250    0.0950 nd        1 SR7     -0.714000
     26 CAZ         2.7840   -0.2030    1.1370 cd        1 SR7      0.307800
     27 CBA         3.4900   -0.1500    2.3730 cc        1 SR7     -0.175600
     28 SBB         6.1950    1.4150    0.2110 ss        1 SR7      0.003700
     29 CBC         6.7840    1.3480    1.8030 cc        1 SR7     -0.119100
     30 CBD         5.9110    0.7990    2.7110 cd        1 SR7     -0.044600
     31 NBE         1.6770   -1.0780   -1.4820 n4        1 SR7     -0.515200
     32 CBF         1.7880    0.2810   -2.1490 c         1 SR7      0.484600
     33 OBG         1.1300    1.2080   -1.7100 o         1 SR7     -0.391100
     34 CBH         6.1500    0.5670    4.1760 c3        1 SR7      0.239100
     35 HAA        -0.8890   -1.8530   -1.3090 ha        1 SR7      0.150000
     36 HAD         0.9930   -0.4120    3.0870 ha        1 SR7      0.158000
     37 HAE        -1.3480   -1.2260    2.9330 ha        1 SR7      0.165000
     38 HAF        -2.2870   -1.9440    0.7290 ha        1 SR7      0.166000
     39 HAM         5.6420   -2.5190   -7.3190 ha        1 SR7      0.161000
     40 HAN         6.3210   -0.2660   -8.0980 ha        1 SR7      0.162000
     41 HAO         5.5180    1.7880   -6.9350 ha        1 SR7      0.175000
     42 HAP         4.1380   -2.7930   -5.3530 ha        1 SR7      0.159000
     43 HAQA        8.3770    0.3880    5.6520 h1        1 SR7      0.041200
     44 HAR         9.3580    2.5310    6.0190 h1        1 SR7      0.041950
     45 HARA        8.7950    1.9340    7.6470 h1        1 SR7      0.041950
     46 HNAS        8.2070    4.2310    7.2700 hn        1 SR7      0.376800
     47 HAT         7.6730    4.4000    4.9300 h1        1 SR7      0.041950
     48 HATA        6.2420    4.7700    5.9970 h1        1 SR7      0.041950
     49 HAU         5.2350    2.6290    5.6300 h1        1 SR7      0.041200
     50 HAUA        5.8080    3.2210    4.0020 h1        1 SR7      0.041200
     51 HBA         3.2090   -0.4740    3.3750 h4        1 SR7      0.200000
     52 HBC         7.7770    1.7240    2.0670 h4        1 SR7      0.216000
     53 HNBE        2.6320   -1.4030   -1.2670 hn        1 SR7      0.473300
     54 HBH         6.7260   -0.4020    4.2650 h1        1 SR7      0.056200
     55 HBHA        5.1580    0.4230    4.7010 h1        1 SR7      0.056200
     56 HAJ         2.7280    2.5570   -3.2500 h4        1 SR7      0.068100
     57 HBE2        1.2640   -1.7300   -2.1620 hn        1 SR7      0.473300
     58 HAQ         6.9410    0.7340    6.7240 h1        1 SR7      0.041200
@<TRIPOS>BOND
     1    1    2 ar  
     2    1    6 ar  
     3    1   35 1   
     4    2    3 ar  
     5    2   31 1   
     6    3    4 ar  
     7    3   26 1   
     8    4    5 ar  
     9    4   36 1   
    10    5    6 ar  
    11    5   37 1   
    12    6   38 1   
    13    7    8 ar  
    14    7   12 ar  
    15    7   16 ar  
    16    8    9 ar  
    17    8   15 ar  
    18    9   10 ar  
    19   10   11 ar  
    20   10   56 1   
    21   11   12 ar  
    22   11   32 1   
    23   13   14 ar  
    24   13   16 ar  
    25   13   39 1   
    26   14   15 ar  
    27   14   40 1   
    28   15   41 1   
    29   16   42 1   
    30   17   18 1   
    31   17   22 1   
    32   17   43 1   
    33   17   58 1   
    34   18   19 1   
    35   18   44 1   
    36   18   45 1   
    37   19   20 1   
    38   19   46 1   
    39   20   21 1   
    40   20   47 1   
    41   20   48 1   
    42   21   22 1   
    43   21   49 1   
    44   21   50 1   
    45   22   34 1   
    46   23   24 1   
    47   23   27 1   
    48   23   30 1   
    49   24   25 2   
    50   24   28 1   
    51   25   26 1   
    52   26   27 2   
    53   27   51 1   
    54   28   29 1   
    55   29   30 2   
    56   29   52 1   
    57   30   34 1   
    58   31   32 1   
    59   31   53 1   
    60   31   57 1   
    61   32   33 2   
    62   34   54 1   
    63   34   55 1   
@<TRIPOS>SUBSTRUCTURE
     1 SR7         1 TEMP              0 ****  ****    0 ROOT
