@<TRIPOS>MOLECULE
SR7
   57    62     1     0     0
SMALL
bcc


@<TRIPOS>ATOM
      1 CAA        -0.5740   -1.1030   -0.1130 ca        1 SR7     -0.146000
      2 CAB         0.8300   -0.9900    0.0110 ca        1 SR7      0.088600
      3 CAC         1.4210   -1.2450    1.2780 ca        1 SR7     -0.146500
      4 CAD         0.6050   -1.6150    2.3560 ca        1 SR7     -0.104000
      5 CAE        -0.7730   -1.7230    2.2140 ca        1 SR7     -0.152000
      6 CAF        -1.3580   -1.4620    0.9760 ca        1 SR7     -0.106000
      7 CAG         4.0440   -0.0590   -4.5790 ca        1 SR7      0.278300
      8 CAH         3.8850    1.2000   -5.2610 ca        1 SR7      0.298300
      9 NAI         2.8690    2.0750   -4.9060 nb        1 SR7     -0.626000
     10 CAJ         2.0710    1.7010   -3.9270 ca        1 SR7      0.337900
     11 CAK         2.2350    0.4350   -3.2300 ca        1 SR7      0.257500
     12 NAL         3.1930   -0.4230   -3.5490 nb        1 SR7     -0.600000
     13 CAM         5.9430   -0.5760   -5.9980 ca        1 SR7     -0.127000
     14 CAN         5.7880    0.6600   -6.6670 ca        1 SR7     -0.115000
     15 CAO         4.7880    1.5330   -6.3150 ca        1 SR7     -0.162300
     16 CAP         5.0970   -0.9370   -4.9790 ca        1 SR7     -0.151300
     17 CAQ         7.2310    1.9410    5.9510 c3        1 SR7      0.165800
     18 CAR         8.2710    3.0770    6.0240 c3        1 SR7      0.162800
     19 NAS         7.9570    4.1850    5.1460 n3        1 SR7     -0.821200
     20 CAT         7.6820    3.7710    3.7840 c3        1 SR7      0.162800
     21 CAU         6.6400    2.6380    3.7060 c3        1 SR7      0.165800
     22 NAV         6.9600    1.5170    4.5820 n3        1 SR7     -0.731600
     23 NAW         4.7680   -0.6010    2.5570 na        1 SR7     -0.134900
     24 CAX         5.0180   -1.3400    1.3470 cc        1 SR7      0.394900
     25 NAY         3.8620   -1.6570    0.7250 nd        1 SR7     -0.642000
     26 CAZ         2.8480   -1.1200    1.5310 cd        1 SR7      0.374800
     27 CBA         3.3950   -0.4670    2.6700 cc        1 SR7     -0.230600
     28 SBB         6.6830   -1.5690    1.1130 ss        1 SR7     -0.030300
     29 CBC         7.0520   -0.7330    2.5450 cc        1 SR7     -0.141100
     30 CBD         5.9510   -0.2660    3.2250 cd        1 SR7     -0.047600
     31 NBE         1.6320   -0.6440   -1.0910 n         1 SR7     -0.447100
     32 CBF         1.2220    0.1440   -2.1460 c         1 SR7      0.577600
     33 OBG         0.0870    0.6500   -2.2410 o         1 SR7     -0.594100
     34 CBH         5.9530    0.4660    4.5350 c3        1 SR7      0.239100
     35 HAA        -1.0600   -0.8920   -1.0810 ha        1 SR7      0.165000
     36 HAD         1.0750   -1.8220    3.3310 ha        1 SR7      0.133000
     37 HAE        -1.3960   -2.0130    3.0720 ha        1 SR7      0.134000
     38 HAF        -2.4490   -1.5430    0.8540 ha        1 SR7      0.136000
     39 HAM         6.7550   -1.2510   -6.3090 ha        1 SR7      0.140000
     40 HAN         6.4850    0.9160   -7.4800 ha        1 SR7      0.140000
     41 HAO         4.6670    2.4960   -6.8370 ha        1 SR7      0.155000
     42 HAP         5.2170   -1.9010   -4.4580 ha        1 SR7      0.156000
     43 HAQ         7.6450    1.0570    6.5110 h1        1 SR7      0.041700
     44 HAQA        6.2900    2.2780    6.4760 h1        1 SR7      0.041700
     45 HAR         8.2780    3.4690    7.0800 h1        1 SR7      0.036950
     46 HARA        9.2900    2.6370    5.8120 h1        1 SR7      0.036950
     47 HNAS        8.7020    4.8570    5.1580 hn        1 SR7      0.366800
     48 HAT         8.6140    3.4340    3.2430 h1        1 SR7      0.036950
     49 HATA        7.2660    4.6610    3.2340 h1        1 SR7      0.036950
     50 HAU         5.6220    3.0680    3.9380 h1        1 SR7      0.041700
     51 HAUA        6.6220    2.2490    2.6500 h1        1 SR7      0.041700
     52 HBA         2.9090    0.0590    3.4890 h4        1 SR7      0.189000
     53 HBC         8.0800   -0.5810    2.8770 h4        1 SR7      0.197000
     54 HNBE        2.5620   -1.0080   -1.1030 hn        1 SR7      0.361500
     55 HBH         6.1980   -0.2920    5.3370 h1        1 SR7      0.052700
     56 HBHA        4.9170    0.8660    4.7500 h1        1 SR7      0.052700
     57 HAJ         1.2410    2.3730   -3.6370 h4        1 SR7      0.060100
@<TRIPOS>BOND
     1    1    2 ar  
     2    1    6 ar  
     3    1   35 1   
     4    2    3 ar  
     5    2   31 1   
     6    3    4 ar  
     7    3   26 1   
     8    4    5 ar  
     9    4   36 1   
    10    5    6 ar  
    11    5   37 1   
    12    6   38 1   
    13    7    8 ar  
    14    7   12 ar  
    15    7   16 ar  
    16    8    9 ar  
    17    8   15 ar  
    18    9   10 ar  
    19   10   11 ar  
    20   10   57 1   
    21   11   12 ar  
    22   11   32 1   
    23   13   14 ar  
    24   13   16 ar  
    25   13   39 1   
    26   14   15 ar  
    27   14   40 1   
    28   15   41 1   
    29   16   42 1   
    30   17   18 1   
    31   17   22 1   
    32   17   43 1   
    33   17   44 1   
    34   18   19 1   
    35   18   45 1   
    36   18   46 1   
    37   19   20 1   
    38   19   47 1   
    39   20   21 1   
    40   20   48 1   
    41   20   49 1   
    42   21   22 1   
    43   21   50 1   
    44   21   51 1   
    45   22   34 1   
    46   23   24 1   
    47   23   27 1   
    48   23   30 1   
    49   24   25 2   
    50   24   28 1   
    51   25   26 1   
    52   26   27 2   
    53   27   52 1   
    54   28   29 1   
    55   29   30 2   
    56   29   53 1   
    57   30   34 1   
    58   31   32 1   
    59   31   54 1   
    60   32   33 2   
    61   34   55 1   
    62   34   56 1   
@<TRIPOS>SUBSTRUCTURE
     1 SR7         1 TEMP              0 ****  ****    0 ROOT
