@<TRIPOS>MOLECULE
SR7
   57    62     1     0     0
SMALL
bcc


@<TRIPOS>ATOM
      1 CAA        -1.8730   -4.4510   -1.0240 ca        1 SR7     -0.150000
      2 CAB        -1.3830   -3.1850   -0.6300 ca        1 SR7      0.091600
      3 CAC         0.0050   -3.0510   -0.3520 ca        1 SR7     -0.153500
      4 CAD         0.8470   -4.1620   -0.4920 ca        1 SR7     -0.100000
      5 CAE         0.3470   -5.3990   -0.8840 ca        1 SR7     -0.155000
      6 CAF        -1.0150   -5.5380   -1.1430 ca        1 SR7     -0.104000
      7 CAG        -4.6250    1.4800   -0.5940 ca        1 SR7      0.278300
      8 CAH        -5.7750    1.4790    0.2740 ca        1 SR7      0.299300
      9 NAI        -6.1710    0.3190    0.9240 nb        1 SR7     -0.625000
     10 CAJ        -5.4520   -0.7630    0.7110 ca        1 SR7      0.339900
     11 CAK        -4.2850   -0.7620   -0.1580 ca        1 SR7      0.260500
     12 NAL        -3.8830    0.3280   -0.7950 nb        1 SR7     -0.606000
     13 CAM        -4.9860    3.8360   -1.0500 ca        1 SR7     -0.126000
     14 CAN        -6.1130    3.8360   -0.1960 ca        1 SR7     -0.115000
     15 CAO        -6.5060    2.6920    0.4530 ca        1 SR7     -0.161300
     16 CAP        -4.2530    2.6930   -1.2510 ca        1 SR7     -0.152300
     17 CAQ         6.4660    1.8630   -0.6620 c3        1 SR7      0.129300
     18 CAR         7.7510    2.2870    0.0840 c3        1 SR7      0.151800
     19 NAS         8.2300    1.3370    1.0660 n3        1 SR7     -0.796200
     20 CAT         7.1680    0.8920    1.9440 c3        1 SR7      0.151800
     21 CAU         5.8780    0.4450    1.2240 c3        1 SR7      0.129300
     22 NAV         5.4160    1.4200    0.2450 n3        1 SR7     -0.729600
     23 NAW         2.0780   -0.1260    0.2910 na        1 SR7     -0.134900
     24 CAX         0.9720    0.0460    1.1980 cc        1 SR7      0.390900
     25 NAY         0.0820   -0.9610    1.0770 nd        1 SR7     -0.632000
     26 CAZ         0.6060   -1.7990    0.0790 cd        1 SR7      0.367800
     27 CBA         1.8410   -1.2940   -0.4140 cc        1 SR7     -0.232600
     28 SBB         1.1650    1.4580    2.1200 ss        1 SR7     -0.025300
     29 CBC         2.6340    1.8230    1.3510 cc        1 SR7     -0.140100
     30 CBD         3.0150    0.9080    0.3980 cd        1 SR7     -0.050600
     31 NBE        -2.2240   -2.0610   -0.5610 n         1 SR7     -0.437100
     32 CBF        -3.5830   -2.0920   -0.3160 c         1 SR7      0.581600
     33 OBG        -4.2540   -3.1360   -0.2140 o         1 SR7     -0.590100
     34 CBH         4.2320    0.9750   -0.4770 c3        1 SR7      0.240100
     35 HAA        -2.9480   -4.5880   -1.2310 ha        1 SR7      0.169000
     36 HAD         1.9200   -4.0480   -0.2720 ha        1 SR7      0.132000
     37 HAE         1.0220   -6.2610   -0.9830 ha        1 SR7      0.133000
     38 HAF        -1.4210   -6.5150   -1.4460 ha        1 SR7      0.136000
     39 HAM        -4.7010    4.7720   -1.5560 ha        1 SR7      0.140000
     40 HAN        -6.6760    4.7720   -0.0590 ha        1 SR7      0.140000
     41 HAO        -7.3850    2.6920    1.1180 ha        1 SR7      0.156000
     42 HAP        -3.3760    2.6930   -1.9170 ha        1 SR7      0.153000
     43 HAQ         6.0780    2.7540   -1.2280 h1        1 SR7      0.037450
     44 HAQA        6.7300    1.0640   -1.4150 h1        1 SR7      0.037450
     45 HAR         8.5550    2.4630   -0.6810 h1        1 SR7      0.061700
     46 HARA        7.5550    3.2580    0.6200 h1        1 SR7      0.061700
     47 HNAS        8.6470    0.5480    0.6050 hn        1 SR7      0.349800
     48 HAT         7.5380    0.0310    2.5640 h1        1 SR7      0.061700
     49 HATA        6.9210    1.7450    2.6380 h1        1 SR7      0.061700
     50 HAU         6.0580   -0.5650    0.7500 h1        1 SR7      0.037450
     51 HAUA        5.0620    0.3240    1.9900 h1        1 SR7      0.037450
     52 HBA         2.5100   -1.6770   -1.1810 h4        1 SR7      0.187000
     53 HBC         3.2160    2.7080    1.6100 h4        1 SR7      0.198000
     54 HNBE       -1.7720   -1.1720   -0.5640 hn        1 SR7      0.348500
     55 HBH         4.0150    1.7280   -1.2910 h1        1 SR7      0.051700
     56 HBHA        4.3970   -0.0280   -0.9760 h1        1 SR7      0.051700
     57 HAJ        -5.7570   -1.7050    1.2040 h4        1 SR7      0.060100
@<TRIPOS>BOND
     1    1    2 ar  
     2    1    6 ar  
     3    1   35 1   
     4    2    3 ar  
     5    2   31 1   
     6    3    4 ar  
     7    3   26 1   
     8    4    5 ar  
     9    4   36 1   
    10    5    6 ar  
    11    5   37 1   
    12    6   38 1   
    13    7    8 ar  
    14    7   12 ar  
    15    7   16 ar  
    16    8    9 ar  
    17    8   15 ar  
    18    9   10 ar  
    19   10   11 ar  
    20   10   57 1   
    21   11   12 ar  
    22   11   32 1   
    23   13   14 ar  
    24   13   16 ar  
    25   13   39 1   
    26   14   15 ar  
    27   14   40 1   
    28   15   41 1   
    29   16   42 1   
    30   17   18 1   
    31   17   22 1   
    32   17   43 1   
    33   17   44 1   
    34   18   19 1   
    35   18   45 1   
    36   18   46 1   
    37   19   20 1   
    38   19   47 1   
    39   20   21 1   
    40   20   48 1   
    41   20   49 1   
    42   21   22 1   
    43   21   50 1   
    44   21   51 1   
    45   22   34 1   
    46   23   24 1   
    47   23   27 1   
    48   23   30 1   
    49   24   25 2   
    50   24   28 1   
    51   25   26 1   
    52   26   27 2   
    53   27   52 1   
    54   28   29 1   
    55   29   30 2   
    56   29   53 1   
    57   30   34 1   
    58   31   32 1   
    59   31   54 1   
    60   32   33 2   
    61   34   55 1   
    62   34   56 1   
@<TRIPOS>SUBSTRUCTURE
     1 SR7         1 TEMP              0 ****  ****    0 ROOT
