@<TRIPOS>MOLECULE
SR7
   57    52     1     0     0
SMALL
bcc


@<TRIPOS>ATOM
      1 CAA        -4.4790    0.6810    0.0150 c1        1 SR7     -0.127500
      2 CAB        -3.0890    0.6820    0.0260 c1        1 SR7      0.095000
      3 CAC        -2.4020    0.6760    1.2410 c1        1 SR7     -0.040000
      4 CAD        -3.1080    0.6690    2.4380 c2        1 SR7     -0.101000
      5 CAE        -4.4990    0.6680    2.4250 c1        1 SR7     -0.154000
      6 CAF        -5.1840    0.6740    1.2140 c1        1 SR7     -0.127500
      7 CAG        -3.1840    1.4490   -5.8340 c1        1 SR7     -0.039500
      8 CAH        -2.1240    0.8830   -6.5020 c1        1 SR7     -0.039500
      9 NAI        -1.1220    0.2710   -5.8010 n1        1 SR7     -0.100000
     10 CAJ        -1.1720    0.2220   -4.4540 c1        1 SR7     -0.060000
     11 CAK        -2.2460    0.7950   -3.7760 c1        1 SR7     -0.090000
     12 NAL        -3.2350    1.3990   -4.4660 n1        1 SR7     -0.080000
     13 CAM        -4.1180    2.2130   -7.9420 c1        1 SR7     -0.121000
     14 CAN        -3.0440    1.6400   -8.6200 c1        1 SR7     -0.121000
     15 CAO        -2.0470    0.9760   -7.9100 c2        1 SR7     -0.092000
     16 CAP        -4.1940    2.1220   -6.5540 c2        1 SR7     -0.092000
     17 CAQ         3.3040   -2.9540    3.6540 c3        1 SR7     -0.079000
     18 CAR         3.5930   -2.8140    5.1350 c3        1 SR7     -0.104000
     19 NAS         4.5900   -2.0490    5.3420 n3        1 SR7     -0.303000
     20 CAT         5.6680   -1.9920    4.6670 c3        1 SR7     -0.104000
     21 CAU         5.3960   -2.1250    3.1820 c3        1 SR7     -0.079000
     22 NAV         3.9230   -1.8100    2.8110 n3        1 SR7     -0.244000
     23 NAW         1.2520    0.4950    1.8760 n3        1 SR7     -0.084000
     24 CAX         1.1830    1.5640    0.9510 c2        1 SR7     -0.283000
     25 NAY        -0.1200    1.7220    0.5880 n2        1 SR7     -0.105000
     26 CAZ        -0.8630    0.7870    1.2570 c1        1 SR7     -0.085000
     27 CBA         0.0120    0.0270    2.0590 c1        1 SR7     -0.113000
     28 SBB         2.6320    2.1100    0.7390 ss        1 SR7      0.557000
     29 CBC         3.5680    1.2800    1.6130 c1        1 SR7     -0.442000
     30 CBD         2.7700    0.3020    2.3080 c1        1 SR7     -0.003000
     31 NBE        -2.3610    0.5730   -1.2130 n         1 SR7     -0.289000
     32 CBF        -2.9430    1.0650   -2.4360 c2        1 SR7      0.364000
     33 OBG        -4.0450    1.5690   -2.4200 o         1 SR7     -0.352000
     34 CBH         3.5430   -0.5320    3.3770 c2        1 SR7     -0.018000
     35 HAA        -4.9590    0.6860   -0.8330 ha        1 SR7      0.151500
     36 HAD        -2.6280    0.6640    3.2880 ha        1 SR7      0.133000
     37 HAE        -4.9970    0.6630    3.2680 ha        1 SR7      0.133000
     38 HAF        -6.1650    0.6730    1.2050 ha        1 SR7      0.151500
     39 HAJ        -0.4540   -0.2160   -3.9530 ha        1 SR7      0.197000
     40 HAM        -4.8170    2.6790   -8.4400 ha        1 SR7      0.139500
     41 HAN        -2.9910    1.7040   -9.5940 ha        1 SR7      0.139500
     42 HAO        -1.2930    0.5730   -8.3870 ha        1 SR7      0.154000
     43 HAP        -4.9470    2.5240   -6.0790 ha        1 SR7      0.154000
     44 HAQ         2.3360   -2.9550    3.5210 h1        1 SR7      0.096500
     45 HAQA        3.6680   -3.8110    3.3400 h1        1 SR7      0.096500
     46 HAR         3.7860   -3.7020    5.5100 h1        1 SR7      0.076250
     47 HARA        2.8050   -2.4420    5.5830 h1        1 SR7      0.076250
     48 HNAS        4.7890   -2.0410    6.2380 hn        1 SR7      0.163000
     49 HAT         6.2660   -2.7230    4.9530 h1        1 SR7      0.076250
     50 HATA        6.1080   -1.1320    4.8370 h1        1 SR7      0.076250
     51 HAU         5.9810   -1.5100    2.6990 h1        1 SR7      0.096500
     52 HAUA        5.6020   -3.0420    2.9040 h1        1 SR7      0.096500
     53 HBA        -0.2390   -0.7280    2.6260 DU        1 SR7      0.193000
     54 HBC         4.5210    1.4400    1.7440 DU        1 SR7      0.193000
     55 HNBE       -1.5410    0.1770   -1.2250 hn        1 SR7      0.262000
     56 HBH         2.9680   -0.6770    4.1550 h4        1 SR7      0.101500
     57 HBHA        4.3500   -0.0440    3.6520 h4        1 SR7      0.101500
@<TRIPOS>BOND
     1    1    6 1   
     2    1   35 1   
     3    2    3 1   
     4    2   31 1   
     5    3    4 1   
     6    4    5 1   
     7    4   36 1   
     8    5   37 1   
     9    6   38 1   
    10    7    8 1   
    11    7   16 1   
    12    8   15 1   
    13    9   10 1   
    14   10   39 1   
    15   11   12 1   
    16   11   32 1   
    17   13   16 1   
    18   13   40 1   
    19   14   15 1   
    20   14   41 1   
    21   15   42 1   
    22   16   43 1   
    23   17   18 1   
    24   17   22 1   
    25   17   44 1   
    26   17   45 1   
    27   18   19 1   
    28   18   46 1   
    29   18   47 1   
    30   19   20 1   
    31   19   48 1   
    32   20   21 1   
    33   20   49 1   
    34   20   50 1   
    35   21   22 1   
    36   21   51 1   
    37   21   52 1   
    38   22   34 1   
    39   23   24 1   
    40   23   27 1   
    41   23   30 1   
    42   24   25 1   
    43   24   28 1   
    44   25   26 1   
    45   26   27 1   
    46   28   29 1   
    47   29   30 1   
    48   31   32 1   
    49   31   55 1   
    50   32   33 1   
    51   34   56 1   
    52   34   57 1   
@<TRIPOS>SUBSTRUCTURE
     1 SR7         1 TEMP              0 ****  ****    0 ROOT
