@<TRIPOS>MOLECULE
SR8
   46    48     1     0     0
SMALL
bcc


@<TRIPOS>ATOM
      1 O1         -0.3660   -0.1620   -0.0480 o         1 SR8     -0.603100
      2 C9          0.8500    0.1260   -0.0500 c         1 SR8      0.779100
      3 N3          1.5620    0.3360    1.1550 ns        1 SR8     -0.527400
      4 C8          0.9040    0.4700    2.3780 cc        1 SR8      0.430200
      5 C7         -0.4250   -0.0580    2.7280 cc        1 SR8     -0.341600
      6 C2         -0.5810    0.2800    4.0550 cd        1 SR8      0.279000
      7 C3         -1.6480    0.0830    5.0690 c3        1 SR8     -0.085300
      8 C6         -2.8130   -0.6720    4.4390 c3        1 SR8     -0.089767
      9 C5         -1.0930   -0.7200    6.2410 c3        1 SR8     -0.089767
     10 C4         -2.1300    1.4420    5.5670 c3        1 SR8     -0.089767
     11 N1          1.4410    1.0760    3.4820 nd        1 SR8     -0.416300
     12 N4          1.5870    0.2570   -1.2460 ns        1 SR8     -0.461100
     13 C10         1.0900   -0.1520   -2.5000 ca        1 SR8      0.056600
     14 C20        -0.2730   -0.0290   -2.8460 ca        1 SR8     -0.143000
     15 C19        -0.7070   -0.3830   -4.1190 ca        1 SR8     -0.117000
     16 C13         0.2120   -0.8610   -5.0580 ca        1 SR8      0.067100
     17 C12         1.5680   -0.9940   -4.7360 ca        1 SR8     -0.117000
     18 C11         2.0030   -0.6410   -3.4650 ca        1 SR8     -0.143000
     19 O2         -0.1480   -1.0980   -6.3850 os        1 SR8     -0.243200
     20 C14        -1.1370   -2.0430   -6.6040 ca        1 SR8      0.151100
     21 C18        -1.6240   -2.9320   -5.6380 ca        1 SR8     -0.288800
     22 C17        -2.6030   -3.8570   -6.0410 ca        1 SR8      0.418700
     23 N5         -3.0940   -3.9370   -7.2920 nb        1 SR8     -0.684000
     24 C16        -2.6050   -3.0690   -8.2030 ca        1 SR8      0.418700
     25 C15        -1.6300   -2.1010   -7.9210 ca        1 SR8     -0.288800
     26 O3          0.5860    0.9650    4.4760 os        1 SR8     -0.113100
     27 H4          2.5820    0.2790   -1.1820 hn        1 SR8      0.313500
     28 H7         -1.1030   -0.5760    2.0550 ha        1 SR8      0.204000
     29 H3          2.4750    0.7380    1.1090 hn        1 SR8      0.327500
     30 H61C       -3.6170   -0.8180    5.1990 hc        1 SR8      0.045589
     31 H62C       -3.2300   -0.0970    3.5790 hc        1 SR8      0.045589
     32 H63C       -2.4770   -1.6710    4.0730 hc        1 SR8      0.045589
     33 H51C       -1.8810   -0.8420    7.0210 hc        1 SR8      0.045589
     34 H52C       -0.7640   -1.7300    5.9000 hc        1 SR8      0.045589
     35 H53C       -0.2180   -0.1890    6.6890 hc        1 SR8      0.045589
     36 H41C       -2.9090    1.3000    6.3540 hc        1 SR8      0.045589
     37 H42C       -2.5690    2.0310    4.7280 hc        1 SR8      0.045589
     38 H43C       -1.2760    2.0160    6.0010 hc        1 SR8      0.045589
     39 H20        -1.0060    0.3420   -2.1100 ha        1 SR8      0.155500
     40 H11         3.0720   -0.7470   -3.2230 ha        1 SR8      0.155500
     41 H19        -1.7700   -0.2860   -4.3890 ha        1 SR8      0.154000
     42 H12         2.2780   -1.3670   -5.4890 ha        1 SR8      0.154000
     43 H18        -1.2590   -2.9110   -4.6030 ha        1 SR8      0.159000
     44 H15        -1.2580   -1.4140   -8.6910 ha        1 SR8      0.159000
     45 H17        -3.0190   -4.5800   -5.3150 h4        1 SR8      0.025100
     46 H16        -3.0250   -3.1580   -9.2210 h4        1 SR8      0.025100
@<TRIPOS>BOND
     1    1    2 2   
     2    2    3 1   
     3    2   12 1   
     4    3    4 1   
     5    3   29 1   
     6    4    5 1   
     7    4   11 2   
     8    5    6 2   
     9    5   28 1   
    10    6    7 1   
    11    6   26 1   
    12    7    8 1   
    13    7    9 1   
    14    7   10 1   
    15    8   30 1   
    16    8   31 1   
    17    8   32 1   
    18    9   33 1   
    19    9   34 1   
    20    9   35 1   
    21   10   36 1   
    22   10   37 1   
    23   10   38 1   
    24   11   26 1   
    25   12   13 1   
    26   12   27 1   
    27   13   14 ar  
    28   13   18 ar  
    29   14   15 ar  
    30   14   39 1   
    31   15   16 ar  
    32   15   41 1   
    33   16   17 ar  
    34   16   19 1   
    35   17   18 ar  
    36   17   42 1   
    37   18   40 1   
    38   19   20 1   
    39   20   21 ar  
    40   20   25 ar  
    41   21   22 ar  
    42   21   43 1   
    43   22   23 ar  
    44   22   45 1   
    45   23   24 ar  
    46   24   25 ar  
    47   24   46 1   
    48   25   44 1   
@<TRIPOS>SUBSTRUCTURE
     1 SR8         1 TEMP              0 ****  ****    0 ROOT
