@<TRIPOS>MOLECULE
SRA
   37    39     1     0     0
SMALL
bcc


@<TRIPOS>ATOM
      1 P           1.2140   -0.1240   -3.6130 p5        1 SRA      1.289200
      2 OP1         1.1220   -1.6800   -3.9240 oh        1 SRA     -0.734400
      3 S2P         2.3230    0.5480   -2.2720 s         1 SRA     -0.562000
      4 OP3         1.4230    0.3410   -5.1100 oh        1 SRA     -0.734400
      5 O5'        -0.3590    0.1030   -3.4340 os        1 SRA     -0.576200
      6 C5'        -0.8630    0.8560   -2.3480 c3        1 SRA      0.143400
      7 C4'        -1.6890   -0.0570   -1.4420 c3        1 SRA      0.075100
      8 O4'        -0.8030   -0.8640   -0.6530 os        1 SRA     -0.428600
      9 C3'        -2.6090    0.7470   -0.5010 c3        1 SRA      0.135100
     10 O3'        -3.9480    0.7000   -0.9180 oh        1 SRA     -0.574800
     11 C2'        -2.3600    0.1560    0.9020 c3        1 SRA      0.081100
     12 C1'        -1.0870   -0.7410    0.7480 c3        1 SRA      0.241800
     13 N9          0.0520   -0.2410    1.4760 na        1 SRA     -0.305000
     14 C8          1.3490    0.1510    1.0470 cc        1 SRA      0.433700
     15 N7          2.1610    0.4740    2.0610 nd        1 SRA     -0.543100
     16 C5          1.4000    0.2930    3.2270 ca        1 SRA     -0.222200
     17 C6          1.6900    0.4660    4.6220 ca        1 SRA      0.764200
     18 N6          2.9240    0.9040    5.0200 nh        1 SRA     -0.958500
     19 N1          0.7020    0.1920    5.5430 nb        1 SRA     -0.796000
     20 C2         -0.5010   -0.2220    5.0700 ca        1 SRA      0.686900
     21 N3         -0.9180   -0.4240    3.7960 nb        1 SRA     -0.768000
     22 C4          0.0640   -0.1610    2.8810 ca        1 SRA      0.439800
     23 O2'        -3.4580   -0.6640    1.2410 oh        1 SRA     -0.601800
     24 HOP1        0.4520   -2.2090   -3.4930 ho        1 SRA      0.504000
     25 HOP3        1.1490   -0.2680   -5.7990 ho        1 SRA      0.504000
     26 H5'        -1.5390    1.6430   -2.7850 h1        1 SRA      0.090200
     27 H5''       -0.0030    1.3220   -1.7840 h1        1 SRA      0.090200
     28 H4'        -2.2890   -0.7740   -2.0700 h1        1 SRA      0.090700
     29 H3'        -2.3440    1.8410   -0.5130 h1        1 SRA      0.095700
     30 HO3'       -4.3140   -0.1650   -0.6840 ho        1 SRA      0.429000
     31 H2'        -2.2240    0.9710    1.6610 h1        1 SRA      0.091700
     32 H1'        -1.3060   -1.7950    1.1060 h2        1 SRA      0.100700
     33 H8          1.6260    0.1820   -0.0290 h5        1 SRA      0.128800
     34 HN61        3.1430    1.0010    5.9800 hn        1 SRA      0.451800
     35 HN62        3.6190    1.0610    4.3340 hn        1 SRA      0.451800
     36 H2         -1.2600   -0.4260    5.8560 h5        1 SRA      0.049100
     37 HO2'       -3.4050   -0.8210    2.1950 ho        1 SRA      0.441000
@<TRIPOS>BOND
     1    1    2 1   
     2    1    3 2   
     3    1    4 1   
     4    1    5 1   
     5    2   24 1   
     6    4   25 1   
     7    5    6 1   
     8    6    7 1   
     9    6   26 1   
    10    6   27 1   
    11    7    8 1   
    12    7    9 1   
    13    7   28 1   
    14    8   12 1   
    15    9   10 1   
    16    9   11 1   
    17    9   29 1   
    18   10   30 1   
    19   11   12 1   
    20   11   23 1   
    21   11   31 1   
    22   12   13 1   
    23   12   32 1   
    24   13   14 1   
    25   13   22 1   
    26   14   15 2   
    27   14   33 1   
    28   15   16 1   
    29   16   17 ar  
    30   16   22 ar  
    31   17   18 1   
    32   17   19 ar  
    33   18   34 1   
    34   18   35 1   
    35   19   20 ar  
    36   20   21 ar  
    37   20   36 1   
    38   21   22 ar  
    39   23   37 1   
@<TRIPOS>SUBSTRUCTURE
     1 SRA         1 TEMP              0 ****  ****    0 ROOT
