@<TRIPOS>MOLECULE
SRE
   38    40     1     0     0
SMALL
bcc


@<TRIPOS>ATOM
      1 CL19        0.0520   -0.3780    0.3720 cl        1 SRE     -0.029400
      2 C16         1.7320   -0.2250    0.2780 ca        1 SRE      0.028400
      3 C15         2.5180   -0.1110    1.4370 ca        1 SRE      0.019400
      4 CL20        1.8170   -0.1200    2.9790 cl        1 SRE     -0.051400
      5 C17         2.3510   -0.2110   -0.9780 ca        1 SRE     -0.104000
      6 C18         3.7350   -0.0870   -1.0800 ca        1 SRE     -0.109000
      7 C13         4.5210    0.0250    0.0720 ca        1 SRE     -0.093300
      8 C14         3.9050    0.0130    1.3260 ca        1 SRE     -0.124000
      9 C4          6.0130    0.1310   -0.0430 c3        1 SRE      0.014900
     10 C5          6.5420    1.3470    0.6560 ca        1 SRE     -0.035300
     11 C6          5.9850    2.5920    0.3260 ca        1 SRE     -0.117000
     12 C7          6.4920    3.7680    0.8710 ca        1 SRE     -0.076000
     13 C8          7.5780    3.7210    1.7500 ca        1 SRE     -0.119000
     14 C9          8.1380    2.4950    2.0890 ca        1 SRE     -0.111000
     15 C10         7.6180    1.3060    1.5560 ca        1 SRE     -0.181300
     16 C1          8.2570    0.0060    1.9280 c3        1 SRE      0.198800
     17 N11         7.6360   -0.5280    3.2150 n4        1 SRE     -0.766000
     18 C12         8.1930    0.0970    4.4300 c3        1 SRE      0.077100
     19 C2          8.0990   -1.0110    0.7970 c3        1 SRE     -0.107400
     20 C3          6.6510   -1.1810    0.4070 c3        1 SRE     -0.088400
     21 H17         1.7390   -0.2980   -1.8910 ha        1 SRE      0.168000
     22 H18         4.2050   -0.0790   -2.0760 ha        1 SRE      0.150000
     23 H14         4.5140    0.1160    2.2370 ha        1 SRE      0.117000
     24 H4          6.2780    0.2730   -1.1370 hc        1 SRE      0.090700
     25 H6          5.1360    2.6320   -0.3770 ha        1 SRE      0.162000
     26 H7          6.0430    4.7380    0.6020 ha        1 SRE      0.163000
     27 H8          7.9920    4.6530    2.1670 ha        1 SRE      0.160000
     28 H9          9.0100    2.4620    2.7610 ha        1 SRE      0.135000
     29 H1          9.3570    0.1540    2.1500 hx        1 SRE      0.107700
     30 H12         8.0470    1.2110    4.3760 hx        1 SRE      0.106700
     31 H12A        7.6620   -0.3080    5.3330 hx        1 SRE      0.106700
     32 H2          8.5460   -2.0010    1.0800 hc        1 SRE      0.087700
     33 H2A         8.6880   -0.6190   -0.0770 hc        1 SRE      0.087700
     34 H3          6.0640   -1.6200    1.2580 hc        1 SRE      0.062700
     35 H3A         6.5820   -1.9200   -0.4380 hc        1 SRE      0.062700
     36 H16         6.6230   -0.3550    3.1720 hn        1 SRE      0.450300
     37 H171        9.2900   -0.1320    4.5050 hx        1 SRE      0.106700
     38 H112        7.7850   -1.5420    3.2510 hn        1 SRE      0.450300
@<TRIPOS>BOND
     1    1    2 1   
     2    2    3 ar  
     3    2    5 ar  
     4    3    4 1   
     5    3    8 ar  
     6    5    6 ar  
     7    5   21 1   
     8    6    7 ar  
     9    6   22 1   
    10    7    8 ar  
    11    7    9 1   
    12    8   23 1   
    13    9   10 1   
    14    9   20 1   
    15    9   24 1   
    16   10   11 ar  
    17   10   15 ar  
    18   11   12 ar  
    19   11   25 1   
    20   12   13 ar  
    21   12   26 1   
    22   13   14 ar  
    23   13   27 1   
    24   14   15 ar  
    25   14   28 1   
    26   15   16 1   
    27   16   17 1   
    28   16   19 1   
    29   16   29 1   
    30   17   18 1   
    31   17   36 1   
    32   17   38 1   
    33   18   30 1   
    34   18   31 1   
    35   18   37 1   
    36   19   20 1   
    37   19   32 1   
    38   19   33 1   
    39   20   34 1   
    40   20   35 1   
@<TRIPOS>SUBSTRUCTURE
     1 SRE         1 TEMP              0 ****  ****    0 ROOT
