@<TRIPOS>MOLECULE
SRE
   38    40     1     0     0
SMALL
bcc


@<TRIPOS>ATOM
      1 Cl19        0.0510   -0.3870    0.3860 cl        1 SRE     -0.029400
      2 C16         1.7300   -0.2320    0.2880 ca        1 SRE      0.028400
      3 C15         2.5180   -0.1170    1.4460 ca        1 SRE      0.019400
      4 Cl20        1.8210   -0.1260    2.9890 cl        1 SRE     -0.051400
      5 C17         2.3460   -0.2170   -0.9690 ca        1 SRE     -0.104000
      6 C18         3.7290   -0.0920   -1.0740 ca        1 SRE     -0.109000
      7 C13         4.5180    0.0210    0.0770 ca        1 SRE     -0.093300
      8 C14         3.9050    0.0090    1.3320 ca        1 SRE     -0.124000
      9 C4          6.0100    0.1280   -0.0410 c3        1 SRE      0.014900
     10 C5          6.5390    1.3460    0.6540 ca        1 SRE     -0.035300
     11 C6          5.9790    2.5910    0.3240 ca        1 SRE     -0.117000
     12 C7          6.4860    3.7680    0.8660 ca        1 SRE     -0.076000
     13 C8          7.5750    3.7240    1.7420 ca        1 SRE     -0.119000
     14 C9          8.1370    2.4990    2.0800 ca        1 SRE     -0.111000
     15 C10         7.6170    1.3090    1.5510 ca        1 SRE     -0.181300
     16 C1          8.2580    0.0090    1.9240 c3        1 SRE      0.198800
     17 N11         7.6420   -0.5230    3.2130 ny        1 SRE     -0.766000
     18 C12         8.2040    0.1040    4.4260 c3        1 SRE      0.077100
     19 C2          8.0990   -1.0100    0.7950 c3        1 SRE     -0.107400
     20 C3          6.6500   -1.1820    0.4090 c3        1 SRE     -0.088400
     21 H17         1.7330   -0.3060   -1.8810 ha        1 SRE      0.168000
     22 H18         4.1980   -0.0840   -2.0710 ha        1 SRE      0.150000
     23 H14         4.5160    0.1130    2.2410 ha        1 SRE      0.117000
     24 H4          6.2720    0.2690   -1.1360 hc        1 SRE      0.090700
     25 H6          5.1290    2.6280   -0.3770 ha        1 SRE      0.162000
     26 H7          6.0350    4.7370    0.5960 ha        1 SRE      0.163000
     27 H8          7.9890    4.6570    2.1560 ha        1 SRE      0.160000
     28 H9          9.0110    2.4680    2.7500 ha        1 SRE      0.134000
     29 H1          9.3590    0.1600    2.1420 hx        1 SRE      0.107700
     30 H12         9.3000   -0.1250    4.4980 hx        1 SRE      0.106700
     31 H12A        7.6750   -0.2990    5.3320 hx        1 SRE      0.106700
     32 H2          8.6850   -0.6180   -0.0820 hc        1 SRE      0.087700
     33 H2A         8.5480   -1.9980    1.0790 hc        1 SRE      0.087700
     34 H3          6.5800   -1.9220   -0.4330 hc        1 SRE      0.062700
     35 H3A         6.0660   -1.6200    1.2620 hc        1 SRE      0.062700
     36 H16         7.7920   -1.5370    3.2500 hn        1 SRE      0.450300
     37 H171        8.0580    1.2180    4.3710 hx        1 SRE      0.106700
     38 H112        6.6290   -0.3500    3.1740 hn        1 SRE      0.450300
@<TRIPOS>BOND
     1    1    2 1   
     2    2    3 ar  
     3    2    5 ar  
     4    3    4 1   
     5    3    8 ar  
     6    5    6 ar  
     7    5   21 1   
     8    6    7 ar  
     9    6   22 1   
    10    7    8 ar  
    11    7    9 1   
    12    8   23 1   
    13    9   10 1   
    14    9   20 1   
    15    9   24 1   
    16   10   11 ar  
    17   10   15 ar  
    18   11   12 ar  
    19   11   25 1   
    20   12   13 ar  
    21   12   26 1   
    22   13   14 ar  
    23   13   27 1   
    24   14   15 ar  
    25   14   28 1   
    26   15   16 1   
    27   16   17 1   
    28   16   19 1   
    29   16   29 1   
    30   17   18 1   
    31   17   36 1   
    32   17   38 1   
    33   18   30 1   
    34   18   31 1   
    35   18   37 1   
    36   19   20 1   
    37   19   32 1   
    38   19   33 1   
    39   20   34 1   
    40   20   35 1   
@<TRIPOS>SUBSTRUCTURE
     1 SRE         1 TEMP              0 ****  ****    0 ROOT
