@<TRIPOS>MOLECULE
SRE
   38    40     1     0     0
SMALL
bcc


@<TRIPOS>ATOM
      1 CL19        0.0530   -0.3820    0.3770 cl        1 SRE     -0.029400
      2 C16         1.7320   -0.2290    0.2810 ca        1 SRE      0.028400
      3 C15         2.5190   -0.1110    1.4390 ca        1 SRE      0.019400
      4 CL20        1.8190   -0.1160    2.9820 cl        1 SRE     -0.051400
      5 C17         2.3510   -0.2190   -0.9750 ca        1 SRE     -0.104000
      6 C18         3.7340   -0.0950   -1.0780 ca        1 SRE     -0.109000
      7 C13         4.5210    0.0210    0.0730 ca        1 SRE     -0.093300
      8 C14         3.9060    0.0130    1.3280 ca        1 SRE     -0.124000
      9 C4          6.0130    0.1260   -0.0430 c3        1 SRE      0.014900
     10 C5          6.5420    1.3450    0.6510 ca        1 SRE     -0.035300
     11 C6          5.9850    2.5900    0.3180 ca        1 SRE     -0.117000
     12 C7          6.4920    3.7670    0.8590 ca        1 SRE     -0.076000
     13 C8          7.5790    3.7240    1.7370 ca        1 SRE     -0.119000
     14 C9          8.1400    2.4980    2.0790 ca        1 SRE     -0.111000
     15 C10         7.6190    1.3080    1.5500 ca        1 SRE     -0.181300
     16 C1          8.2580    0.0090    1.9270 c3        1 SRE      0.198800
     17 N11         7.6390   -0.5210    3.2150 n4        1 SRE     -0.766000
     18 C12         8.1990    0.1070    4.4280 c3        1 SRE      0.077100
     19 C2          8.1000   -1.0120    0.7990 c3        1 SRE     -0.107400
     20 C3          6.6510   -1.1840    0.4110 c3        1 SRE     -0.088400
     21 H17         1.7380   -0.3090   -1.8880 ha        1 SRE      0.168000
     22 H18         4.2040   -0.0890   -2.0750 ha        1 SRE      0.150000
     23 H14         4.5150    0.1190    2.2370 ha        1 SRE      0.117000
     24 H4          6.2780    0.2650   -1.1370 hc        1 SRE      0.090700
     25 H6          5.1350    2.6260   -0.3850 ha        1 SRE      0.162000
     26 H7          6.0420    4.7360    0.5870 ha        1 SRE      0.163000
     27 H8          7.9930    4.6570    2.1500 ha        1 SRE      0.160000
     28 H9          9.0120    2.4680    2.7500 ha        1 SRE      0.134000
     29 H1          9.3580    0.1580    2.1470 hx        1 SRE      0.107700
     30 H12         8.0550    1.2210    4.3710 hx        1 SRE      0.106700
     31 H12A        9.2960   -0.1230    4.5020 hx        1 SRE      0.106700
     32 H2          8.6880   -0.6230   -0.0770 hc        1 SRE      0.087700
     33 H2A         8.5480   -2.0010    1.0850 hc        1 SRE      0.087700
     34 H3          6.0660   -1.6200    1.2640 hc        1 SRE      0.062700
     35 H3A         6.5820   -1.9250   -0.4310 hc        1 SRE      0.062700
     36 H16         6.6260   -0.3470    3.1740 hn        1 SRE      0.450300
     37 H171        7.6690   -0.2940    5.3330 hx        1 SRE      0.106700
     38 H112        7.7870   -1.5350    3.2540 hn        1 SRE      0.450300
@<TRIPOS>BOND
     1    1    2 1   
     2    2    3 ar  
     3    2    5 ar  
     4    3    4 1   
     5    3    8 ar  
     6    5    6 ar  
     7    5   21 1   
     8    6    7 ar  
     9    6   22 1   
    10    7    8 ar  
    11    7    9 1   
    12    8   23 1   
    13    9   10 1   
    14    9   20 1   
    15    9   24 1   
    16   10   11 ar  
    17   10   15 ar  
    18   11   12 ar  
    19   11   25 1   
    20   12   13 ar  
    21   12   26 1   
    22   13   14 ar  
    23   13   27 1   
    24   14   15 ar  
    25   14   28 1   
    26   15   16 1   
    27   16   17 1   
    28   16   19 1   
    29   16   29 1   
    30   17   18 1   
    31   17   36 1   
    32   17   38 1   
    33   18   30 1   
    34   18   31 1   
    35   18   37 1   
    36   19   20 1   
    37   19   32 1   
    38   19   33 1   
    39   20   34 1   
    40   20   35 1   
@<TRIPOS>SUBSTRUCTURE
     1 SRE         1 TEMP              0 ****  ****    0 ROOT
