@<TRIPOS>MOLECULE
SRE
   37    39     1     0     0
SMALL
bcc


@<TRIPOS>ATOM
      1 CL19       -4.9400   -0.0600    0.0290 cl        1 SRE     -0.069400
      2 C16        -3.2940    0.1480   -0.3240 ca        1 SRE      0.014400
      3 C15        -2.3180   -0.6820    0.2460 ca        1 SRE      0.019400
      4 CL20       -2.7440   -1.9300    1.3140 cl        1 SRE     -0.070400
      5 C17        -2.9080    1.1680   -1.2000 ca        1 SRE     -0.117000
      6 C18        -1.5630    1.3570   -1.5040 ca        1 SRE     -0.123000
      7 C13        -0.5830    0.5320   -0.9390 ca        1 SRE     -0.064300
      8 C14        -0.9680   -0.4870   -0.0630 ca        1 SRE     -0.108000
      9 C4          0.8610    0.7300   -1.2920 c3        1 SRE      0.021900
     10 C5          1.7020    1.0200   -0.0860 ca        1 SRE     -0.064300
     11 C6          1.2460    1.9880    0.8230 ca        1 SRE     -0.127000
     12 C7          2.0160    2.3570    1.9200 ca        1 SRE     -0.124000
     13 C8          3.2660    1.7700    2.1200 ca        1 SRE     -0.131000
     14 C9          3.7290    0.8120    1.2230 ca        1 SRE     -0.124000
     15 C10         2.9540    0.4240    0.1220 ca        1 SRE     -0.114300
     16 C1          3.5110   -0.6290   -0.8110 c3        1 SRE      0.220800
     17 N11         3.3940   -2.0010   -0.3300 n3        1 SRE     -0.818200
     18 C12         4.1930   -2.3210    0.8210 c3        1 SRE      0.150100
     19 C2          2.8670   -0.4700   -2.1960 c3        1 SRE     -0.072400
     20 C3          1.3600   -0.4590   -2.1060 c3        1 SRE     -0.073400
     21 H17        -3.6710    1.8220   -1.6500 ha        1 SRE      0.151000
     22 H18        -1.2720    2.1630   -2.1960 ha        1 SRE      0.141000
     23 H14        -0.2010   -1.1370    0.3890 ha        1 SRE      0.155000
     24 H4          0.9440    1.6470   -1.9520 hc        1 SRE      0.064700
     25 H6          0.2630    2.4560    0.6600 ha        1 SRE      0.136000
     26 H7          1.6420    3.1130    2.6260 ha        1 SRE      0.134000
     27 H8          3.8830    2.0630    2.9810 ha        1 SRE      0.133000
     28 H9          4.7190    0.3540    1.3730 ha        1 SRE      0.132000
     29 H1          4.6200   -0.4260   -0.9310 h1        1 SRE      0.063700
     30 H12         5.2700   -2.0950    0.6030 h1        1 SRE      0.031700
     31 H12A        3.9010   -1.7620    1.7530 h1        1 SRE      0.031700
     32 H2          3.2290    0.4960   -2.6350 hc        1 SRE      0.054700
     33 H2A         3.2000   -1.2990   -2.8730 hc        1 SRE      0.054700
     34 H3          0.9930   -1.4160   -1.6510 hc        1 SRE      0.049700
     35 H3A         0.9210   -0.3990   -3.1370 hc        1 SRE      0.049700
     36 H16         2.4310   -2.2300   -0.1670 hn        1 SRE      0.360800
     37 H171        4.0900   -3.4200    1.0220 h1        1 SRE      0.031700
@<TRIPOS>BOND
     1    1    2 1   
     2    2    3 ar  
     3    2    5 ar  
     4    3    4 1   
     5    3    8 ar  
     6    5    6 ar  
     7    5   21 1   
     8    6    7 ar  
     9    6   22 1   
    10    7    8 ar  
    11    7    9 1   
    12    8   23 1   
    13    9   10 1   
    14    9   20 1   
    15    9   24 1   
    16   10   11 ar  
    17   10   15 ar  
    18   11   12 ar  
    19   11   25 1   
    20   12   13 ar  
    21   12   26 1   
    22   13   14 ar  
    23   13   27 1   
    24   14   15 ar  
    25   14   28 1   
    26   15   16 1   
    27   16   17 1   
    28   16   19 1   
    29   16   29 1   
    30   17   18 1   
    31   17   36 1   
    32   18   30 1   
    33   18   31 1   
    34   18   37 1   
    35   19   20 1   
    36   19   32 1   
    37   19   33 1   
    38   20   34 1   
    39   20   35 1   
@<TRIPOS>SUBSTRUCTURE
     1 SRE         1 TEMP              0 ****  ****    0 ROOT
