@<TRIPOS>MOLECULE
SRG
   73    73     1     0     0
SMALL
bcc


@<TRIPOS>ATOM
      1 C8         -2.5800   -0.8580    0.4330 c         1 SRG      0.750100
      2 C6         -3.0990    2.8970   -0.1630 c3        1 SRG     -0.092100
      3 C5         -2.4230    3.1880    2.2190 c3        1 SRG     -0.092100
      4 C4         -2.6250    2.1970    1.0920 c3        1 SRG     -0.070700
      5 O2         -5.8560    1.6240    0.7390 o         1 SRG     -0.822800
      6 C1         -5.0580    1.7150    1.7120 c         1 SRG      0.922600
      7 C3         -3.6110    1.1010    1.5480 c3        1 SRG     -0.033300
      8 N7         -3.6690   -0.0460    0.6640 n         1 SRG     -0.508900
      9 O9         -1.5390   -0.8290    1.1530 o         1 SRG     -0.715100
     10 N36        -2.6300   -1.7810   -0.6480 n         1 SRG     -0.572900
     11 C11        -1.7820   -2.9450   -0.6280 c3        1 SRG      0.044700
     12 C12        -2.4420   -4.2280   -1.1750 c3        1 SRG     -0.070700
     13 C13        -3.3970   -4.7990   -0.1480 c3        1 SRG     -0.096600
     14 C14        -3.1440   -4.0320   -2.5010 c3        1 SRG     -0.096600
     15 C15        -0.4760   -2.6520   -1.4240 c         1 SRG      0.657100
     16 O16        -0.2470   -3.1420   -2.5450 o         1 SRG     -0.617100
     17 N17         0.4370   -1.8490   -0.7630 n         1 SRG     -0.552900
     18 C18         1.5130   -1.1850   -1.4470 c3        1 SRG      0.058900
     19 C19         2.8720   -1.2850   -0.6910 c         1 SRG      0.649100
     20 O20         3.8900   -1.6170   -1.3220 o         1 SRG     -0.595100
     21 N21         2.8790   -0.9830    0.6670 n         1 SRG     -0.531900
     22 C22         4.0110   -0.3520    1.3270 c3        1 SRG      0.125900
     23 C23         5.3560   -1.0900    1.1630 c3        1 SRG     -0.065700
     24 C24         6.3950   -0.4430    2.0560 c3        1 SRG     -0.089600
     25 C25         5.2210   -2.5590    1.5050 c3        1 SRG     -0.089600
     26 C26         4.1450    1.0890    0.8870 c2        1 SRG     -0.131200
     27 C27         3.1870    1.9880    1.1350 ce        1 SRG     -0.220200
     28 C28         3.2630    3.3610    0.5770 c         1 SRG      0.660300
     29 O29         4.3480    3.9740    0.4650 o         1 SRG     -0.629100
     30 N30         2.1050    3.9970    0.1720 n         1 SRG     -0.563900
     31 C31         0.7950    3.4170    0.1270 c3        1 SRG      0.094000
     32 C32         0.4650    2.5570   -1.1030 c3        1 SRG     -0.085200
     33 C33         0.6700    1.1120   -0.8490 c2        1 SRG     -0.149200
     34 C34         1.3080    0.2900   -1.6870 c2        1 SRG     -0.215200
     35 H6         -2.4400    3.7700   -0.3950 hc        1 SRG      0.033867
     36 H6A        -3.0780    2.1980   -1.0330 hc        1 SRG      0.033867
     37 H6B        -4.1500    3.2580   -0.0310 hc        1 SRG      0.033867
     38 H5         -3.4120    3.5950    2.5540 hc        1 SRG      0.033867
     39 H5A        -1.9390    2.6880    3.0920 hc        1 SRG      0.033867
     40 H5B        -1.7690    4.0290    1.8830 hc        1 SRG      0.033867
     41 H3         -3.2690    0.7340    2.5580 h1        1 SRG      0.064700
     42 HN7        -4.4270   -0.0120    0.0120 hn        1 SRG      0.331500
     43 HN36       -3.4910   -1.8890   -1.1330 hn        1 SRG      0.304500
     44 H11        -1.4730   -3.1620    0.4440 h1        1 SRG      0.080700
     45 H12        -1.5990   -4.9610   -1.3360 hc        1 SRG      0.068700
     46 H13        -4.2240   -4.0810    0.0690 hc        1 SRG      0.039367
     47 H13A       -3.8450   -5.7470   -0.5310 hc        1 SRG      0.039367
     48 H13B       -2.8630   -5.0200    0.8080 hc        1 SRG      0.039367
     49 H14        -2.4920   -3.4510   -3.2000 hc        1 SRG      0.039367
     50 H14A       -3.3610   -5.0260   -2.9620 hc        1 SRG      0.039367
     51 H14B       -4.1160   -3.4960   -2.3770 hc        1 SRG      0.039367
     52 HN17        0.1120   -1.4100    0.0780 hn        1 SRG      0.337500
     53 H18         1.6690   -1.7030   -2.4450 h1        1 SRG      0.118700
     54 HN21        2.0070   -0.6650    1.0370 hn        1 SRG      0.301500
     55 H22         3.7600   -0.3620    2.4350 h1        1 SRG      0.063700
     56 H23         5.6800   -1.0010    0.0870 hc        1 SRG      0.080700
     57 H24         6.1160   -0.5570    3.1320 hc        1 SRG      0.035700
     58 H24A        7.3870   -0.9320    1.8970 hc        1 SRG      0.035700
     59 H24B        6.4980    0.6450    1.8310 hc        1 SRG      0.035700
     60 H25         6.2310   -3.0350    1.5450 hc        1 SRG      0.035700
     61 H25A        4.7260   -2.6920    2.4960 hc        1 SRG      0.035700
     62 H25B        4.6160   -3.0830    0.7250 hc        1 SRG      0.035700
     63 H26         5.0420    1.3480    0.3000 ha        1 SRG      0.153000
     64 H27         2.2980    1.7460    1.7390 ha        1 SRG      0.143000
     65 HN30        2.2250    4.8660   -0.2970 hn        1 SRG      0.311500
     66 H31         0.6180    2.8070    1.0600 h1        1 SRG      0.061700
     67 H31A        0.0560    4.2730    0.1530 h1        1 SRG      0.061700
     68 H32        -0.6300    2.7070   -1.3280 hc        1 SRG      0.064200
     69 H32A        1.0440    2.9000   -2.0000 hc        1 SRG      0.064200
     70 H33         0.2060    0.7470    0.0890 ha        1 SRG      0.146000
     71 H34         1.7580    0.6520   -2.6250 ha        1 SRG      0.134000
     72 O35        -5.3060    2.2610    2.8170 o         1 SRG     -0.822800
     73 H4         -1.6290    1.7110    0.8720 hc        1 SRG      0.020700
@<TRIPOS>BOND
     1    1    8 1   
     2    1    9 2   
     3    1   10 1   
     4    2    4 1   
     5    2   35 1   
     6    2   36 1   
     7    2   37 1   
     8    3    4 1   
     9    3   38 1   
    10    3   39 1   
    11    3   40 1   
    12    4    7 1   
    13    4   73 1   
    14    5    6 1   
    15    6    7 1   
    16    6   72 1   
    17    7    8 1   
    18    7   41 1   
    19    8   42 1   
    20   10   11 1   
    21   10   43 1   
    22   11   12 1   
    23   11   15 1   
    24   11   44 1   
    25   12   13 1   
    26   12   14 1   
    27   12   45 1   
    28   13   46 1   
    29   13   47 1   
    30   13   48 1   
    31   14   49 1   
    32   14   50 1   
    33   14   51 1   
    34   15   16 2   
    35   15   17 1   
    36   17   18 1   
    37   17   52 1   
    38   18   19 1   
    39   18   34 1   
    40   18   53 1   
    41   19   20 2   
    42   19   21 1   
    43   21   22 1   
    44   21   54 1   
    45   22   23 1   
    46   22   26 1   
    47   22   55 1   
    48   23   24 1   
    49   23   25 1   
    50   23   56 1   
    51   24   57 1   
    52   24   58 1   
    53   24   59 1   
    54   25   60 1   
    55   25   61 1   
    56   25   62 1   
    57   26   27 2   
    58   26   63 1   
    59   27   28 1   
    60   27   64 1   
    61   28   29 2   
    62   28   30 1   
    63   30   31 1   
    64   30   65 1   
    65   31   32 1   
    66   31   66 1   
    67   31   67 1   
    68   32   33 1   
    69   32   68 1   
    70   32   69 1   
    71   33   34 2   
    72   33   70 1   
    73   34   71 1   
@<TRIPOS>SUBSTRUCTURE
     1 SRG         1 TEMP              0 ****  ****    0 ROOT
