@<TRIPOS>MOLECULE
SRI
   11    10     1     0     0
SMALL
bcc


@<TRIPOS>ATOM
      1 O           0.1320   -0.0030    0.0600 o         1 SRI     -0.827300
      2 C           1.3920    0.0040   -0.0060 c         1 SRI      0.782300
      3 OXT         2.1680    0.0100    0.9880 o         1 SRI     -0.827300
      4 CA          2.0200    0.0060   -1.4220 ce        1 SRI      0.339300
      5 N           1.3490    0.0020   -2.5170 n2        1 SRI     -0.783100
      6 CB          3.5240    0.0130   -1.3340 c3        1 SRI      0.086100
      7 OG          4.1610    0.0170   -2.6050 oh        1 SRI     -0.599800
      8 HN          0.3570   -0.0030   -2.3540 hn        1 SRI      0.382400
      9 HB1         3.8350   -0.9010   -0.7560 h1        1 SRI      0.039700
     10 HB2         3.8270    0.9280   -0.7530 h1        1 SRI      0.039700
     11 HOG         5.1060    0.0230   -2.4150 ho        1 SRI      0.368000
@<TRIPOS>BOND
     1    1    2 1   
     2    2    3 1   
     3    2    4 1   
     4    4    5 2   
     5    4    6 1   
     6    5    8 1   
     7    6    7 1   
     8    6    9 1   
     9    6   10 1   
    10    7   11 1   
@<TRIPOS>SUBSTRUCTURE
     1 SRI         1 TEMP              0 ****  ****    0 ROOT
