@<TRIPOS>MOLECULE
SRI
   11    10     1     0     0
SMALL
bcc


@<TRIPOS>ATOM
      1 O          -1.9120   -0.0150    0.6680 o         1 SRI     -0.816300
      2 C          -1.0850   -0.2540   -0.2480 c         1 SRI      0.839300
      3 OXT        -1.2770   -0.9840   -1.2550 o         1 SRI     -0.816300
      4 CA          0.3400    0.3350   -0.0960 ce        1 SRI      0.334300
      5 N           0.6430    1.5340   -0.4250 n2        1 SRI     -0.780100
      6 CB          1.2800   -0.7090    0.4700 c3        1 SRI      0.021100
      7 OG          2.6550   -0.4220    0.2520 oh        1 SRI     -0.629800
      8 HN          1.6080    1.7660   -0.2780 hn        1 SRI      0.332400
      9 HB1         1.1700   -0.7500    1.5870 h1        1 SRI      0.061700
     10 HB2         1.0270   -1.7100    0.0270 h1        1 SRI      0.061700
     11 HOG         2.7750   -0.3490   -0.7010 ho        1 SRI      0.392000
@<TRIPOS>BOND
     1    1    2 1   
     2    2    3 1   
     3    2    4 1   
     4    4    5 2   
     5    4    6 1   
     6    5    8 1   
     7    6    7 1   
     8    6    9 1   
     9    6   10 1   
    10    7   11 1   
@<TRIPOS>SUBSTRUCTURE
     1 SRI         1 TEMP              0 ****  ****    0 ROOT
