@<TRIPOS>MOLECULE
SRI
   11    10     1     0     0
SMALL
bcc


@<TRIPOS>ATOM
      1 O           0.1350   -0.0030    0.0660 o         1 SRI     -0.827300
      2 C           1.3950    0.0030   -0.0030 c         1 SRI      0.782300
      3 OXT         2.1740    0.0040    0.9890 o         1 SRI     -0.827300
      4 CA          2.0200    0.0070   -1.4210 ce        1 SRI      0.339300
      5 N           1.3450    0.0060   -2.5140 n2        1 SRI     -0.783100
      6 CB          3.5230    0.0130   -1.3360 c3        1 SRI      0.086100
      7 OG          4.1580    0.0170   -2.6090 oh        1 SRI     -0.599800
      8 HN          0.3540    0.0020   -2.3480 hn        1 SRI      0.382400
      9 HB1         3.8360   -0.9020   -0.7600 h1        1 SRI      0.039700
     10 HB2         3.8290    0.9270   -0.7560 h1        1 SRI      0.039700
     11 HOG         5.1030    0.0210   -2.4220 ho        1 SRI      0.368000
@<TRIPOS>BOND
     1    1    2 1   
     2    2    3 1   
     3    2    4 1   
     4    4    5 2   
     5    4    6 1   
     6    5    8 1   
     7    6    7 1   
     8    6    9 1   
     9    6   10 1   
    10    7   11 1   
@<TRIPOS>SUBSTRUCTURE
     1 SRI         1 TEMP              0 ****  ****    0 ROOT
