@<TRIPOS>MOLECULE
SRL
   75    75     1     0     0
SMALL
bcc


@<TRIPOS>ATOM
      1 C1         -0.0350   -0.2710   -0.3110 ca        1 SRL     -0.117300
      2 C2          1.3750   -0.2430   -0.2090 ca        1 SRL      0.169100
      3 C3          2.0370    0.0410    1.0170 ca        1 SRL     -0.117300
      4 C4          1.2480    0.2970    2.1340 ca        1 SRL     -0.052500
      5 C5         -0.1530    0.3080    2.0500 ca        1 SRL     -0.179800
      6 C6         -0.7800    0.0260    0.8350 ca        1 SRL     -0.052500
      7 C7         -0.8980    0.5250    3.2860 ce        1 SRL      0.147800
      8 C8         -1.7960    1.4430    3.7370 cf        1 SRL     -0.673200
      9 P9         -2.2910    0.9430    5.2690 py        1 SRL      1.588200
     10 P10        -2.1090    2.7680    2.7370 py        1 SRL      1.588200
     11 O11         2.2040   -0.5140   -1.2710 oh        1 SRL     -0.502100
     12 C12        -0.7450   -0.5840   -1.6070 c3        1 SRL      0.000800
     13 C13         3.5430    0.0690    1.1110 c3        1 SRL      0.000800
     14 C14        -2.2490   -0.7700   -1.4080 c3        1 SRL     -0.093767
     15 C15        -0.5720    0.5880   -2.5740 c3        1 SRL     -0.093767
     16 C16        -0.2030   -1.8770   -2.2240 c3        1 SRL     -0.093767
     17 C17         4.0260    0.4060    2.5210 c3        1 SRL     -0.093767
     18 C18         4.1150   -1.2980    0.7460 c3        1 SRL     -0.093767
     19 C19         4.1030    1.1330    0.1700 c3        1 SRL     -0.093767
     20 O20        -1.6190   -0.2090    5.8660 o         1 SRL     -0.845300
     21 O21        -2.2220    2.2000    6.2680 os        1 SRL     -0.595950
     22 C22        -1.5560    1.9530    7.4920 c3        1 SRL      0.173150
     23 C23        -1.5370    3.2270    8.3000 c3        1 SRL     -0.102100
     24 O24        -3.8760    0.7050    5.1370 os        1 SRL     -0.595950
     25 C25        -4.4540    0.0790    6.2670 c3        1 SRL      0.173150
     26 C26        -5.9200   -0.1510    6.0030 c3        1 SRL     -0.102100
     27 O27        -0.9560    3.5690    2.3540 o         1 SRL     -0.845300
     28 O28        -2.9330    2.1700    1.4910 os        1 SRL     -0.595950
     29 C29        -4.3270    2.0060    1.6450 c3        1 SRL      0.173150
     30 C30        -4.8220    1.0550    0.5800 c3        1 SRL     -0.102100
     31 O31        -3.2590    3.6960    3.3780 os        1 SRL     -0.595950
     32 C32        -2.9820    5.0540    3.6510 c3        1 SRL      0.173150
     33 C33        -3.9320    5.9350    2.8690 c3        1 SRL     -0.102100
     34 HC4         1.7090    0.5170    3.1110 ha        1 SRL      0.152000
     35 HC6        -1.8830    0.0370    0.7960 ha        1 SRL      0.152000
     36 HC7        -0.6010   -0.2920    4.0050 ha        1 SRL      0.170000
     37 H11         1.6910   -0.5200   -2.0910 ho        1 SRL      0.430000
     38 H141       -2.7190   -1.0580   -2.3800 hc        1 SRL      0.041200
     39 H142       -2.4520   -1.5760   -0.6640 hc        1 SRL      0.041200
     40 H143       -2.7300    0.1800   -1.0650 hc        1 SRL      0.041200
     41 H151       -1.0400    0.3390   -3.5560 hc        1 SRL      0.041200
     42 H152        0.5020    0.8350   -2.7460 hc        1 SRL      0.041200
     43 H153       -1.0700    1.4980   -2.1590 hc        1 SRL      0.041200
     44 H161       -1.0360   -2.5700   -2.4980 hc        1 SRL      0.041200
     45 H162        0.4640   -2.4160   -1.5080 hc        1 SRL      0.041200
     46 H163        0.3730   -1.6670   -3.1590 hc        1 SRL      0.041200
     47 H171        3.6610    1.4140    2.8340 hc        1 SRL      0.041200
     48 H172        5.1430    0.4200    2.5360 hc        1 SRL      0.041200
     49 H173        3.6790   -0.3600    3.2540 hc        1 SRL      0.041200
     50 H181        3.8820   -1.5580   -0.3140 hc        1 SRL      0.041200
     51 H182        5.2250   -1.2860    0.8690 hc        1 SRL      0.041200
     52 H183        3.6890   -2.0850    1.4120 hc        1 SRL      0.041200
     53 H191        3.8690    0.8870   -0.8920 hc        1 SRL      0.041200
     54 H192        3.6660    2.1310    0.4140 hc        1 SRL      0.041200
     55 H193        5.2120    1.1890    0.2840 hc        1 SRL      0.041200
     56 H221       -2.1090    1.1310    8.0230 h1        1 SRL      0.046075
     57 H222       -0.5170    1.5930    7.2580 h1        1 SRL      0.046075
     58 H231       -1.0250    3.0390    9.2740 hc        1 SRL      0.044783
     59 H232       -0.9930    4.0300    7.7480 hc        1 SRL      0.044783
     60 H233       -2.5770    3.5810    8.4940 hc        1 SRL      0.044783
     61 H251       -3.9060   -0.8870    6.4470 h1        1 SRL      0.046075
     62 H252       -4.2980    0.7620    7.1480 h1        1 SRL      0.046075
     63 H261       -6.4340    0.8170    5.7930 hc        1 SRL      0.044783
     64 H262       -6.0550   -0.8190    5.1190 hc        1 SRL      0.044783
     65 H263       -6.3870   -0.6290    6.8970 hc        1 SRL      0.044783
     66 H291       -4.5340    1.6070    2.6760 h1        1 SRL      0.046075
     67 H292       -4.8140    3.0150    1.5390 h1        1 SRL      0.046075
     68 H301       -4.6120    1.4700   -0.4350 hc        1 SRL      0.044783
     69 H302       -4.3060    0.0680    0.6660 hc        1 SRL      0.044783
     70 H303       -5.9210    0.9070    0.6980 hc        1 SRL      0.044783
     71 H321       -3.1450    5.2040    4.7560 h1        1 SRL      0.046075
     72 H322       -1.9110    5.2820    3.3890 h1        1 SRL      0.046075
     73 H331       -4.9890    5.6310    3.0630 hc        1 SRL      0.044783
     74 H332       -3.7390    5.8560    1.7730 hc        1 SRL      0.044783
     75 H333       -3.7920    6.9960    3.1850 hc        1 SRL      0.044783
@<TRIPOS>BOND
     1    1    2 ar  
     2    1    6 ar  
     3    1   12 1   
     4    2    3 ar  
     5    2   11 1   
     6    3    4 ar  
     7    3   13 1   
     8    4    5 ar  
     9    4   34 1   
    10    5    6 ar  
    11    5    7 1   
    12    6   35 1   
    13    7    8 2   
    14    7   36 1   
    15    8    9 1   
    16    8   10 1   
    17    9   20 2   
    18    9   21 1   
    19    9   24 1   
    20   10   27 2   
    21   10   28 1   
    22   10   31 1   
    23   11   37 1   
    24   12   14 1   
    25   12   15 1   
    26   12   16 1   
    27   13   17 1   
    28   13   18 1   
    29   13   19 1   
    30   14   38 1   
    31   14   39 1   
    32   14   40 1   
    33   15   41 1   
    34   15   42 1   
    35   15   43 1   
    36   16   44 1   
    37   16   45 1   
    38   16   46 1   
    39   17   47 1   
    40   17   48 1   
    41   17   49 1   
    42   18   50 1   
    43   18   51 1   
    44   18   52 1   
    45   19   53 1   
    46   19   54 1   
    47   19   55 1   
    48   21   22 1   
    49   22   23 1   
    50   22   56 1   
    51   22   57 1   
    52   23   58 1   
    53   23   59 1   
    54   23   60 1   
    55   24   25 1   
    56   25   26 1   
    57   25   61 1   
    58   25   62 1   
    59   26   63 1   
    60   26   64 1   
    61   26   65 1   
    62   28   29 1   
    63   29   30 1   
    64   29   66 1   
    65   29   67 1   
    66   30   68 1   
    67   30   69 1   
    68   30   70 1   
    69   31   32 1   
    70   32   33 1   
    71   32   71 1   
    72   32   72 1   
    73   33   73 1   
    74   33   74 1   
    75   33   75 1   
@<TRIPOS>SUBSTRUCTURE
     1 SRL         1 TEMP              0 ****  ****    0 ROOT
