@<TRIPOS>MOLECULE
SRL
   75    75     1     0     0
SMALL
bcc


@<TRIPOS>ATOM
      1 C1         -0.0210   -0.2040   -0.3140 ca        1 SRL     -0.116300
      2 C2          1.3890   -0.1500   -0.2160 ca        1 SRL      0.168100
      3 C3          2.0490    0.1280    1.0120 ca        1 SRL     -0.116300
      4 C4          1.2590    0.3530    2.1360 ca        1 SRL     -0.052500
      5 C5         -0.1410    0.3400    2.0540 ca        1 SRL     -0.179800
      6 C6         -0.7670    0.0620    0.8380 ca        1 SRL     -0.052500
      7 C7         -0.8910    0.5260    3.2930 ce        1 SRL      0.146800
      8 C8         -1.7940    1.4320    3.7570 cf        1 SRL     -0.671200
      9 P9         -2.3010    0.8970    5.2740 py        1 SRL      1.588200
     10 P10        -2.0990    2.7780    2.7820 py        1 SRL      1.588200
     11 O11         2.2200   -0.3870   -1.2850 oh        1 SRL     -0.503100
     12 C12        -0.7260   -0.5330   -1.6100 c3        1 SRL      0.001300
     13 C13         3.5540    0.1800    1.1030 c3        1 SRL      0.001300
     14 C14        -2.2480   -0.4980   -1.4630 c3        1 SRL     -0.094267
     15 C15        -0.3480    0.4790   -2.6970 c3        1 SRL     -0.094267
     16 C16        -0.3650   -1.9530   -2.0450 c3        1 SRL     -0.094267
     17 C17         4.0350    0.5020    2.5170 c3        1 SRL     -0.094267
     18 C18         4.1490   -1.1700    0.7130 c3        1 SRL     -0.094267
     19 C19         4.0930    1.2700    0.1790 c3        1 SRL     -0.094267
     20 O20        -1.6290   -0.2660    5.8510 o         1 SRL     -0.845300
     21 O21        -2.2470    2.1320    6.3010 os        1 SRL     -0.595700
     22 C22        -1.5900    1.8610    7.5250 c3        1 SRL      0.172650
     23 C23        -1.5840    3.1160    8.3610 c3        1 SRL     -0.101850
     24 O24        -3.8840    0.6550    5.1200 os        1 SRL     -0.595700
     25 C25        -4.4700    0.0040    6.2310 c3        1 SRL      0.172650
     26 C26        -5.9330   -0.2280    5.9470 c3        1 SRL     -0.101850
     27 O27        -0.9450    3.5900    2.4290 o         1 SRL     -0.845300
     28 O28        -2.9060    2.2050    1.5140 os        1 SRL     -0.595700
     29 C29        -4.3030    2.0470    1.6500 c3        1 SRL      0.172650
     30 C30        -4.8060    1.2010    0.5040 c3        1 SRL     -0.101850
     31 O31        -3.2560    3.6890    3.4350 os        1 SRL     -0.595700
     32 C32        -3.0050    5.0560    3.6870 c3        1 SRL      0.172650
     33 C33        -3.9810    5.9050    2.9010 c3        1 SRL     -0.101850
     34 HC4         1.7180    0.5670    3.1140 ha        1 SRL      0.151500
     35 HC6        -1.8700    0.0550    0.8050 ha        1 SRL      0.151500
     36 HC7        -0.5960   -0.3070    3.9950 ha        1 SRL      0.171000
     37 H11         1.7080   -0.3710   -2.1050 ho        1 SRL      0.430000
     38 H141       -2.5970    0.5180   -1.1560 hc        1 SRL      0.041256
     39 H142       -2.5930   -1.2480   -0.7110 hc        1 SRL      0.041256
     40 H143       -2.7190   -0.7530   -2.4440 hc        1 SRL      0.041256
     41 H151        0.2300    1.3330   -2.2660 hc        1 SRL      0.041256
     42 H152        0.2640   -0.0020   -3.4990 hc        1 SRL      0.041256
     43 H153       -1.2600    0.9010   -3.1830 hc        1 SRL      0.041256
     44 H161       -0.7580   -2.6890   -1.3040 hc        1 SRL      0.041256
     45 H162        0.7380   -2.1010   -2.1240 hc        1 SRL      0.041256
     46 H163       -0.8230   -2.1700   -3.0400 hc        1 SRL      0.041256
     47 H171        3.6550    1.4980    2.8480 hc        1 SRL      0.041256
     48 H172        3.7030   -0.2820    3.2390 hc        1 SRL      0.041256
     49 H173        5.1520    0.5350    2.5300 hc        1 SRL      0.041256
     50 H181        5.2590   -1.1410    0.8350 hc        1 SRL      0.041256
     51 H182        3.9180   -1.4160   -0.3500 hc        1 SRL      0.041256
     52 H183        3.7390   -1.9760    1.3670 hc        1 SRL      0.041256
     53 H191        3.8610    1.0370   -0.8870 hc        1 SRL      0.041256
     54 H192        3.6390    2.2550    0.4400 hc        1 SRL      0.041256
     55 H193        5.2020    1.3430    0.2910 hc        1 SRL      0.041256
     56 H221       -0.5480    1.5100    7.2920 h1        1 SRL      0.046200
     57 H222       -2.1440    1.0240    8.0330 h1        1 SRL      0.046200
     58 H231       -1.0400    3.9340    7.8310 hc        1 SRL      0.044783
     59 H232       -2.6280    3.4610    8.5540 hc        1 SRL      0.044783
     60 H233       -1.0790    2.9090    9.3340 hc        1 SRL      0.044783
     61 H251       -4.3260    0.6700    7.1270 h1        1 SRL      0.046200
     62 H252       -3.9200   -0.9640    6.3970 h1        1 SRL      0.046200
     63 H261       -6.0550   -0.8770    5.0480 hc        1 SRL      0.044783
     64 H262       -6.4490    0.7430    5.7520 hc        1 SRL      0.044783
     65 H263       -6.4060   -0.7250    6.8270 hc        1 SRL      0.044783
     66 H291       -4.5140    1.5610    2.6420 h1        1 SRL      0.046200
     67 H292       -4.7740    3.0680    1.6360 h1        1 SRL      0.046200
     68 H301       -5.9040    1.0420    0.6150 hc        1 SRL      0.044783
     69 H302       -4.2890    0.2100    0.4930 hc        1 SRL      0.044783
     70 H303       -4.6030    1.7080   -0.4690 hc        1 SRL      0.044783
     71 H321       -1.9420    5.3030    3.4130 h1        1 SRL      0.046200
     72 H322       -3.1640    5.2180    4.7910 h1        1 SRL      0.046200
     73 H331       -3.7940    5.8170    1.8040 hc        1 SRL      0.044783
     74 H332       -5.0290    5.5800    3.1050 hc        1 SRL      0.044783
     75 H333       -3.8640    6.9730    3.2020 hc        1 SRL      0.044783
@<TRIPOS>BOND
     1    1    2 ar  
     2    1    6 ar  
     3    1   12 1   
     4    2    3 ar  
     5    2   11 1   
     6    3    4 ar  
     7    3   13 1   
     8    4    5 ar  
     9    4   34 1   
    10    5    6 ar  
    11    5    7 1   
    12    6   35 1   
    13    7    8 2   
    14    7   36 1   
    15    8    9 1   
    16    8   10 1   
    17    9   20 2   
    18    9   21 1   
    19    9   24 1   
    20   10   27 2   
    21   10   28 1   
    22   10   31 1   
    23   11   37 1   
    24   12   14 1   
    25   12   15 1   
    26   12   16 1   
    27   13   17 1   
    28   13   18 1   
    29   13   19 1   
    30   14   38 1   
    31   14   39 1   
    32   14   40 1   
    33   15   41 1   
    34   15   42 1   
    35   15   43 1   
    36   16   44 1   
    37   16   45 1   
    38   16   46 1   
    39   17   47 1   
    40   17   48 1   
    41   17   49 1   
    42   18   50 1   
    43   18   51 1   
    44   18   52 1   
    45   19   53 1   
    46   19   54 1   
    47   19   55 1   
    48   21   22 1   
    49   22   23 1   
    50   22   56 1   
    51   22   57 1   
    52   23   58 1   
    53   23   59 1   
    54   23   60 1   
    55   24   25 1   
    56   25   26 1   
    57   25   61 1   
    58   25   62 1   
    59   26   63 1   
    60   26   64 1   
    61   26   65 1   
    62   28   29 1   
    63   29   30 1   
    64   29   66 1   
    65   29   67 1   
    66   30   68 1   
    67   30   69 1   
    68   30   70 1   
    69   31   32 1   
    70   32   33 1   
    71   32   71 1   
    72   32   72 1   
    73   33   73 1   
    74   33   74 1   
    75   33   75 1   
@<TRIPOS>SUBSTRUCTURE
     1 SRL         1 TEMP              0 ****  ****    0 ROOT
