@<TRIPOS>MOLECULE
SRL
   75    75     1     0     0
SMALL
bcc


@<TRIPOS>ATOM
      1 C1          1.1380    0.8310   -3.0430 ca        1 SRL     -0.118300
      2 C2          0.1120    0.5200   -3.9650 ca        1 SRL      0.170100
      3 C3         -1.2110    0.2130   -3.5450 ca        1 SRL     -0.118300
      4 C4         -1.4770    0.2260   -2.1780 ca        1 SRL     -0.051000
      5 C5         -0.4670    0.5030   -1.2440 ca        1 SRL     -0.181800
      6 C6          0.8230    0.8050   -1.6810 ca        1 SRL     -0.051000
      7 C7         -0.8460    0.5570    0.1650 ce        1 SRL      0.147800
      8 C8         -0.4770   -0.0990    1.3000 cf        1 SRL     -0.675200
      9 P9         -1.2870    0.6370    2.5830 py        1 SRL      1.590200
     10 P10         0.5640   -1.4180    1.1230 py        1 SRL      1.590200
     11 O11         0.3080    0.5150   -5.3250 oh        1 SRL     -0.502100
     12 C12         2.5470    1.1570   -3.4810 c3        1 SRL      0.000800
     13 C13        -2.2960   -0.1210   -4.5380 c3        1 SRL      0.000800
     14 C14         3.4090    1.6520   -2.3180 c3        1 SRL     -0.093767
     15 C15         3.2160   -0.1100   -4.0140 c3        1 SRL     -0.093767
     16 C16         2.5440    2.2570   -4.5470 c3        1 SRL     -0.093767
     17 C17        -3.6290   -0.4250   -3.8570 c3        1 SRL     -0.093767
     18 C18        -2.5230    1.0590   -5.4800 c3        1 SRL     -0.093767
     19 C19        -1.9020   -1.3570   -5.3430 c3        1 SRL     -0.093767
     20 O20        -2.2810    1.6610    2.2690 o         1 SRL     -0.845300
     21 O21        -1.9430   -0.5040    3.5050 os        1 SRL     -0.596450
     22 C22        -3.3080   -0.3030    3.8220 c3        1 SRL      0.175400
     23 C23        -3.7890   -1.4690    4.6510 c3        1 SRL     -0.106600
     24 O24        -0.1210    1.2100    3.5310 os        1 SRL     -0.596450
     25 C25        -0.5950    2.0390    4.5750 c3        1 SRL      0.175400
     26 C26         0.5840    2.5660    5.3550 c3        1 SRL     -0.106600
     27 O27         0.0960   -2.4930    0.2610 o         1 SRL     -0.845300
     28 O28         1.9760   -0.7920    0.6660 os        1 SRL     -0.596450
     29 C29         2.7780   -0.1000    1.5970 c3        1 SRL      0.175400
     30 C30         4.0400   -0.8810    1.8990 c3        1 SRL     -0.106600
     31 O31         0.9960   -1.9820    2.5680 os        1 SRL     -0.596450
     32 C32         0.8250   -3.3540    2.8550 c3        1 SRL      0.175400
     33 C33         2.1660   -3.9820    3.1670 c3        1 SRL     -0.106600
     34 HC4        -2.4860   -0.0010   -1.7980 ha        1 SRL      0.151500
     35 HC6         1.5950    1.0290   -0.9260 ha        1 SRL      0.151500
     36 HC7        -1.6460    1.3460    0.2690 ha        1 SRL      0.171000
     37 H11         1.2540    0.5770   -5.5180 ho        1 SRL      0.430000
     38 H141        4.4260    1.9200   -2.6990 hc        1 SRL      0.041200
     39 H142        2.9560    2.5580   -1.8510 hc        1 SRL      0.041200
     40 H143        3.5330    0.8560   -1.5430 hc        1 SRL      0.041200
     41 H151        3.3170   -0.8600   -3.1920 hc        1 SRL      0.041200
     42 H152        2.6280   -0.5800   -4.8370 hc        1 SRL      0.041200
     43 H153        4.2340    0.1360   -4.4020 hc        1 SRL      0.041200
     44 H161        1.5300    2.7150   -4.6490 hc        1 SRL      0.041200
     45 H162        3.2600    3.0740   -4.2820 hc        1 SRL      0.041200
     46 H163        2.8550    1.8540   -5.5420 hc        1 SRL      0.041200
     47 H171       -3.5340   -1.3030   -3.1740 hc        1 SRL      0.041200
     48 H172       -3.9920    0.4580   -3.2790 hc        1 SRL      0.041200
     49 H173       -4.3950   -0.6700   -4.6330 hc        1 SRL      0.041200
     50 H181       -1.6090    1.2670   -6.0860 hc        1 SRL      0.041200
     51 H182       -3.3630    0.8270   -6.1790 hc        1 SRL      0.041200
     52 H183       -2.7850    1.9740   -4.8970 hc        1 SRL      0.041200
     53 H191       -2.7310   -1.6330   -6.0380 hc        1 SRL      0.041200
     54 H192       -0.9850   -1.1620   -5.9480 hc        1 SRL      0.041200
     55 H193       -1.7070   -2.2160   -4.6580 hc        1 SRL      0.041200
     56 H221       -3.8800   -0.2120    2.8590 h1        1 SRL      0.045325
     57 H222       -3.3890    0.6690    4.3820 h1        1 SRL      0.045325
     58 H231       -4.8620   -1.3140    4.9170 hc        1 SRL      0.045867
     59 H232       -3.6860   -2.4210    4.0790 hc        1 SRL      0.045867
     60 H233       -3.1860   -1.5560    5.5860 hc        1 SRL      0.045867
     61 H251       -1.1940    2.8730    4.1120 h1        1 SRL      0.045325
     62 H252       -1.2690    1.4140    5.2240 h1        1 SRL      0.045325
     63 H261        0.2180    3.2060    6.1920 hc        1 SRL      0.045867
     64 H262        1.1830    1.7210    5.7710 hc        1 SRL      0.045867
     65 H263        1.2470    3.1720    4.6930 hc        1 SRL      0.045867
     66 H291        3.0480    0.8830    1.1140 h1        1 SRL      0.045325
     67 H292        2.1920    0.0930    2.5370 h1        1 SRL      0.045325
     68 H301        4.7240   -0.2520    2.5160 hc        1 SRL      0.045867
     69 H302        3.7980   -1.8150    2.4630 hc        1 SRL      0.045867
     70 H303        4.5550   -1.1630    0.9510 hc        1 SRL      0.045867
     71 H321        0.1580   -3.4160    3.7610 h1        1 SRL      0.045325
     72 H322        0.3310   -3.8660    1.9820 h1        1 SRL      0.045325
     73 H331        2.0080   -5.0280    3.5240 hc        1 SRL      0.045867
     74 H332        2.8170   -4.0060    2.2600 hc        1 SRL      0.045867
     75 H333        2.6920   -3.4000    3.9610 hc        1 SRL      0.045867
@<TRIPOS>BOND
     1    1    2 ar  
     2    1    6 ar  
     3    1   12 1   
     4    2    3 ar  
     5    2   11 1   
     6    3    4 ar  
     7    3   13 1   
     8    4    5 ar  
     9    4   34 1   
    10    5    6 ar  
    11    5    7 1   
    12    6   35 1   
    13    7    8 2   
    14    7   36 1   
    15    8    9 1   
    16    8   10 1   
    17    9   20 2   
    18    9   21 1   
    19    9   24 1   
    20   10   27 2   
    21   10   28 1   
    22   10   31 1   
    23   11   37 1   
    24   12   14 1   
    25   12   15 1   
    26   12   16 1   
    27   13   17 1   
    28   13   18 1   
    29   13   19 1   
    30   14   38 1   
    31   14   39 1   
    32   14   40 1   
    33   15   41 1   
    34   15   42 1   
    35   15   43 1   
    36   16   44 1   
    37   16   45 1   
    38   16   46 1   
    39   17   47 1   
    40   17   48 1   
    41   17   49 1   
    42   18   50 1   
    43   18   51 1   
    44   18   52 1   
    45   19   53 1   
    46   19   54 1   
    47   19   55 1   
    48   21   22 1   
    49   22   23 1   
    50   22   56 1   
    51   22   57 1   
    52   23   58 1   
    53   23   59 1   
    54   23   60 1   
    55   24   25 1   
    56   25   26 1   
    57   25   61 1   
    58   25   62 1   
    59   26   63 1   
    60   26   64 1   
    61   26   65 1   
    62   28   29 1   
    63   29   30 1   
    64   29   66 1   
    65   29   67 1   
    66   30   68 1   
    67   30   69 1   
    68   30   70 1   
    69   31   32 1   
    70   32   33 1   
    71   32   71 1   
    72   32   72 1   
    73   33   73 1   
    74   33   74 1   
    75   33   75 1   
@<TRIPOS>SUBSTRUCTURE
     1 SRL         1 TEMP              0 ****  ****    0 ROOT
