@<TRIPOS>MOLECULE
SRO
   26    27     1     0     0
SMALL
bcc


@<TRIPOS>ATOM
      1 OH          0.0360    0.3790   -0.3540 oh        1 SRO     -0.497100
      2 CZ3         1.3970    0.2470   -0.2080 ca        1 SRO      0.134100
      3 CH2         2.0110    0.1860    1.0670 ca        1 SRO     -0.183000
      4 CZ2         3.3830    0.0600    1.1870 ca        1 SRO     -0.076000
      5 CE2         4.1450   -0.0010    0.0090 ca        1 SRO     -0.083200
      6 NE1         5.5300   -0.1220   -0.1800 na        1 SRO     -0.162400
      7 CD1         5.7900   -0.1410   -1.5400 cc        1 SRO     -0.041100
      8 CG          4.5930   -0.0210   -2.2600 cd        1 SRO     -0.233400
      9 CD2         3.5210    0.0650   -1.2920 ca        1 SRO     -0.048800
     10 CE3         2.1360    0.1850   -1.3920 ca        1 SRO     -0.162000
     11 CB          4.4400   -0.0260   -3.7160 c3        1 SRO     -0.000200
     12 CA          3.9390    1.3530   -4.1610 c3        1 SRO      0.088800
     13 NZ          3.5530    1.3890   -5.6030 n4        1 SRO     -0.838600
     14 HOH        -0.3680    0.3610    0.5270 ho        1 SRO      0.433000
     15 HH2         1.3830    0.2350    1.9700 ha        1 SRO      0.151000
     16 HZ2         3.8610    0.0070    2.1760 ha        1 SRO      0.152000
     17 HNE1        6.1960   -0.2280    0.5420 hn        1 SRO      0.317700
     18 HD1         6.8120   -0.2440   -1.9160 h4        1 SRO      0.176000
     19 HE3         1.6240    0.2100   -2.3610 ha        1 SRO      0.131000
     20 HB1         3.6970   -0.8190   -4.0110 hc        1 SRO      0.064700
     21 HB2         5.4170   -0.2610   -4.2160 hc        1 SRO      0.064700
     22 HA1         3.0300    1.6350   -3.5500 hx        1 SRO      0.118700
     23 HA2         4.7420    2.1270   -3.9990 hx        1 SRO      0.118700
     24 HNZ1        2.8070    0.7090   -5.7820 hn        1 SRO      0.457800
     25 HNZ2        4.3580    1.1510   -6.1900 hn        1 SRO      0.457800
     26 HZ3         3.2190    2.3240   -5.8550 hn        1 SRO      0.457800
@<TRIPOS>BOND
     1    1    2 1   
     2    1   14 1   
     3    2    3 ar  
     4    2   10 ar  
     5    3    4 ar  
     6    3   15 1   
     7    4    5 ar  
     8    4   16 1   
     9    5    6 1   
    10    5    9 ar  
    11    6    7 1   
    12    6   17 1   
    13    7    8 2   
    14    7   18 1   
    15    8    9 1   
    16    8   11 1   
    17    9   10 ar  
    18   10   19 1   
    19   11   12 1   
    20   11   20 1   
    21   11   21 1   
    22   12   13 1   
    23   12   22 1   
    24   12   23 1   
    25   13   24 1   
    26   13   25 1   
    27   13   26 1   
@<TRIPOS>SUBSTRUCTURE
     1 SRO         1 TEMP              0 ****  ****    0 ROOT
