@<TRIPOS>MOLECULE
SRO
   26    27     1     0     0
SMALL
bcc


@<TRIPOS>ATOM
      1 OH          0.0500    0.3560   -0.3260 oh        1 SRO     -0.497100
      2 CZ3         1.4130    0.2410   -0.1900 ca        1 SRO      0.134100
      3 CH2         2.0380    0.1990    1.0810 ca        1 SRO     -0.183000
      4 CZ2         3.4120    0.0890    1.1910 ca        1 SRO     -0.076000
      5 CE2         4.1660    0.0260    0.0080 ca        1 SRO     -0.083200
      6 NE1         5.5510   -0.0820   -0.1920 na        1 SRO     -0.162400
      7 CD1         5.8000   -0.1110   -1.5530 cc        1 SRO     -0.041100
      8 CG          4.5960   -0.0110   -2.2650 cd        1 SRO     -0.233400
      9 CD2         3.5300    0.0720   -1.2880 ca        1 SRO     -0.048800
     10 CE3         2.1430    0.1750   -1.3780 ca        1 SRO     -0.162000
     11 CB          4.4310   -0.0330   -3.7190 c3        1 SRO     -0.000200
     12 CA          3.9110    1.3360   -4.1730 c3        1 SRO      0.088800
     13 NZ          3.5120    1.3540   -5.6130 nz        1 SRO     -0.838600
     14 HOH        -0.3470    0.3430    0.5590 ho        1 SRO      0.433000
     15 HH2         1.4170    0.2500    1.9880 ha        1 SRO      0.151000
     16 HZ2         3.8980    0.0520    2.1770 ha        1 SRO      0.152000
     17 HNE1        6.2230   -0.1730    0.5260 hn        1 SRO      0.317700
     18 HD1         6.8200   -0.2070   -1.9360 h4        1 SRO      0.176000
     19 HE3         1.6230    0.1860   -2.3440 ha        1 SRO      0.131000
     20 HB1         3.6940   -0.8360   -4.0000 hc        1 SRO      0.064700
     21 HB2         5.4070   -0.2620   -4.2250 hc        1 SRO      0.064700
     22 HA1         3.0040    1.6140   -3.5580 hx        1 SRO      0.118700
     23 HA2         4.7070    2.1210   -4.0260 hx        1 SRO      0.118700
     24 HNZ1        2.7720    0.6640   -5.7790 hn        1 SRO      0.457800
     25 HNZ2        4.3150    1.1180   -6.2040 hn        1 SRO      0.457800
     26 HZ3         3.1670    2.2830   -5.8710 hn        1 SRO      0.457800
@<TRIPOS>BOND
     1    1    2 1   
     2    1   14 1   
     3    2    3 ar  
     4    2   10 ar  
     5    3    4 ar  
     6    3   15 1   
     7    4    5 ar  
     8    4   16 1   
     9    5    6 1   
    10    5    9 ar  
    11    6    7 1   
    12    6   17 1   
    13    7    8 2   
    14    7   18 1   
    15    8    9 1   
    16    8   11 1   
    17    9   10 ar  
    18   10   19 1   
    19   11   12 1   
    20   11   20 1   
    21   11   21 1   
    22   12   13 1   
    23   12   22 1   
    24   12   23 1   
    25   13   24 1   
    26   13   25 1   
    27   13   26 1   
@<TRIPOS>SUBSTRUCTURE
     1 SRO         1 TEMP              0 ****  ****    0 ROOT
