@<TRIPOS>MOLECULE
SRO
   25    20     1     0     0
SMALL
bcc


@<TRIPOS>ATOM
      1 OH         -3.9120   -0.3220    1.6770 oh        1 SRO     -0.257000
      2 CZ3        -2.5060   -0.1950    1.5950 c2        1 SRO      0.055000
      3 CH2        -1.9650   -0.2220    2.8720 c1        1 SRO     -0.134000
      4 CZ2        -0.5770   -0.2310    3.0430 c1        1 SRO     -0.113000
      5 CE2         0.2790   -0.2130    1.9070 c1        1 SRO     -0.033000
      6 NE1         1.6650   -0.2180    1.7760 n1        1 SRO     -0.213000
      7 CD1         1.9660   -0.1950    0.4330 c1        1 SRO     -0.070000
      8 CG          0.7690   -0.1750   -0.2760 c1        1 SRO     -0.156000
      9 CD2        -0.2690   -0.1860    0.6340 c1        1 SRO     -0.039000
     10 CE3        -1.6600   -0.1760    0.4680 c2        1 SRO     -0.174000
     11 CB          0.8140   -0.4910   -1.7890 c2        1 SRO     -0.090000
     12 CA          1.1070    0.7440   -2.5290 c3        1 SRO     -0.079000
     13 NZ          1.4270    0.4320   -3.8640 n3        1 SRO     -0.350000
     14 HOH        -4.3050    0.4740    1.4270 ho        1 SRO      0.216000
     15 HH2        -2.5810   -0.2840    3.6870 ha        1 SRO      0.149000
     16 HZ2        -0.1990   -0.2490    3.9450 ha        1 SRO      0.134000
     17 HNE1        2.2670   -0.2280    2.4580 DU        1 SRO      0.206500
     18 HD1         2.8700   -0.1250    0.0450 DU        1 SRO      0.206500
     19 HE3        -2.0310   -0.2480   -0.4000 ha        1 SRO      0.142000
     20 HB1         1.5100   -1.1450   -1.9610 ha        1 SRO      0.090000
     21 HB2        -0.0910   -0.8660   -2.0910 ha        1 SRO      0.090000
     22 HA1         1.8780    1.2110   -2.1010 h1        1 SRO      0.069000
     23 HA2         0.2820    1.3560   -2.5090 h1        1 SRO      0.069000
     24 HNZ1        2.3380    0.5940   -4.0150 hn        1 SRO      0.142000
     25 HNZ2        0.9230    0.9590   -4.4310 hn        1 SRO      0.142000
@<TRIPOS>BOND
     1    1    2 1   
     2    1   14 1   
     3    2    3 1   
     4    2   10 1   
     5    3   15 1   
     6    4    5 1   
     7    4   16 1   
     8    6    7 1   
     9    7    8 1   
    10    8    9 1   
    11    9   10 1   
    12   10   19 1   
    13   11   12 1   
    14   11   20 1   
    15   11   21 1   
    16   12   13 1   
    17   12   22 1   
    18   12   23 1   
    19   13   24 1   
    20   13   25 1   
@<TRIPOS>SUBSTRUCTURE
     1 SRO         1 TEMP              0 ****  ****    0 ROOT
