@<TRIPOS>MOLECULE
SRO
   25    26     1     0     0
SMALL
bcc


@<TRIPOS>ATOM
      1 OH         -2.5320    2.5040   -0.1610 oh        1 SRO     -0.503100
      2 CZ3        -2.0360    1.2160   -0.0930 ca        1 SRO      0.094100
      3 CH2        -2.8810    0.1110    0.1560 ca        1 SRO     -0.189000
      4 CZ2        -2.3660   -1.1730    0.2210 ca        1 SRO     -0.107000
      5 CE2        -0.9870   -1.3410    0.0340 ca        1 SRO     -0.076200
      6 NE1        -0.1960   -2.4950    0.0440 na        1 SRO     -0.193400
      7 CD1         1.1270   -2.1230   -0.1970 cc        1 SRO     -0.090100
      8 CG          1.2190   -0.7390   -0.3630 cd        1 SRO     -0.147400
      9 CD2        -0.1220   -0.2080   -0.2210 ca        1 SRO     -0.054800
     10 CE3        -0.6600    1.0750   -0.2830 ca        1 SRO     -0.117000
     11 CB          2.4390    0.0260   -0.6490 c3        1 SRO     -0.008200
     12 CA          2.8810    0.8320    0.5780 c3        1 SRO      0.156800
     13 NZ          4.0990    1.5770    0.3580 n3        1 SRO     -0.917800
     14 HOH        -3.4880    2.4600   -0.0190 ho        1 SRO      0.415000
     15 HH2        -3.9590    0.2770    0.2980 ha        1 SRO      0.131000
     16 HZ2        -3.0220   -2.0330    0.4140 ha        1 SRO      0.133000
     17 HNE1       -0.5250   -3.4110    0.1840 hn        1 SRO      0.298700
     18 HD1         1.9190   -2.8740   -0.2350 h4        1 SRO      0.167000
     19 HE3        -0.0280    1.9520   -0.4740 ha        1 SRO      0.151000
     20 HB1         3.2640   -0.6690   -0.9600 hc        1 SRO      0.051200
     21 HB2         2.2450    0.7250   -1.5080 hc        1 SRO      0.051200
     22 HA1         2.0150    1.4930    0.8850 h1        1 SRO      0.030700
     23 HA2         3.0720    0.1200    1.4310 h1        1 SRO      0.030700
     24 HNZ1        4.0290    2.1460   -0.4620 hn        1 SRO      0.346800
     25 HNZ2        4.2930    2.1610    1.1460 hn        1 SRO      0.346800
@<TRIPOS>BOND
     1    1    2 1   
     2    1   14 1   
     3    2    3 ar  
     4    2   10 ar  
     5    3    4 ar  
     6    3   15 1   
     7    4    5 ar  
     8    4   16 1   
     9    5    6 1   
    10    5    9 ar  
    11    6    7 1   
    12    6   17 1   
    13    7    8 2   
    14    7   18 1   
    15    8    9 1   
    16    8   11 1   
    17    9   10 ar  
    18   10   19 1   
    19   11   12 1   
    20   11   20 1   
    21   11   21 1   
    22   12   13 1   
    23   12   22 1   
    24   12   23 1   
    25   13   24 1   
    26   13   25 1   
@<TRIPOS>SUBSTRUCTURE
     1 SRO         1 TEMP              0 ****  ****    0 ROOT
