@<TRIPOS>MOLECULE
SRO
   26    27     1     0     0
SMALL
bcc


@<TRIPOS>ATOM
      1 OH          0.0410    0.3670   -0.3440 oh        1 SRO     -0.497100
      2 CZ3         1.4030    0.2470   -0.2010 ca        1 SRO      0.134100
      3 CH2         2.0210    0.2030    1.0730 ca        1 SRO     -0.183000
      4 CZ2         3.3950    0.0900    1.1900 ca        1 SRO     -0.076000
      5 CE2         4.1540    0.0240    0.0110 ca        1 SRO     -0.083200
      6 NE1         5.5400   -0.0880   -0.1810 na        1 SRO     -0.162400
      7 CD1         5.7960   -0.1180   -1.5410 cc        1 SRO     -0.041100
      8 CG          4.5960   -0.0150   -2.2590 cd        1 SRO     -0.233400
      9 CD2         3.5260    0.0720   -1.2880 ca        1 SRO     -0.048800
     10 CE3         2.1390    0.1800   -1.3850 ca        1 SRO     -0.162000
     11 CB          4.4390   -0.0350   -3.7140 c3        1 SRO     -0.000200
     12 CA          3.9260    1.3350   -4.1710 c3        1 SRO      0.088800
     13 NZ          3.5340    1.3540   -5.6130 n4        1 SRO     -0.838600
     14 HOH        -0.3600    0.3550    0.5380 ho        1 SRO      0.433000
     15 HH2         1.3950    0.2570    1.9770 ha        1 SRO      0.151000
     16 HZ2         3.8750    0.0500    2.1790 ha        1 SRO      0.152000
     17 HNE1        6.2080   -0.1810    0.5400 hn        1 SRO      0.317700
     18 HD1         6.8180   -0.2170   -1.9190 h4        1 SRO      0.176000
     19 HE3         1.6250    0.1920   -2.3540 ha        1 SRO      0.131000
     20 HB1         3.7010   -0.8370   -3.9990 hc        1 SRO      0.064700
     21 HB2         5.4170   -0.2670   -4.2150 hc        1 SRO      0.064700
     22 HA1         4.7230    2.1170   -4.0190 hx        1 SRO      0.118700
     23 HA2         3.0160    1.6160   -3.5600 hx        1 SRO      0.118700
     24 HNZ1        4.3400    1.1160   -6.2000 hn        1 SRO      0.457800
     25 HNZ2        2.7940    0.6660   -5.7830 hn        1 SRO      0.457800
     26 HZ3         3.1930    2.2840   -5.8730 hn        1 SRO      0.457800
@<TRIPOS>BOND
     1    1    2 1   
     2    1   14 1   
     3    2    3 ar  
     4    2   10 ar  
     5    3    4 ar  
     6    3   15 1   
     7    4    5 ar  
     8    4   16 1   
     9    5    6 1   
    10    5    9 ar  
    11    6    7 1   
    12    6   17 1   
    13    7    8 2   
    14    7   18 1   
    15    8    9 1   
    16    8   11 1   
    17    9   10 ar  
    18   10   19 1   
    19   11   12 1   
    20   11   20 1   
    21   11   21 1   
    22   12   13 1   
    23   12   22 1   
    24   12   23 1   
    25   13   24 1   
    26   13   25 1   
    27   13   26 1   
@<TRIPOS>SUBSTRUCTURE
     1 SRO         1 TEMP              0 ****  ****    0 ROOT
