@<TRIPOS>MOLECULE
SRP
   49    51     1     0     0
SMALL
bcc


@<TRIPOS>ATOM
      1 PA          0.7410   -0.7840   -0.6930 p5        1 SRP      1.537800
      2 O1A         1.6700   -1.9010   -0.8840 o         1 SRP     -0.837000
      3 O2A         0.6840    0.2520    0.3560 o         1 SRP     -0.837000
      4 O3A         0.7980    0.2670   -2.0210 os        1 SRP     -0.566500
      5 O5'        -0.7460   -1.3700   -0.9800 os        1 SRP     -0.575200
      6 C5'        -0.8630   -2.3960   -1.9270 c3        1 SRP      0.176400
      7 C4'        -1.2440   -3.7350   -1.2770 c3        1 SRP      0.108100
      8 O4'        -0.9740   -4.7810   -2.2280 os        1 SRP     -0.404600
      9 C3'        -0.4640   -4.0610    0.0080 c3        1 SRP      0.092100
     10 O3'        -1.3990   -4.4660    0.9870 oh        1 SRP     -0.585800
     11 C2'         0.4750   -5.2370   -0.3450 c3        1 SRP      0.091100
     12 O2'         0.2470   -6.3730    0.4450 oh        1 SRP     -0.575800
     13 C1'         0.1560   -5.5610   -1.8410 c3        1 SRP      0.208800
     14 N9          1.2780   -5.3320   -2.7420 na        1 SRP     -0.266000
     15 C8          2.2540   -4.3100   -2.7110 cc        1 SRP      0.521700
     16 N7          3.1310   -4.3570   -3.7370 nd        1 SRP     -0.610100
     17 C5          2.7240   -5.4440   -4.5100 ca        1 SRP     -0.123200
     18 C6          3.1930   -6.0370   -5.6920 ca        1 SRP      0.494200
     19 N6          4.3830   -5.4550   -6.3380 n4        1 SRP     -0.811300
     20 N1          2.5900   -7.1220   -6.2470 nb        1 SRP     -0.686000
     21 C2          1.5030   -7.6120   -5.5920 ca        1 SRP      0.661900
     22 N3          0.9240   -7.1670   -4.4420 nb        1 SRP     -0.617000
     23 C4          1.5290   -6.0840   -3.9020 ca        1 SRP      0.460800
     24 O           2.1560    1.9750   -2.4170 o         1 SRP     -0.498000
     25 C           1.0860    1.5580   -1.9740 c         1 SRP      0.715100
     26 CA          0.0040    2.5340   -1.4580 c3        1 SRP      0.028500
     27 N           0.2910    2.9140   -0.0430 n4        1 SRP     -0.836600
     28 CB         -0.0320    3.7600   -2.3900 c3        1 SRP      0.110400
     29 OG         -0.9070    4.7010   -1.7930 oh        1 SRP     -0.632800
     30 H5'1       -1.6860   -2.1070   -2.6390 h1        1 SRP      0.052200
     31 H5'2        0.1030   -2.5120   -2.4940 h1        1 SRP      0.052200
     32 H4'        -2.3530   -3.7820   -1.0910 h1        1 SRP      0.114700
     33 H3'         0.1310   -3.1690    0.3480 h1        1 SRP      0.081700
     34 H2         -0.9360   -4.4690    1.8360 ho        1 SRP      0.424000
     35 H2'         1.5520   -4.9690   -0.1730 h1        1 SRP      0.113700
     36 H1         -0.7120   -6.5020    0.5250 ho        1 SRP      0.429000
     37 H1'        -0.1610   -6.6410   -1.9690 h2        1 SRP      0.128700
     38 H8          2.2860   -3.5410   -1.8990 h5        1 SRP      0.176800
     39 HN61        4.2210   -4.4480   -6.4680 hn        1 SRP      0.474133
     40 HN62        5.1880   -5.5870   -5.7140 hn        1 SRP      0.474133
     41 H3          1.0230   -8.5010   -6.0630 h5        1 SRP      0.094100
     42 HA         -1.0110    2.0340   -1.4690 hx        1 SRP      0.132700
     43 HN1         0.1820    2.0740    0.5710 hn        1 SRP      0.478133
     44 HN2         1.2530    3.2520    0.0330 hn        1 SRP      0.478133
     45 HB1        -0.4050    3.4250   -3.3930 h1        1 SRP      0.077200
     46 HB2         0.9940    4.2070   -2.5000 h1        1 SRP      0.077200
     47 HOG        -1.1750    5.3260   -2.4790 ho        1 SRP      0.445000
     48 H63         4.5700   -5.8990   -7.2450 hn        1 SRP      0.474133
     49 HN3        -0.3550    3.6550    0.2390 hn        1 SRP      0.478133
@<TRIPOS>BOND
     1    1    2 1   
     2    1    3 1   
     3    1    4 1   
     4    1    5 1   
     5    4   25 1   
     6    5    6 1   
     7    6    7 1   
     8    6   30 1   
     9    6   31 1   
    10    7    8 1   
    11    7    9 1   
    12    7   32 1   
    13    8   13 1   
    14    9   10 1   
    15    9   11 1   
    16    9   33 1   
    17   10   34 1   
    18   11   12 1   
    19   11   13 1   
    20   11   35 1   
    21   12   36 1   
    22   13   14 1   
    23   13   37 1   
    24   14   15 1   
    25   14   23 1   
    26   15   16 2   
    27   15   38 1   
    28   16   17 1   
    29   17   18 ar  
    30   17   23 ar  
    31   18   19 1   
    32   18   20 ar  
    33   19   39 1   
    34   19   40 1   
    35   19   48 1   
    36   20   21 ar  
    37   21   22 ar  
    38   21   41 1   
    39   22   23 ar  
    40   24   25 2   
    41   25   26 1   
    42   26   27 1   
    43   26   28 1   
    44   26   42 1   
    45   27   43 1   
    46   27   44 1   
    47   27   49 1   
    48   28   29 1   
    49   28   45 1   
    50   28   46 1   
    51   29   47 1   
@<TRIPOS>SUBSTRUCTURE
     1 SRP         1 TEMP              0 ****  ****    0 ROOT
