@<TRIPOS>MOLECULE
SRP
   48    50     1     0     0
SMALL
bcc


@<TRIPOS>ATOM
      1 PA         -0.2830    0.2620    1.0520 p5        1 SRP      1.707500
      2 O1A         0.9780   -0.5200    0.5140 oh        1 SRP     -0.763400
      3 O2A        -0.1810    1.1990    2.1520 o         1 SRP     -0.789300
      4 O3A        -1.3640   -0.9100    1.2320 os        1 SRP     -0.636500
      5 O5'        -0.7750    0.9590   -0.3050 os        1 SRP     -0.601200
      6 C5'        -1.5320    2.1450   -0.2140 c3        1 SRP      0.163400
      7 C4'        -0.7500    3.3160   -0.8210 c3        1 SRP      0.075100
      8 O4'        -1.6850    4.2510   -1.3680 os        1 SRP     -0.405600
      9 C3'         0.1390    4.0740    0.1840 c3        1 SRP      0.072100
     10 O3'         1.4620    4.2090   -0.2830 oh        1 SRP     -0.583800
     11 C2'        -0.5270    5.4600    0.3580 c3        1 SRP      0.077100
     12 O2'         0.2930    6.4850   -0.1690 oh        1 SRP     -0.588800
     13 C1'        -1.7990    5.4250   -0.5450 c3        1 SRP      0.248800
     14 N9         -3.0290    5.4280    0.2030 na        1 SRP     -0.288000
     15 C8         -3.3380    4.7180    1.3960 cc        1 SRP      0.396700
     16 N7         -4.6220    4.8100    1.7610 nd        1 SRP     -0.534100
     17 C5         -5.2310    5.5930    0.7660 ca        1 SRP     -0.239200
     18 C6         -6.5780    6.0520    0.5780 ca        1 SRP      0.763200
     19 N6         -7.5590    5.6980    1.4660 nv        1 SRP     -0.957500
     20 N1         -6.8630    6.8330   -0.5200 nb        1 SRP     -0.794000
     21 C2         -5.8420    7.1160   -1.3710 ca        1 SRP      0.689900
     22 N3         -4.5370    6.7530   -1.3250 nb        1 SRP     -0.732000
     23 C4         -4.2460    5.9820   -0.2360 ca        1 SRP      0.476800
     24 O          -1.2030   -3.0130    1.8580 o         1 SRP     -0.467000
     25 C          -1.3550   -2.2340    0.9250 c         1 SRP      0.726100
     26 CA         -1.6830   -2.5950   -0.5210 c3        1 SRP      0.051500
     27 N          -0.4940   -2.4960   -1.3440 n8        1 SRP     -0.910800
     28 CB         -2.3730   -3.9780   -0.5210 c3        1 SRP      0.095400
     29 OG         -2.6530   -4.3780   -1.8450 oh        1 SRP     -0.592800
     30 H5'1       -1.7970    2.3450    0.8600 h1        1 SRP      0.067200
     31 H5'2       -2.4680    1.9910   -0.8230 h1        1 SRP      0.067200
     32 H4'        -0.1470    2.9470   -1.6970 h1        1 SRP      0.100700
     33 H3'         0.2370    3.5410    1.1700 h1        1 SRP      0.126700
     34 H2          1.4290    4.6830   -1.1270 ho        1 SRP      0.417000
     35 H2'        -0.7580    5.6690    1.4350 h1        1 SRP      0.074700
     36 H1          1.1110    6.4780    0.3480 ho        1 SRP      0.426000
     37 H1'        -1.8160    6.2920   -1.2740 h2        1 SRP      0.144700
     38 H8         -2.5620    4.1800    1.9550 h5        1 SRP      0.076800
     39 HN61       -8.4720    6.0720    1.3820 hn        1 SRP      0.448300
     40 HN62       -7.3040    5.2100    2.2870 hn        1 SRP      0.448300
     41 H3         -6.1270    7.7460   -2.2420 h5        1 SRP      0.053100
     42 HA         -2.4260   -1.8300   -0.9040 h1        1 SRP      0.090700
     43 HN1         0.1570   -3.2220   -1.1060 hn        1 SRP      0.370800
     44 HN2         1.0590   -0.6470   -0.4330 ho        1 SRP      0.507000
     45 HB1        -1.6850   -4.7660   -0.1130 h1        1 SRP      0.072700
     46 HB2        -3.3020   -3.9350    0.1040 h1        1 SRP      0.072700
     47 HOG        -3.4060   -3.8590   -2.1530 ho        1 SRP      0.404000
     48 HN3        -0.7500   -2.5960   -2.3080 hn        1 SRP      0.370800
@<TRIPOS>BOND
     1    1    2 1   
     2    1    3 2   
     3    1    4 1   
     4    1    5 1   
     5    2   44 1   
     6    4   25 1   
     7    5    6 1   
     8    6    7 1   
     9    6   30 1   
    10    6   31 1   
    11    7    8 1   
    12    7    9 1   
    13    7   32 1   
    14    8   13 1   
    15    9   10 1   
    16    9   11 1   
    17    9   33 1   
    18   10   34 1   
    19   11   12 1   
    20   11   13 1   
    21   11   35 1   
    22   12   36 1   
    23   13   14 1   
    24   13   37 1   
    25   14   15 1   
    26   14   23 1   
    27   15   16 2   
    28   15   38 1   
    29   16   17 1   
    30   17   18 ar  
    31   17   23 ar  
    32   18   19 1   
    33   18   20 ar  
    34   19   39 1   
    35   19   40 1   
    36   20   21 ar  
    37   21   22 ar  
    38   21   41 1   
    39   22   23 ar  
    40   24   25 2   
    41   25   26 1   
    42   26   27 1   
    43   26   28 1   
    44   26   42 1   
    45   27   43 1   
    46   27   48 1   
    47   28   29 1   
    48   28   45 1   
    49   28   46 1   
    50   29   47 1   
@<TRIPOS>SUBSTRUCTURE
     1 SRP         1 TEMP              0 ****  ****    0 ROOT
