@<TRIPOS>MOLECULE
SRP
   47    49     1     0     0
SMALL
bcc


@<TRIPOS>ATOM
      1 PA          2.4560   -0.6110    2.2560 p5        1 SRP      1.435800
      2 O1A         2.6390   -2.0150    2.6260 o         1 SRP     -0.790500
      3 O2A         2.6270    0.6420    3.0050 o         1 SRP     -0.790500
      4 O3A         3.1730   -0.3310    0.7290 os        1 SRP     -0.532500
      5 O5'         0.9350   -0.5160    1.5930 os        1 SRP     -0.559200
      6 C5'         0.5030    0.7390    1.1870 c3        1 SRP      0.167400
      7 C4'         0.3920    0.8180   -0.3430 c3        1 SRP      0.102100
      8 O4'        -0.3730   -0.2790   -0.8770 os        1 SRP     -0.375600
      9 C3'        -0.3530    2.1050   -0.7540 c3        1 SRP      0.124100
     10 O3'         0.2250    2.5780   -1.9540 oh        1 SRP     -0.588800
     11 C2'        -1.8230    1.6490   -0.9080 c3        1 SRP      0.074100
     12 O2'        -2.3600    2.2040   -2.0890 oh        1 SRP     -0.605800
     13 C1'        -1.7410    0.0870   -1.0090 c3        1 SRP      0.225800
     14 N9         -2.5490   -0.5990   -0.0220 na        1 SRP     -0.288000
     15 C8         -2.1230   -1.3960    1.0710 cc        1 SRP      0.459700
     16 N7         -3.1410   -1.9580    1.7410 nd        1 SRP     -0.572100
     17 C5         -4.3030   -1.5310    1.0790 ca        1 SRP     -0.210200
     18 C6         -5.6970   -1.7760    1.2980 ca        1 SRP      0.736200
     19 N6         -6.1050   -2.5160    2.3880 nh        1 SRP     -0.950500
     20 N1         -6.6140   -1.2210    0.4360 nb        1 SRP     -0.801000
     21 C2         -6.1360   -0.4340   -0.5660 ca        1 SRP      0.667900
     22 N3         -4.8650   -0.1010   -0.8850 nb        1 SRP     -0.751000
     23 C4         -3.9470   -0.6710   -0.0440 ca        1 SRP      0.430800
     24 O           5.0160   -0.5860    1.8510 o         1 SRP     -0.594000
     25 C           4.4980   -0.3740    0.7420 c         1 SRP      0.639100
     26 CA          5.2240   -0.1350   -0.5730 c3        1 SRP      0.074500
     27 N           6.6670   -0.2310   -0.4850 n3        1 SRP     -0.897800
     28 CB          4.6010   -1.0660   -1.6320 c3        1 SRP      0.130400
     29 OG          5.2200   -0.9510   -2.8970 oh        1 SRP     -0.604800
     30 H5'1       -0.5210    0.9130    1.6280 h1        1 SRP      0.042200
     31 H5'2        1.2090    1.5400    1.5460 h1        1 SRP      0.042200
     32 H4'         1.3980    0.7170   -0.8340 h1        1 SRP      0.119700
     33 H3'        -0.2730    2.9030    0.0320 h1        1 SRP      0.059700
     34 H2         -0.4270    3.1440   -2.3870 ho        1 SRP      0.416000
     35 H2'        -2.4280    1.9800   -0.0220 h1        1 SRP      0.064700
     36 H1         -3.2630    1.8660   -2.1690 ho        1 SRP      0.430000
     37 H1'        -2.0660   -0.2630   -2.0350 h2        1 SRP      0.093700
     38 H8         -1.0390   -1.4930    1.3020 h5        1 SRP      0.144800
     39 HN61       -5.4080   -3.0400    2.8610 hn        1 SRP      0.433800
     40 HN62       -7.0400   -2.8380    2.4290 hn        1 SRP      0.433800
     41 H3         -6.9190   -0.0030   -1.2240 h5        1 SRP      0.038100
     42 HA          4.9920    0.9360   -0.8660 h1        1 SRP      0.078700
     43 HN1         6.9730    0.0930    0.4140 hn        1 SRP      0.358300
     44 HN2         6.9580   -1.1840   -0.5970 hn        1 SRP      0.358300
     45 HB1         4.7270   -2.1450   -1.3470 h1        1 SRP      0.067200
     46 HB2         3.5060   -0.8230   -1.7100 h1        1 SRP      0.067200
     47 HOG         5.3150   -0.0110   -3.0860 ho        1 SRP      0.400000
@<TRIPOS>BOND
     1    1    2 1   
     2    1    3 1   
     3    1    4 1   
     4    1    5 1   
     5    4   25 1   
     6    5    6 1   
     7    6    7 1   
     8    6   30 1   
     9    6   31 1   
    10    7    8 1   
    11    7    9 1   
    12    7   32 1   
    13    8   13 1   
    14    9   10 1   
    15    9   11 1   
    16    9   33 1   
    17   10   34 1   
    18   11   12 1   
    19   11   13 1   
    20   11   35 1   
    21   12   36 1   
    22   13   14 1   
    23   13   37 1   
    24   14   15 1   
    25   14   23 1   
    26   15   16 2   
    27   15   38 1   
    28   16   17 1   
    29   17   18 ar  
    30   17   23 ar  
    31   18   19 1   
    32   18   20 ar  
    33   19   39 1   
    34   19   40 1   
    35   20   21 ar  
    36   21   22 ar  
    37   21   41 1   
    38   22   23 ar  
    39   24   25 2   
    40   25   26 1   
    41   26   27 1   
    42   26   28 1   
    43   26   42 1   
    44   27   43 1   
    45   27   44 1   
    46   28   29 1   
    47   28   45 1   
    48   28   46 1   
    49   29   47 1   
@<TRIPOS>SUBSTRUCTURE
     1 SRP         1 TEMP              0 ****  ****    0 ROOT
