@<TRIPOS>MOLECULE
SRP
   48    50     1     0     0
SMALL
bcc


@<TRIPOS>ATOM
      1 PA         -0.9260    0.6390    0.9210 p5        1 SRP      1.713500
      2 O1A         0.4580   -0.1140    1.0050 oh        1 SRP     -0.765400
      3 O2A        -1.2210    1.7470    1.8100 o         1 SRP     -0.802300
      4 O3A        -1.9830   -0.5650    0.9160 os        1 SRP     -0.638500
      5 O5'        -0.9050    1.0910   -0.6170 os        1 SRP     -0.600200
      6 C5'        -1.6920    2.1990   -0.9940 c3        1 SRP      0.162400
      7 C4'        -0.8230    3.4170   -1.3340 c3        1 SRP      0.077100
      8 O4'        -1.6960    4.5130   -1.6170 os        1 SRP     -0.405600
      9 C3'         0.1230    3.8540   -0.1990 c3        1 SRP      0.081100
     10 O3'         1.4570    3.9820   -0.6300 oh        1 SRP     -0.586800
     11 C2'        -0.4350    5.2030    0.3110 c3        1 SRP      0.081100
     12 O2'         0.4440    6.2630   -0.0120 oh        1 SRP     -0.590800
     13 C1'        -1.7300    5.4500   -0.5220 c3        1 SRP      0.251800
     14 N9         -2.9370    5.3240    0.2520 na        1 SRP     -0.295000
     15 C8         -3.2390    4.3970    1.2920 cc        1 SRP      0.399700
     16 N7         -4.5070    4.4630    1.7120 nd        1 SRP     -0.539100
     17 C5         -5.1110    5.4530    0.9190 ca        1 SRP     -0.236200
     18 C6         -6.4410    5.9890    0.8790 ca        1 SRP      0.757200
     19 N6         -7.4150    5.4860    1.7030 nh        1 SRP     -0.956500
     20 N1         -6.7230    6.9900   -0.0230 nb        1 SRP     -0.794000
     21 C2         -5.7160    7.4040   -0.8360 ca        1 SRP      0.685900
     22 N3         -4.4290    6.9910   -0.9150 nb        1 SRP     -0.732000
     23 C4         -4.1400    6.0020   -0.0190 ca        1 SRP      0.470800
     24 O          -2.0340   -2.5000    1.9630 o         1 SRP     -0.464000
     25 C          -1.8490   -1.9180    0.9020 c         1 SRP      0.727100
     26 CA         -1.6340   -2.5560   -0.4680 c3        1 SRP      0.052500
     27 N          -0.2370   -2.4730   -0.8460 n3        1 SRP     -0.910800
     28 CB         -2.2220   -3.9850   -0.4240 c3        1 SRP      0.095400
     29 OG         -2.0090   -4.6320   -1.6590 oh        1 SRP     -0.592800
     30 H5'1       -2.4110    2.4540   -0.1660 h1        1 SRP      0.067700
     31 H5'2       -2.2630    1.9010   -1.9170 h1        1 SRP      0.067700
     32 H4'        -0.2510    3.2260   -2.2830 h1        1 SRP      0.095700
     33 H3'         0.1510    3.0860    0.6260 h1        1 SRP      0.103700
     34 H2          1.4760    4.6540   -1.3280 ho        1 SRP      0.419000
     35 H2'        -0.6210    5.1740    1.4170 h1        1 SRP      0.084700
     36 H1          1.2490    6.1210    0.5060 ho        1 SRP      0.424000
     37 H1'        -1.7200    6.4680   -1.0180 h2        1 SRP      0.142700
     38 H8         -2.4710    3.7200    1.7090 h5        1 SRP      0.111800
     39 HN61       -7.1460    4.8540    2.4170 hn        1 SRP      0.445800
     40 HN62       -8.3010    5.9220    1.7510 hn        1 SRP      0.445800
     41 H3         -5.9980    8.2110   -1.5480 h5        1 SRP      0.051100
     42 HA         -2.2270   -1.9520   -1.2200 h1        1 SRP      0.090700
     43 HN1        -0.1360   -2.7560   -1.8030 hn        1 SRP      0.371300
     44 HN2         0.8850   -0.3680    0.1860 ho        1 SRP      0.509000
     45 HB1        -3.3110   -3.9360   -0.1640 h1        1 SRP      0.073200
     46 HB2        -1.6850   -4.6140    0.3360 h1        1 SRP      0.073200
     47 HOG        -2.6370   -4.2640   -2.2940 ho        1 SRP      0.404000
     48 HN3         0.3180   -3.0790   -0.2710 hn        1 SRP      0.371300
@<TRIPOS>BOND
     1    1    2 1   
     2    1    3 2   
     3    1    4 1   
     4    1    5 1   
     5    2   44 1   
     6    4   25 1   
     7    5    6 1   
     8    6    7 1   
     9    6   30 1   
    10    6   31 1   
    11    7    8 1   
    12    7    9 1   
    13    7   32 1   
    14    8   13 1   
    15    9   10 1   
    16    9   11 1   
    17    9   33 1   
    18   10   34 1   
    19   11   12 1   
    20   11   13 1   
    21   11   35 1   
    22   12   36 1   
    23   13   14 1   
    24   13   37 1   
    25   14   15 1   
    26   14   23 1   
    27   15   16 2   
    28   15   38 1   
    29   16   17 1   
    30   17   18 ar  
    31   17   23 ar  
    32   18   19 1   
    33   18   20 ar  
    34   19   39 1   
    35   19   40 1   
    36   20   21 ar  
    37   21   22 ar  
    38   21   41 1   
    39   22   23 ar  
    40   24   25 2   
    41   25   26 1   
    42   26   27 1   
    43   26   28 1   
    44   26   42 1   
    45   27   43 1   
    46   27   48 1   
    47   28   29 1   
    48   28   45 1   
    49   28   46 1   
    50   29   47 1   
@<TRIPOS>SUBSTRUCTURE
     1 SRP         1 TEMP              0 ****  ****    0 ROOT
