@<TRIPOS>MOLECULE
SRR
   51    43     1     0     0
SMALL
bcc


@<TRIPOS>ATOM
      1 CAA        -7.2600   -2.1910    0.5850 c3        1 SRR     -0.218000
      2 CAB        -0.6800    2.4630   -2.1940 c3        1 SRR     -0.206000
      3 OAC         6.4630    0.9500   -2.2850 oh        1 SRR     -0.251500
      4 OAD         3.7890   -0.4480    4.5650 oh        1 SRR     -0.251500
      5 CAE         4.4070   -0.2540   -2.1760 c1        1 SRR     -0.141667
      6 CAF         4.5310    1.9930   -1.3610 c1        1 SRR     -0.158000
      7 CAG         2.8250   -1.6630    2.5130 c1        1 SRR     -0.141667
      8 CAH         2.2990    0.5710    3.2600 c1        1 SRR     -0.158000
      9 CAI        -3.5910    0.5280    0.5120 c1        1 SRR     -0.141667
     10 CAJ        -2.9960   -1.5260   -0.6230 c1        1 SRR     -0.204000
     11 CAK         3.1060   -0.3600   -1.6880 c1        1 SRR     -0.141667
     12 CAL         3.2360    1.8870   -0.8750 c1        1 SRR     -0.081000
     13 CAM         2.0510   -1.4540    1.3610 c1        1 SRR     -0.141667
     14 CAN         1.5320    0.7780    2.1190 c1        1 SRR     -0.078000
     15 CAO        -2.2460    0.9010    0.5470 c1        1 SRR     -0.141667
     16 CAP        -1.6540   -1.1560   -0.5890 c1        1 SRR     -0.078000
     17 CAQ        -5.9050   -1.6650    0.9330 c3        1 SRR     -0.022000
     18 CAR        -0.1260    1.0260   -2.2550 c3        1 SRR     -0.128000
     19 OAS        -5.3280   -1.0040   -0.2220 os        1 SRR     -0.215000
     20 CAT         0.0100    0.4640   -0.8150 c2        1 SRR     -0.043000
     21 CAU         1.2710    0.3130   -0.2440 c1        1 SRR     -0.027000
     22 CAV         5.1130    0.9230   -2.0100 c1        1 SRR      0.079000
     23 CAW         2.9480   -0.6570    3.4570 c1        1 SRR      0.079000
     24 CAX        -3.9660   -0.6880   -0.0750 c1        1 SRR      0.085000
     25 CAY        -1.2770    0.0630   -0.0010 c1        1 SRR     -0.078000
     26 CAZ         2.5250    0.7060   -1.0410 c1        1 SRR     -0.071000
     27 CBA         1.4080   -0.2380    1.1670 c1        1 SRR     -0.072000
     28 HAA        -7.1840   -2.8260   -0.1590 hc        1 SRR      0.088333
     29 HAAA       -7.6460   -2.6480    1.3700 hc        1 SRR      0.088333
     30 HAAB       -7.8300   -1.4620    0.3260 hc        1 SRR      0.088333
     31 HAB        -0.3510    2.9060   -1.3850 hc        1 SRR      0.075667
     32 HABA       -0.3900    2.9460   -2.9600 hc        1 SRR      0.075667
     33 HABB       -1.6720    2.4350   -2.1760 hc        1 SRR      0.075667
     34 HOAC        6.5870    1.2170   -3.1050 ho        1 SRR      0.217000
     35 HOAD        3.7780   -1.1680    5.0850 ho        1 SRR      0.217000
     36 HAE         4.8140   -0.9990   -2.6290 ha        1 SRR      0.137167
     37 HAF         5.0370    2.8340   -1.2420 ha        1 SRR      0.151000
     38 HAG         3.2820   -2.5300    2.6520 ha        1 SRR      0.137167
     39 HAH         2.3880    1.2870    3.9300 ha        1 SRR      0.151000
     40 HAI        -4.2880    1.1300    0.9060 ha        1 SRR      0.137167
     41 HAJ        -3.2530   -2.3590   -1.0250 ha        1 SRR      0.137000
     42 HAK         2.5900   -1.2200   -1.8100 ha        1 SRR      0.137167
     43 HAL         2.8220    2.6480   -0.4130 ha        1 SRR      0.141000
     44 HAM         1.9630   -2.1710    0.6890 ha        1 SRR      0.137167
     45 HAN         1.0810    1.6330    1.9820 ha        1 SRR      0.143000
     46 HAO        -1.9750    1.7820    0.9720 ha        1 SRR      0.137167
     47 HAP        -0.9740   -1.7450   -0.9750 ha        1 SRR      0.136000
     48 HAQ        -5.3220   -2.4140    1.2080 h1        1 SRR      0.077500
     49 HAQA       -5.9830   -1.0250    1.6680 h1        1 SRR      0.077500
     50 HAR        -0.7430    0.4560   -2.7760 hc        1 SRR      0.091000
     51 HARA        0.7850    1.0340   -2.7010 hc        1 SRR      0.091000
@<TRIPOS>BOND
     1    1   17 1   
     2    1   28 1   
     3    1   29 1   
     4    1   30 1   
     5    2   18 1   
     6    2   31 1   
     7    2   32 1   
     8    2   33 1   
     9    3   22 1   
    10    3   34 1   
    11    4   23 1   
    12    4   35 1   
    13    5   11 1   
    14    5   36 1   
    15    6   22 1   
    16    6   37 1   
    17    7   13 1   
    18    7   38 1   
    19    8   23 1   
    20    8   39 1   
    21    9   15 1   
    22    9   40 1   
    23   10   24 1   
    24   10   41 1   
    25   11   42 1   
    26   12   26 1   
    27   12   43 1   
    28   13   44 1   
    29   14   27 1   
    30   14   45 1   
    31   15   46 1   
    32   16   25 1   
    33   16   47 1   
    34   17   19 1   
    35   17   48 1   
    36   17   49 1   
    37   18   20 1   
    38   18   50 1   
    39   18   51 1   
    40   19   24 1   
    41   20   21 1   
    42   20   25 1   
    43   21   27 1   
@<TRIPOS>SUBSTRUCTURE
     1 SRR         1 TEMP              0 ****  ****    0 ROOT
