@<TRIPOS>MOLECULE
SRR
   51    59     1     0     0
SMALL
bcc


@<TRIPOS>ATOM
      1 CAA         0.0000    0.0000    0.0000 c3        1 SRR     -0.330000
      2 CAB         7.4240    0.9170    5.3980 c3        1 SRR     -0.167000
      3 OAD        13.5020   -0.5640    1.3960 oh        1 SRR     -0.270000
      4 CAE         7.1600   -3.8560    0.1550 c2        1 SRR     -0.302000
      5 CAF         5.8920   -4.2970    2.1530 c2        1 SRR     -0.065000
      6 CAG        11.8460   -1.2550    2.9560 c2        1 SRR     -0.233500
      7 CAH        11.2070   -0.3870    0.8030 c2        1 SRR     -0.233500
      8 CAI         3.4550   -0.0030    3.3210 c2        1 SRR     -0.073000
      9 CAJ         4.0980   -0.0030    0.9990 c2        1 SRR     -0.446000
     10 CAK         7.7220   -2.7470    0.7510 c3        1 SRR     -0.094000
     11 CAL         6.4490   -3.1890    2.7560 c2        1 SRR     -0.251000
     12 CAM        10.5180   -1.4290    3.2850 c2        1 SRR     -0.213500
     13 CAN         9.8760   -0.5570    1.1240 c2        1 SRR     -0.213500
     14 CAO         4.7800   -0.0040    3.6940 c3        1 SRR      0.118000
     15 CAP         5.4270   -0.0040    1.3610 c2        1 SRR     -0.202000
     16 CAQ         1.5300    0.0000    0.0000 DU        1 SRR      0.055000
     17 CAR         7.7510    1.1370    3.9200 c3        1 SRR     -0.177000
     18 OAS         2.0070    0.0000    1.3470 os        1 SRR     -0.292000
     19 CAT         7.1970   -0.0050    3.1080 c3        1 SRR     -0.088000
     20 CAU         7.9830   -1.0700    2.8110 c2        1 SRR      0.035000
     21 CAV         6.2460   -4.6330    0.8520 c2        1 SRR      0.587000
     22 CAW        12.1930   -0.7340    1.7160 c3        1 SRR      0.383000
     23 CAX         3.1090   -0.0020    1.9750 c2        1 SRR      0.661000
     24 CAY         5.7800   -0.0050    2.7160 c3        1 SRR     -0.032000
     25 CAZ         7.3680   -2.4060    2.0570 c2        1 SRR     -0.099000
     26 CBA         9.5230   -1.0800    2.3690 c2        1 SRR      0.004000
     27 HAA         0.8520   -0.6640    0.0800 DU        1 SRR      0.213000
     28 HAAA       -0.3610   -0.9120    0.4600 hc        1 SRR      0.076000
     29 HAAB       -0.3610    0.0580   -1.0200 hc        1 SRR      0.076000
     30 HAB         6.5300    0.9370    4.7860 hc        1 SRR      0.072000
     31 HABA        7.3060   -0.1430    5.5890 hc        1 SRR      0.072000
     32 HABB        6.5030    1.4330    5.6450 hc        1 SRR      0.072000
     33 HOAC        5.9640   -5.0260    0.8320 ho        1 SRR      0.333000
     34 HOAD       12.8800   -1.2340    1.6260 DU        1 SRR      0.302000
     35 HAE         7.9880   -3.4300    0.7090 DU        1 SRR      0.178000
     36 HAF         6.3850   -4.2420    1.1890 ha        1 SRR     -0.470000
     37 HAG        10.9720   -1.7660    3.3410 ha        1 SRR      0.050000
     38 HAH        11.6590   -0.7510    1.7180 ha        1 SRR      0.050000
     39 HAI         4.5250    0.0790    3.1750 DU        1 SRR     -0.293000
     40 HAJ         3.6440   -0.0030    1.9830 ha        1 SRR     -0.138000
     41 HAK         6.8500   -2.1360    0.5520 hc        1 SRR      0.243000
     42 HAL         7.0820   -2.8550    1.9430 ha        1 SRR      0.225000
     43 HAM         9.5770   -1.6600    3.7700 ha        1 SRR      0.180500
     44 HAN         9.9940   -0.9640    2.1210 ha        1 SRR      0.180500
     45 HAO         5.7800    0.1130    3.2920 DU        1 SRR      0.282000
     46 HAP         5.3070   -0.0040    2.4380 ha        1 SRR      0.018000
     47 HAQ         2.6110   -0.0000   -0.0620 ha        1 SRR      0.144500
     48 HAQA        1.8910    0.8850   -0.5110 ha        1 SRR      0.144500
     49 HAR         6.9300    0.8740    3.2650 DU        1 SRR      0.180000
     50 HARA        8.8210    1.2570    3.7930 hc        1 SRR      0.140000
     51 OAC         5.6940   -5.7270    0.2610 oh        1 SRR     -0.389000
@<TRIPOS>BOND
     1    1   16 1   
     2    1   27 1   
     3    1   28 1   
     4    1   29 1   
     5    2   17 1   
     6    2   30 1   
     7    2   31 1   
     8    2   32 1   
     9    3   22 1   
    10    3   34 1   
    11    4   10 1   
    12    4   21 1   
    13    4   35 1   
    14    5   11 1   
    15    5   21 1   
    16    5   36 1   
    17    6   12 1   
    18    6   22 1   
    19    6   37 1   
    20    7   13 1   
    21    7   22 1   
    22    7   38 1   
    23    8   14 1   
    24    8   23 1   
    25    8   39 1   
    26    9   15 1   
    27    9   23 1   
    28    9   40 1   
    29   10   25 1   
    30   10   35 1   
    31   10   41 1   
    32   11   25 1   
    33   11   42 1   
    34   12   26 1   
    35   12   43 1   
    36   13   26 1   
    37   13   44 1   
    38   14   24 1   
    39   14   39 1   
    40   14   45 1   
    41   15   24 1   
    42   15   46 1   
    43   16   18 1   
    44   16   27 1   
    45   16   47 1   
    46   16   48 1   
    47   17   19 1   
    48   17   49 1   
    49   17   50 1   
    50   18   23 1   
    51   19   20 1   
    52   19   24 1   
    53   19   49 1   
    54   20   25 1   
    55   20   26 1   
    56   21   51 1   
    57   22   34 1   
    58   24   45 1   
    59   33   51 1   
@<TRIPOS>SUBSTRUCTURE
     1 SRR         1 TEMP              0 ****  ****    0 ROOT
