@<TRIPOS>MOLECULE
SRR
   51    53     1     0     0
SMALL
bcc


@<TRIPOS>ATOM
      1 CAA         7.4340    0.9770    0.5440 c3        1 SRR     -0.100100
      2 CAB        -1.3740    3.1020   -1.3330 c3        1 SRR     -0.088100
      3 OAD        -6.8180    0.4220    0.2300 oh        1 SRR     -0.498100
      4 CAE        -0.6620   -3.5240    0.8230 ca        1 SRR     -0.186500
      5 CAF         0.7340   -2.9420   -1.0920 ca        1 SRR     -0.186500
      6 CAG        -4.8240    0.1730   -1.0170 ca        1 SRR     -0.186500
      7 CAH        -4.6800    0.4690    1.4010 ca        1 SRR     -0.186500
      8 CAI         3.1340    1.4410   -1.2700 ca        1 SRR     -0.182000
      9 CAJ         3.1750    0.8860    1.1030 ca        1 SRR     -0.182000
     10 CAK        -1.1290   -2.2170    0.8630 ca        1 SRR     -0.080500
     11 CAL         0.2590   -1.6350   -1.0300 ca        1 SRR     -0.080500
     12 CAM        -3.4370    0.1010   -1.0800 ca        1 SRR     -0.080500
     13 CAN        -3.2920    0.3950    1.3190 ca        1 SRR     -0.080500
     14 CAO         1.7460    1.4440   -1.2380 ca        1 SRR     -0.085500
     15 CAP         1.7800    0.8920    1.1160 ca        1 SRR     -0.085500
     16 CAQ         5.9810    0.8950    0.9510 c3        1 SRR      0.128400
     17 CAR        -0.9920    2.5950    0.0370 c3        1 SRR     -0.045200
     18 OAS         5.2230    1.1830   -0.2320 os        1 SRR     -0.331900
     19 CAT        -0.4120    1.2160   -0.0130 ce        1 SRR     -0.037400
     20 CAU        -1.1930    0.1130    0.0030 cf        1 SRR     -0.002400
     21 CAV         0.2740   -3.8840   -0.1620 ca        1 SRR      0.124600
     22 CAW        -5.4430    0.3570    0.2300 ca        1 SRR      0.124600
     23 CAX         3.8510    1.1600   -0.0910 ca        1 SRR      0.129100
     24 CAY         1.0540    1.1690   -0.0470 ca        1 SRR     -0.088800
     25 CAZ        -0.6730   -1.2570   -0.0550 ca        1 SRR     -0.083300
     26 CBA        -2.6600    0.2110    0.0830 ca        1 SRR     -0.083300
     27 HAA         8.0740    0.7600    1.4320 hc        1 SRR      0.048700
     28 HAAA        7.6570    0.2350   -0.2590 hc        1 SRR      0.048700
     29 HAAB        7.6750    1.9960    0.1580 hc        1 SRR      0.048700
     30 HAB        -0.4790    3.1580   -1.9990 hc        1 SRR      0.036033
     31 HABA       -2.1250    2.4210   -1.8040 hc        1 SRR      0.036033
     32 HABB       -1.8190    4.1230   -1.2520 hc        1 SRR      0.036033
     33 HOAC        1.3330   -5.3020   -0.8800 ho        1 SRR      0.418500
     34 HOAD       -7.1100    0.5410    1.1450 ho        1 SRR      0.418500
     35 HAE        -1.0110   -4.2780    1.5410 ha        1 SRR      0.142000
     36 HAF         1.4640   -3.2310   -1.8600 ha        1 SRR      0.142000
     37 HAG        -5.4410    0.0870   -1.9220 ha        1 SRR      0.142000
     38 HAH        -5.1720    0.6120    2.3730 ha        1 SRR      0.142000
     39 HAI         3.6830    1.6550   -2.1980 ha        1 SRR      0.142500
     40 HAJ         3.7220    0.6640    2.0300 ha        1 SRR      0.142500
     41 HAK        -1.8710   -1.9250    1.6240 ha        1 SRR      0.139000
     42 HAL         0.6260   -0.8850   -1.7500 ha        1 SRR      0.139000
     43 HAM        -2.9430   -0.0450   -2.0530 ha        1 SRR      0.139000
     44 HAN        -2.6870    0.4820    2.2330 ha        1 SRR      0.139000
     45 HAO         1.1810    1.6640   -2.1560 ha        1 SRR      0.136500
     46 HAP         1.2470    0.6730    2.0530 ha        1 SRR      0.136500
     47 HAQ         5.7190   -0.1320    1.3190 h1        1 SRR      0.038200
     48 HAQA        5.7370    1.6510    1.7430 h1        1 SRR      0.038200
     49 HAR        -0.2470    3.2960    0.5000 hc        1 SRR      0.051700
     50 HARA       -1.9020    2.5910    0.6970 hc        1 SRR      0.051700
     51 OAC         0.6990   -5.1930   -0.1570 oh        1 SRR     -0.498100
@<TRIPOS>BOND
     1    1   16 1   
     2    1   27 1   
     3    1   28 1   
     4    1   29 1   
     5    2   17 1   
     6    2   30 1   
     7    2   31 1   
     8    2   32 1   
     9    3   22 1   
    10    3   34 1   
    11    4   10 ar  
    12    4   21 ar  
    13    4   35 1   
    14    5   11 ar  
    15    5   21 ar  
    16    5   36 1   
    17    6   12 ar  
    18    6   22 ar  
    19    6   37 1   
    20    7   13 ar  
    21    7   22 ar  
    22    7   38 1   
    23    8   14 ar  
    24    8   23 ar  
    25    8   39 1   
    26    9   15 ar  
    27    9   23 ar  
    28    9   40 1   
    29   10   25 ar  
    30   10   41 1   
    31   11   25 ar  
    32   11   42 1   
    33   12   26 ar  
    34   12   43 1   
    35   13   26 ar  
    36   13   44 1   
    37   14   24 ar  
    38   14   45 1   
    39   15   24 ar  
    40   15   46 1   
    41   16   18 1   
    42   16   47 1   
    43   16   48 1   
    44   17   19 1   
    45   17   49 1   
    46   17   50 1   
    47   18   23 1   
    48   19   20 2   
    49   19   24 1   
    50   20   25 1   
    51   20   26 1   
    52   21   51 1   
    53   33   51 1   
@<TRIPOS>SUBSTRUCTURE
     1 SRR         1 TEMP              0 ****  ****    0 ROOT
