@<TRIPOS>MOLECULE
SRS
   74    76     1     0     0
SMALL
bcc


@<TRIPOS>ATOM
      1 S1         -0.0150   -0.6420    1.7900 s6        1 SRS      1.652900
      2 N5          1.2290    0.0360    2.4670 n3        1 SRS     -1.058400
      3 N6         -1.2170   -0.2630    2.1980 n2        1 SRS     -1.110900
      4 C2          0.2580   -0.4930    0.0740 c3        1 SRS     -0.260600
      5 C3          0.4490    0.8480   -0.6200 c3        1 SRS     -0.095700
      6 C4          1.9370    1.1990   -0.6870 c         1 SRS      0.657100
      7 O3          2.7610    0.7160    0.1140 o         1 SRS     -0.611100
      8 N2          2.3520    2.0960   -1.6690 n         1 SRS     -0.563900
      9 C5          3.7450    2.1770   -2.0270 c3        1 SRS      0.030700
     10 C6          4.3900    3.4990   -1.5720 c         1 SRS      0.525100
     11 O4          5.4340    3.5850   -0.9490 o         1 SRS     -0.396100
     12 N3          3.7120    4.7790   -1.9840 n4        1 SRS     -0.673800
     13 C7          4.2680    5.9940   -1.3130 c3        1 SRS      0.101800
     14 C8          3.7830    7.3010   -1.9240 c3        1 SRS     -0.109400
     15 C9          4.3120    7.5400   -3.3240 c3        1 SRS     -0.103400
     16 C10         3.2830    7.2440   -4.4000 c3        1 SRS     -0.088400
     17 C11         3.9330    6.9290   -5.7330 c3        1 SRS     -0.106400
     18 C12         3.1670    5.8930   -6.5570 c3        1 SRS      0.023300
     19 N4          2.9800    4.6220   -5.9020 na        1 SRS     -0.038400
     20 C13        -0.3490    2.0030   -0.0340 c3        1 SRS     -0.089400
     21 C14        -1.8370    1.9110   -0.3580 c3        1 SRS     -0.067700
     22 C15        -2.6340    2.7250    0.6430 c3        1 SRS     -0.098600
     23 C16        -2.1250    2.3960   -1.7640 c3        1 SRS     -0.098600
     24 C17         4.0380    1.9780   -3.5320 c3        1 SRS     -0.024200
     25 C18         3.3360    2.9100   -4.4150 cc        1 SRS     -0.241400
     26 C19         3.9200    3.9920   -5.0950 cd        1 SRS     -0.110100
     27 C20         1.9620    2.8300   -4.8620 ca        1 SRS     -0.103800
     28 C21         1.7610    3.9380   -5.7690 ca        1 SRS     -0.049200
     29 C22         0.9140    1.9270   -4.6470 ca        1 SRS     -0.136000
     30 C23         0.5160    4.1500   -6.3900 ca        1 SRS     -0.110000
     31 C24        -0.3030    2.1470   -5.2680 ca        1 SRS     -0.122000
     32 C25        -0.5020    3.2520   -6.1210 ca        1 SRS     -0.098000
     33 C26         0.2740   -2.3050    1.9120 c3        1 SRS     -0.365300
     34 HN5         2.1150    0.1640    2.0160 hn        1 SRS      0.343700
     35 HN6        -2.0840    0.0330    2.5170 hn        1 SRS      0.609400
     36 H21        -0.6270   -0.9810   -0.4360 h1        1 SRS      0.145700
     37 H22A        1.1440   -1.1340   -0.2080 h1        1 SRS      0.145700
     38 H3          0.0920    0.6980   -1.6870 hc        1 SRS      0.105700
     39 HN2         1.2450    0.3930    3.3980 hn        1 SRS      0.343700
     40 H5          4.3270    1.3800   -1.4520 h1        1 SRS      0.147700
     41 HN3         3.8120    4.8750   -3.0120 hn        1 SRS      0.466300
     42 H71         3.9780    5.9430   -0.2250 hx        1 SRS      0.112700
     43 H72         5.3960    5.9370   -1.3770 hx        1 SRS      0.112700
     44 H81         2.6620    7.3590   -1.9090 hc        1 SRS      0.088200
     45 H82         4.1590    8.1140   -1.2410 hc        1 SRS      0.088200
     46 H91         5.2400    6.9290   -3.4880 hc        1 SRS      0.068700
     47 H92         4.6270    8.6160   -3.4170 hc        1 SRS      0.068700
     48 H101        2.6060    8.1330   -4.5160 hc        1 SRS      0.044200
     49 H102        2.6240    6.3990   -4.0690 hc        1 SRS      0.044200
     50 H111        3.9910    7.8640   -6.3540 hc        1 SRS      0.072700
     51 H112        4.9890    6.5770   -5.5850 hc        1 SRS      0.072700
     52 H121        3.7330    5.7120   -7.5180 h1        1 SRS      0.087200
     53 H122        2.1490    6.3030   -6.8200 h1        1 SRS      0.087200
     54 H131        0.0420    2.9700   -0.4520 hc        1 SRS      0.054700
     55 H132       -0.1980    2.0560    1.0760 hc        1 SRS      0.054700
     56 H14        -2.1610    0.8350   -0.2800 hc        1 SRS      0.042700
     57 H151       -2.3040    3.7920    0.6360 hc        1 SRS      0.049033
     58 H152       -3.7200    2.6920    0.3830 hc        1 SRS      0.049033
     59 H153       -2.5060    2.3190    1.6750 hc        1 SRS      0.049033
     60 H161       -1.5200    1.8360   -2.5180 hc        1 SRS      0.049033
     61 H162       -1.8930    3.4840   -1.8610 hc        1 SRS      0.049033
     62 H163       -3.2070    2.2480   -2.0020 hc        1 SRS      0.049033
     63 H171        5.1510    2.0610   -3.6720 hc        1 SRS      0.095200
     64 H172        3.7500    0.9200   -3.7950 hc        1 SRS      0.095200
     65 H19         4.9670    4.3130   -5.1040 h4        1 SRS      0.183000
     66 H22         1.0740    1.0240   -4.0410 ha        1 SRS      0.118000
     67 H23         0.3620    4.9880   -7.0860 ha        1 SRS      0.159000
     68 H24        -1.1330    1.4380   -5.1190 ha        1 SRS      0.146000
     69 H25        -1.4860    3.3860   -6.6010 ha        1 SRS      0.161000
     70 H261       -0.4060   -2.9220    1.2640 h1        1 SRS      0.159700
     71 H262        0.1160   -2.7070    2.9530 h1        1 SRS      0.159700
     72 H263        1.3170   -2.6180    1.6400 h1        1 SRS      0.159700
     73 H221        1.7030    2.3180   -2.3980 hn        1 SRS      0.339500
     74 H32         2.7100    4.7120   -1.7810 hn        1 SRS      0.466300
@<TRIPOS>BOND
     1    1    2 2   
     2    1    3 2   
     3    1    4 1   
     4    1   33 1   
     5    2   34 1   
     6    2   39 1   
     7    3   35 1   
     8    4    5 1   
     9    4   36 1   
    10    4   37 1   
    11    5    6 1   
    12    5   20 1   
    13    5   38 1   
    14    6    7 2   
    15    6    8 1   
    16    8    9 1   
    17    8   73 1   
    18    9   10 1   
    19    9   24 1   
    20    9   40 1   
    21   10   11 2   
    22   10   12 1   
    23   12   13 1   
    24   12   41 1   
    25   12   74 1   
    26   13   14 1   
    27   13   42 1   
    28   13   43 1   
    29   14   15 1   
    30   14   44 1   
    31   14   45 1   
    32   15   16 1   
    33   15   46 1   
    34   15   47 1   
    35   16   17 1   
    36   16   48 1   
    37   16   49 1   
    38   17   18 1   
    39   17   50 1   
    40   17   51 1   
    41   18   19 1   
    42   18   52 1   
    43   18   53 1   
    44   19   26 1   
    45   19   28 1   
    46   20   21 1   
    47   20   54 1   
    48   20   55 1   
    49   21   22 1   
    50   21   23 1   
    51   21   56 1   
    52   22   57 1   
    53   22   58 1   
    54   22   59 1   
    55   23   60 1   
    56   23   61 1   
    57   23   62 1   
    58   24   25 1   
    59   24   63 1   
    60   24   64 1   
    61   25   26 2   
    62   25   27 1   
    63   26   65 1   
    64   27   28 ar  
    65   27   29 ar  
    66   28   30 ar  
    67   29   31 ar  
    68   29   66 1   
    69   30   32 ar  
    70   30   67 1   
    71   31   32 ar  
    72   31   68 1   
    73   32   69 1   
    74   33   70 1   
    75   33   71 1   
    76   33   72 1   
@<TRIPOS>SUBSTRUCTURE
     1 SRS         1 TEMP              0 ****  ****    0 ROOT
