@<TRIPOS>MOLECULE
SRS
   74    76     1     0     0
SMALL
bcc


@<TRIPOS>ATOM
      1 S1          0.6800   -0.5260    1.7700 s6        1 SRS      1.646900
      2 N5          1.9540   -1.4540    1.7340 n8        1 SRS     -1.044400
      3 N6          0.7290    0.6250    2.4180 n2        1 SRS     -1.098900
      4 C2          0.1590   -0.4130    0.1050 c3        1 SRS     -0.257600
      5 C3          0.3740    0.8510   -0.7120 c3        1 SRS     -0.090700
      6 C4          1.8580    1.2170   -0.7390 c         1 SRS      0.664100
      7 O3          2.6370    0.7690    0.1310 o         1 SRS     -0.649100
      8 N2          2.3130    2.0810   -1.7240 ns        1 SRS     -0.557900
      9 C5          3.7240    2.2230   -1.9750 c3        1 SRS      0.032700
     10 C6          4.2800    3.5640   -1.4600 c         1 SRS      0.524100
     11 O4          5.2760    3.6800   -0.7650 o         1 SRS     -0.396100
     12 N3          3.5820    4.8220   -1.9010 ny        1 SRS     -0.673800
     13 C7          4.0210    6.0430   -1.1580 c3        1 SRS      0.101800
     14 C8          3.5300    7.3420   -1.7820 c3        1 SRS     -0.110400
     15 C9          4.1660    7.6390   -3.1250 c3        1 SRS     -0.103400
     16 C10         3.2520    7.3160   -4.2920 c3        1 SRS     -0.088400
     17 C11         4.0310    7.0480   -5.5650 c3        1 SRS     -0.106400
     18 C12         3.3800    6.0020   -6.4700 c3        1 SRS      0.023300
     19 N4          3.1840    4.7130   -5.8550 na        1 SRS     -0.038400
     20 C13        -0.4490    2.0570   -0.2790 c3        1 SRS     -0.089400
     21 C14        -1.9480    1.7980   -0.1960 c3        1 SRS     -0.061700
     22 C15        -2.6490    3.0710    0.2410 c3        1 SRS     -0.101600
     23 C16        -2.5180    1.3150   -1.5130 c3        1 SRS     -0.101600
     24 C17         4.1350    2.0550   -3.4550 c3        1 SRS     -0.022200
     25 C18         3.4770    2.9830   -4.3750 cc        1 SRS     -0.243400
     26 C19         4.0760    4.0980   -4.9850 cd        1 SRS     -0.111100
     27 C20         2.1470    2.8660   -4.9350 ca        1 SRS     -0.104800
     28 C21         1.9830    3.9850   -5.8360 ca        1 SRS     -0.050200
     29 C22         1.1190    1.9230   -4.8250 ca        1 SRS     -0.136000
     30 C23         0.7880    4.1660   -6.5560 ca        1 SRS     -0.111000
     31 C24        -0.0470    2.1100   -5.5470 ca        1 SRS     -0.120000
     32 C25        -0.2140    3.2260   -6.3920 ca        1 SRS     -0.098000
     33 C26        -0.5220   -1.5910    2.3260 c3        1 SRS     -0.356300
     34 HN5         2.8220   -1.1720    1.3260 hn        1 SRS      0.338200
     35 HN6         0.8560    1.4490    2.9120 hn        1 SRS      0.600400
     36 H21         0.6240   -1.2570   -0.4840 h1        1 SRS      0.145200
     37 H22A       -0.9530   -0.6140    0.0590 h1        1 SRS      0.145200
     38 H3          0.0580    0.5940   -1.7700 hc        1 SRS      0.105700
     39 HN2         1.7060    2.2750   -2.4970 hn        1 SRS      0.345500
     40 H5          4.2910    1.4420   -1.3650 h1        1 SRS      0.144700
     41 HN3         3.7680    4.9500   -2.9150 hn        1 SRS      0.466800
     42 H71         3.6390    5.9510   -0.1010 hx        1 SRS      0.112700
     43 H72         5.1510    6.0380   -1.1240 hx        1 SRS      0.112700
     44 H81         3.8090    8.1540   -1.0510 hc        1 SRS      0.088700
     45 H82         2.4110    7.3500   -1.8620 hc        1 SRS      0.088700
     46 H91         4.4300    8.7320   -3.1700 hc        1 SRS      0.068700
     47 H92         5.1360    7.0810   -3.2170 hc        1 SRS      0.068700
     48 H101        2.6020    6.4400   -4.0310 hc        1 SRS      0.044700
     49 H102        2.5500    8.1780   -4.4600 hc        1 SRS      0.044700
     50 H111        4.1120    7.9960   -6.1630 hc        1 SRS      0.072200
     51 H112        5.0810    6.7290   -5.3260 hc        1 SRS      0.072200
     52 H121        4.0350    5.8590   -7.3810 h1        1 SRS      0.087200
     53 H122        2.3750    6.3790   -6.8170 h1        1 SRS      0.087200
     54 H131       -0.0910    2.4430    0.7110 hc        1 SRS      0.059700
     55 H132       -0.2810    2.8760   -1.0300 hc        1 SRS      0.059700
     56 H14        -2.1400    1.0130    0.5900 hc        1 SRS      0.030700
     57 H151       -3.7430    2.8810    0.3660 hc        1 SRS      0.050200
     58 H152       -2.5190    3.8740   -0.5240 hc        1 SRS      0.050200
     59 H153       -2.2390    3.4340    1.2140 hc        1 SRS      0.050200
     60 H161       -2.1220    0.3040   -1.7740 hc        1 SRS      0.050200
     61 H162       -2.2640    2.0230   -2.3370 hc        1 SRS      0.050200
     62 H163       -3.6320    1.2450   -1.4440 hc        1 SRS      0.050200
     63 H171        3.8970    0.9950   -3.7540 hc        1 SRS      0.095700
     64 H172        5.2530    2.1710   -3.5080 hc        1 SRS      0.095700
     65 H19         5.1090    4.4520   -4.9030 h4        1 SRS      0.182000
     66 H22         1.2620    1.0130   -4.2240 ha        1 SRS      0.119000
     67 H23         0.6610    5.0130   -7.2460 ha        1 SRS      0.159000
     68 H24        -0.8570    1.3660   -5.4870 ha        1 SRS      0.148000
     69 H25        -1.1590    3.3350   -6.9520 ha        1 SRS      0.162000
     70 H261       -1.5390   -1.1120    2.3710 h1        1 SRS      0.157700
     71 H262       -0.6510   -2.5100    1.6960 h1        1 SRS      0.157700
     72 H263       -0.3440   -1.9670    3.3720 h1        1 SRS      0.157700
     73 H221        2.0260   -2.3430    2.1780 hn        1 SRS      0.338200
     74 H32         2.5700    4.7060   -1.7910 hn        1 SRS      0.466800
@<TRIPOS>BOND
     1    1    2 2   
     2    1    3 2   
     3    1    4 1   
     4    1   33 1   
     5    2   34 1   
     6    2   73 1   
     7    3   35 1   
     8    4    5 1   
     9    4   36 1   
    10    4   37 1   
    11    5    6 1   
    12    5   20 1   
    13    5   38 1   
    14    6    7 2   
    15    6    8 1   
    16    8    9 1   
    17    8   39 1   
    18    9   10 1   
    19    9   24 1   
    20    9   40 1   
    21   10   11 2   
    22   10   12 1   
    23   12   13 1   
    24   12   41 1   
    25   12   74 1   
    26   13   14 1   
    27   13   42 1   
    28   13   43 1   
    29   14   15 1   
    30   14   44 1   
    31   14   45 1   
    32   15   16 1   
    33   15   46 1   
    34   15   47 1   
    35   16   17 1   
    36   16   48 1   
    37   16   49 1   
    38   17   18 1   
    39   17   50 1   
    40   17   51 1   
    41   18   19 1   
    42   18   52 1   
    43   18   53 1   
    44   19   26 1   
    45   19   28 1   
    46   20   21 1   
    47   20   54 1   
    48   20   55 1   
    49   21   22 1   
    50   21   23 1   
    51   21   56 1   
    52   22   57 1   
    53   22   58 1   
    54   22   59 1   
    55   23   60 1   
    56   23   61 1   
    57   23   62 1   
    58   24   25 1   
    59   24   63 1   
    60   24   64 1   
    61   25   26 2   
    62   25   27 1   
    63   26   65 1   
    64   27   28 ar  
    65   27   29 ar  
    66   28   30 ar  
    67   29   31 ar  
    68   29   66 1   
    69   30   32 ar  
    70   30   67 1   
    71   31   32 ar  
    72   31   68 1   
    73   32   69 1   
    74   33   70 1   
    75   33   71 1   
    76   33   72 1   
@<TRIPOS>SUBSTRUCTURE
     1 SRS         1 TEMP              0 ****  ****    0 ROOT
