@<TRIPOS>MOLECULE
SRS
   72    74     1     0     0
SMALL
bcc


@<TRIPOS>ATOM
      1 S1         -2.3740   -1.0200    3.3800 s6        1 SRS      1.419400
      2 N5         -1.7790   -2.0910    2.8180 n2        1 SRS     -1.211900
      3 N6         -2.5430   -0.8280    4.7040 n2        1 SRS     -1.211900
      4 C2         -1.6490    0.4700    2.6640 c3        1 SRS     -0.269600
      5 C3         -0.1410    0.5540    2.5770 c3        1 SRS     -0.085700
      6 C4          0.4360   -0.6300    1.7960 c         1 SRS      0.653100
      7 O3          1.2270   -1.4500    2.3080 o         1 SRS     -0.621100
      8 N2          0.0800   -0.7370    0.4690 n         1 SRS     -0.568900
      9 C5          0.3920   -1.8890   -0.3380 c3        1 SRS      0.049700
     10 C6          1.8190   -1.9040   -0.9470 c         1 SRS      0.650100
     11 O4          2.0360   -2.5550   -1.9940 o         1 SRS     -0.644100
     12 N3          2.8330   -1.2340   -0.3080 n         1 SRS     -0.555900
     13 C7          4.1720   -1.1750   -0.8260 c3        1 SRS      0.092000
     14 C8          4.5000    0.0750   -1.6500 c3        1 SRS     -0.095400
     15 C9          3.9110    0.0320   -3.0470 c3        1 SRS     -0.086400
     16 C10         2.8970    1.1340   -3.2840 c3        1 SRS     -0.082400
     17 C11         2.2800    1.0300   -4.6650 c3        1 SRS     -0.095400
     18 C12         0.8180    1.4700   -4.7200 c3        1 SRS      0.039300
     19 N4         -0.0980    0.6880   -3.9320 na        1 SRS     -0.069400
     20 C13         0.5360    0.6600    3.9370 c3        1 SRS     -0.076400
     21 C14         0.4550    2.0620    4.5280 c3        1 SRS     -0.065700
     22 C15         0.6640    2.0000    6.0280 c3        1 SRS     -0.091100
     23 C16         1.4780    2.9860    3.9000 c3        1 SRS     -0.091100
     24 C17        -0.6300   -2.0570   -1.4880 c3        1 SRS     -0.007200
     25 C18        -0.6920   -0.8610   -2.3370 cc        1 SRS     -0.175400
     26 C19         0.2010   -0.5590   -3.3650 cd        1 SRS     -0.069100
     27 C20        -1.6050    0.2590   -2.2270 ca        1 SRS     -0.088800
     28 C21        -1.1860    1.2270   -3.2200 ca        1 SRS     -0.051200
     29 C22        -2.7030    0.5400   -1.4160 ca        1 SRS     -0.108000
     30 C23        -1.8680    2.4430   -3.3690 ca        1 SRS     -0.134000
     31 C24        -3.3670    1.7490   -1.5760 ca        1 SRS     -0.153000
     32 C25        -2.9520    2.6860   -2.5370 ca        1 SRS     -0.121000
     33 C26        -3.9270   -0.7730    2.5890 c3        1 SRS     -0.300300
     34 HN5        -1.2210   -2.8040    2.5040 hn        1 SRS      0.558900
     35 HN6        -2.6610   -0.6820    5.6410 hn        1 SRS      0.558900
     36 H21        -2.0050    1.3550    3.2520 h1        1 SRS      0.088200
     37 H22A       -2.0660    0.6020    1.6330 h1        1 SRS      0.088200
     38 H3          0.1180    1.4880    1.9950 hc        1 SRS      0.067700
     39 HN2        -0.5070   -0.0460    0.0570 hn        1 SRS      0.329500
     40 H5          0.3520   -2.8100    0.3240 h1        1 SRS      0.090700
     41 HN3         2.6730   -0.8250    0.5820 hn        1 SRS      0.326500
     42 H71         4.3570   -2.0880   -1.4640 h1        1 SRS      0.056700
     43 H72         4.8810   -1.2110    0.0510 h1        1 SRS      0.056700
     44 H81         5.6180    0.1330   -1.7210 hc        1 SRS      0.043200
     45 H82         4.1580    0.9950   -1.1080 hc        1 SRS      0.043200
     46 H91         3.4140   -0.9640   -3.2190 hc        1 SRS      0.052200
     47 H92         4.7340    0.1240   -3.8050 hc        1 SRS      0.052200
     48 H101        3.3900    2.1350   -3.1670 hc        1 SRS      0.045200
     49 H102        2.1060    1.0680   -2.4900 hc        1 SRS      0.045200
     50 H111        2.3690   -0.0210   -5.0510 hc        1 SRS      0.054200
     51 H112        2.8460    1.6860   -5.3790 hc        1 SRS      0.054200
     52 H121        0.4730    1.4190   -5.7950 h1        1 SRS      0.052700
     53 H122        0.7460    2.5460   -4.3850 h1        1 SRS      0.052700
     54 H131        1.6160    0.3670    3.8330 hc        1 SRS      0.062200
     55 H132        0.0730   -0.0750    4.6460 hc        1 SRS      0.062200
     56 H14        -0.5710    2.4830    4.3320 hc        1 SRS      0.044700
     57 H151        0.6340    3.0270    6.4650 hc        1 SRS      0.035033
     58 H152       -0.1340    1.3860    6.5090 hc        1 SRS      0.035033
     59 H153        1.6550    1.5430    6.2660 hc        1 SRS      0.035033
     60 H161        2.5130    2.6120    4.0900 hc        1 SRS      0.035033
     61 H162        1.3250    3.0570    2.7970 hc        1 SRS      0.035033
     62 H163        1.3890    4.0110    4.3340 hc        1 SRS      0.035033
     63 H171       -0.3080   -2.9480   -2.0940 hc        1 SRS      0.072700
     64 H172       -1.6380   -2.2760   -1.0480 hc        1 SRS      0.072700
     65 H19         1.0390   -1.1680   -3.7240 h4        1 SRS      0.194000
     66 H22        -3.0390   -0.1940   -0.6690 ha        1 SRS      0.128000
     67 H23        -1.5560    3.1780   -4.1230 ha        1 SRS      0.133000
     68 H24        -4.2380    1.9820   -0.9460 ha        1 SRS      0.128000
     69 H25        -3.5040    3.6330   -2.6340 ha        1 SRS      0.130000
     70 H261       -4.6800   -1.5190    2.9340 h1        1 SRS      0.091033
     71 H262       -4.3410    0.2380    2.8060 h1        1 SRS      0.091033
     72 H263       -3.8560   -0.8750    1.4810 h1        1 SRS      0.091033
@<TRIPOS>BOND
     1    1    2 2   
     2    1    3 2   
     3    1    4 1   
     4    1   33 1   
     5    2   34 1   
     6    3   35 1   
     7    4    5 1   
     8    4   36 1   
     9    4   37 1   
    10    5    6 1   
    11    5   20 1   
    12    5   38 1   
    13    6    7 2   
    14    6    8 1   
    15    8    9 1   
    16    8   39 1   
    17    9   10 1   
    18    9   24 1   
    19    9   40 1   
    20   10   11 2   
    21   10   12 1   
    22   12   13 1   
    23   12   41 1   
    24   13   14 1   
    25   13   42 1   
    26   13   43 1   
    27   14   15 1   
    28   14   44 1   
    29   14   45 1   
    30   15   16 1   
    31   15   46 1   
    32   15   47 1   
    33   16   17 1   
    34   16   48 1   
    35   16   49 1   
    36   17   18 1   
    37   17   50 1   
    38   17   51 1   
    39   18   19 1   
    40   18   52 1   
    41   18   53 1   
    42   19   26 1   
    43   19   28 1   
    44   20   21 1   
    45   20   54 1   
    46   20   55 1   
    47   21   22 1   
    48   21   23 1   
    49   21   56 1   
    50   22   57 1   
    51   22   58 1   
    52   22   59 1   
    53   23   60 1   
    54   23   61 1   
    55   23   62 1   
    56   24   25 1   
    57   24   63 1   
    58   24   64 1   
    59   25   26 2   
    60   25   27 1   
    61   26   65 1   
    62   27   28 ar  
    63   27   29 ar  
    64   28   30 ar  
    65   29   31 ar  
    66   29   66 1   
    67   30   32 ar  
    68   30   67 1   
    69   31   32 ar  
    70   31   68 1   
    71   32   69 1   
    72   33   70 1   
    73   33   71 1   
    74   33   72 1   
@<TRIPOS>SUBSTRUCTURE
     1 SRS         1 TEMP              0 ****  ****    0 ROOT
