@<TRIPOS>MOLECULE
SRS
   72    66     1     0     0
SMALL
bcc


@<TRIPOS>ATOM
      1 S1          5.1390   -2.1910    0.2690 ss        1 SRS      3.204000
      2 N5          6.5860   -1.9350    0.8370 n1        1 SRS     -1.397000
      3 N6          4.3330   -3.0240    1.3270 n1        1 SRS     -1.397000
      4 C2          4.4510   -0.9650   -0.8130 c2        1 SRS     -0.818000
      5 C3          3.6210    0.0200   -0.0020 c3        1 SRS     -0.074000
      6 C4          2.2750    0.1950   -0.6490 c2        1 SRS      0.305000
      7 O3          2.2010    0.5780   -1.7970 o         1 SRS     -0.372000
      8 N2          1.0580   -0.0540    0.1160 n         1 SRS     -0.365000
      9 C5         -0.2350    0.1580   -0.4990 c3        1 SRS      0.011000
     10 C6         -0.9310    1.2720    0.1840 c2        1 SRS      0.282000
     11 O4         -0.9100    1.3480    1.3910 o         1 SRS     -0.392000
     12 N3         -1.7330    2.2440   -0.6080 n         1 SRS     -0.354000
     13 C7         -2.4220    3.2160    0.3250 c3        1 SRS     -0.035000
     14 C8         -3.7990    3.6100   -0.2600 c3        1 SRS     -0.184000
     15 C9         -4.9370    3.1920    0.7490 c3        1 SRS     -0.153000
     16 C10        -4.6250    1.7820    1.3310 c3        1 SRS     -0.169000
     17 C11        -5.9240    0.8160    1.1470 c3        1 SRS     -0.170000
     18 C12        -5.7480   -0.0600   -0.1170 c3        1 SRS     -0.022000
     19 N4         -4.5520   -0.9780    0.0630 n3        1 SRS     -0.158000
     20 C13         4.3430    1.3730    0.0510 c3        1 SRS     -0.154000
     21 C14         5.2540    1.4160    1.2720 c3        1 SRS     -0.108000
     22 C15         4.7260    2.4190    2.2570 c3        1 SRS     -0.210000
     23 C16         6.6360    1.8140    0.8480 c3        1 SRS     -0.210000
     24 C17        -1.0790   -1.1280   -0.3820 c3        1 SRS     -0.094000
     25 C18        -2.5260   -0.8700   -1.0080 c2        1 SRS     -0.173000
     26 C19        -3.4300   -0.2600    0.0260 c1        1 SRS     -0.056000
     27 C20        -3.0960   -2.0900   -1.4110 c1        1 SRS     -0.084000
     28 C21        -4.3600   -2.1870   -0.8250 c1        1 SRS     -0.010000
     29 C22        -2.6560   -3.0840   -2.2890 c1        1 SRS     -0.094000
     30 C23        -5.1890   -3.2670   -1.1320 c1        1 SRS     -0.141000
     31 C24        -3.5140   -4.1170   -2.6530 c1        1 SRS     -0.134500
     32 C25        -4.7840   -4.2090   -2.0740 c1        1 SRS     -0.134500
     33 C26         5.4490   -3.4540   -0.9430 c2        1 SRS     -0.896000
     34 HN5         6.8870   -2.4150    1.5360 DU        1 SRS      0.266000
     35 HN6         4.7290   -3.2700    2.1110 DU        1 SRS      0.266000
     36 H21         3.8790   -1.4030   -1.4850 ha        1 SRS      0.143000
     37 H22A        5.1770   -0.4850   -1.2650 ha        1 SRS      0.143000
     38 H3          3.5040   -0.3210    0.9030 hc        1 SRS      0.105000
     39 HN2         1.1120   -0.2620    1.0130 hn        1 SRS      0.238000
     40 H5         -0.1130    0.3830   -1.4460 h1        1 SRS      0.141000
     41 HN3        -2.1530    1.9720   -1.3870 hn        1 SRS      0.230000
     42 H71        -1.8690    4.0180    0.4280 h1        1 SRS      0.100500
     43 H72        -2.5490    2.7950    1.1960 h1        1 SRS      0.100500
     44 H81        -3.8280    4.5730   -0.4010 hc        1 SRS      0.088000
     45 H82        -3.9340    3.1530   -1.1100 hc        1 SRS      0.088000
     46 H91        -5.7960    3.1680    0.2810 hc        1 SRS      0.080000
     47 H92        -4.9820    3.8440    1.4800 hc        1 SRS      0.080000
     48 H101       -3.8700    1.3990    0.8620 hc        1 SRS      0.095000
     49 H102       -4.4120    1.8620    2.2790 hc        1 SRS      0.095000
     50 H111       -6.7350    1.3710    1.0510 hc        1 SRS      0.090000
     51 H112       -6.0160    0.2350    1.9380 hc        1 SRS      0.090000
     52 H121       -5.6020    0.5150   -0.8930 h1        1 SRS      0.093000
     53 H122       -6.5610   -0.6020   -0.2580 h1        1 SRS      0.093000
     54 H131        4.8790    1.4870   -0.7580 hc        1 SRS      0.093500
     55 H132        3.6800    2.0990    0.1110 hc        1 SRS      0.093500
     56 H14         5.2810    0.5400    1.6860 hc        1 SRS      0.090000
     57 H151        5.3130    2.4460    3.0410 hc        1 SRS      0.074667
     58 H152        4.6990    3.3020    1.8400 hc        1 SRS      0.074667
     59 H153        3.8240    2.1610    2.5330 hc        1 SRS      0.074667
     60 H161        6.9960    1.1400    0.2420 hc        1 SRS      0.074667
     61 H162        6.6010    2.6780    0.3910 hc        1 SRS      0.074667
     62 H163        7.2150    1.8850    1.6400 hc        1 SRS      0.074667
     63 H171       -0.6360   -1.8570   -0.8710 hc        1 SRS      0.103000
     64 H172       -1.1700   -1.3750    0.5610 hc        1 SRS      0.103000
     65 H19        -3.2240    0.5010    0.5830 DU        1 SRS      0.266000
     66 H22        -1.7690   -3.0210   -2.6940 ha        1 SRS      0.143000
     67 H23        -6.0810   -3.3320   -0.7260 ha        1 SRS      0.134000
     68 H24        -3.2310   -4.7750   -3.3110 ha        1 SRS      0.132000
     69 H25        -5.3880   -4.9360   -2.3300 ha        1 SRS      0.132000
     70 H261        5.9640   -4.1790   -0.5350 ha        1 SRS      0.130000
     71 H262        4.5980   -3.8040   -1.2740 ha        1 SRS      0.130000
     72 H263        5.9590   -3.0700   -1.6930 ha        1 SRS      0.130000
@<TRIPOS>BOND
     1    1    2 1   
     2    1    3 1   
     3    4    5 1   
     4    4   36 1   
     5    4   37 1   
     6    5    6 1   
     7    5   20 1   
     8    5   38 1   
     9    6    7 1   
    10    6    8 1   
    11    8    9 1   
    12    8   39 1   
    13    9   10 1   
    14    9   24 1   
    15    9   40 1   
    16   10   11 1   
    17   10   12 1   
    18   12   13 1   
    19   12   41 1   
    20   13   14 1   
    21   13   42 1   
    22   13   43 1   
    23   14   15 1   
    24   14   44 1   
    25   14   45 1   
    26   15   16 1   
    27   15   46 1   
    28   15   47 1   
    29   16   17 1   
    30   16   48 1   
    31   16   49 1   
    32   17   18 1   
    33   17   50 1   
    34   17   51 1   
    35   18   19 1   
    36   18   52 1   
    37   18   53 1   
    38   19   26 1   
    39   19   28 1   
    40   20   21 1   
    41   20   54 1   
    42   20   55 1   
    43   21   22 1   
    44   21   23 1   
    45   21   56 1   
    46   22   57 1   
    47   22   58 1   
    48   22   59 1   
    49   23   60 1   
    50   23   61 1   
    51   23   62 1   
    52   24   25 1   
    53   24   63 1   
    54   24   64 1   
    55   25   26 1   
    56   25   27 1   
    57   27   29 1   
    58   28   30 1   
    59   29   66 1   
    60   30   67 1   
    61   31   32 1   
    62   31   68 1   
    63   32   69 1   
    64   33   70 1   
    65   33   71 1   
    66   33   72 1   
@<TRIPOS>SUBSTRUCTURE
     1 SRS         1 TEMP              0 ****  ****    0 ROOT
