@<TRIPOS>MOLECULE
SRT
   14    13     1     0     0
SMALL
bcc


@<TRIPOS>ATOM
      1 O1          2.6280   -0.8660    0.7070 o         1 SRT     -0.872300
      2 O11         2.4940    0.7520   -0.8190 o         1 SRT     -0.872300
      3 C1          1.9780    0.0230    0.0850 c         1 SRT      0.898600
      4 C2          0.5110    0.3190    0.4790 c3        1 SRT      0.018100
      5 O2          0.3360    1.7310    0.5160 oh        1 SRT     -0.624800
      6 C3         -0.5110   -0.3190   -0.4790 c3        1 SRT      0.018100
      7 O3         -0.3360   -1.7310   -0.5160 oh        1 SRT     -0.624800
      8 C4         -1.9770   -0.0230   -0.0850 c         1 SRT      0.898600
      9 O4         -2.4940   -0.7520    0.8190 o         1 SRT     -0.872300
     10 O41        -2.6280    0.8660   -0.7070 o         1 SRT     -0.872300
     11 H2          0.3080   -0.0300    1.5260 h1        1 SRT      0.052700
     12 HA          0.7260    2.0610   -0.3050 ho        1 SRT      0.400000
     13 H3         -0.3080    0.0300   -1.5260 h1        1 SRT      0.052700
     14 HB         -0.7270   -2.0610    0.3050 ho        1 SRT      0.400000
@<TRIPOS>BOND
     1    1    3 1   
     2    2    3 1   
     3    3    4 1   
     4    4    5 1   
     5    4    6 1   
     6    4   11 1   
     7    5   12 1   
     8    6    7 1   
     9    6    8 1   
    10    6   13 1   
    11    7   14 1   
    12    8    9 1   
    13    8   10 1   
@<TRIPOS>SUBSTRUCTURE
     1 SRT         1 TEMP              0 ****  ****    0 ROOT
