@<TRIPOS>MOLECULE
SRT
   14    13     1     0     0
SMALL
bcc


@<TRIPOS>ATOM
      1 O1          0.0440   -0.4860   -0.1080 o         1 SRT     -0.872300
      2 O11         2.0130    0.0700   -0.9890 o         1 SRT     -0.872300
      3 C1          1.2560   -0.1460    0.0090 c         1 SRT      0.898600
      4 C2          1.9000   -0.0670    1.4140 c3        1 SRT      0.018100
      5 O2          3.1860   -0.6740    1.3500 oh        1 SRT     -0.624800
      6 C3          2.0170    1.3730    1.9430 c3        1 SRT      0.018100
      7 O3          0.7320    1.9800    2.0070 oh        1 SRT     -0.624800
      8 C4          2.6620    1.4530    3.3470 c         1 SRT      0.898600
      9 O4          1.9060    1.2360    4.3460 o         1 SRT     -0.872300
     10 O41         3.8750    1.7920    3.4640 o         1 SRT     -0.872300
     11 H2          1.3190   -0.6870    2.1470 h1        1 SRT      0.052700
     12 HA          3.6100   -0.2990    0.5660 ho        1 SRT      0.400000
     13 H3          2.5990    1.9930    1.2100 h1        1 SRT      0.052700
     14 HB          0.3080    1.6050    2.7920 ho        1 SRT      0.400000
@<TRIPOS>BOND
     1    1    3 1   
     2    2    3 1   
     3    3    4 1   
     4    4    5 1   
     5    4    6 1   
     6    4   11 1   
     7    5   12 1   
     8    6    7 1   
     9    6    8 1   
    10    6   13 1   
    11    7   14 1   
    12    8    9 1   
    13    8   10 1   
@<TRIPOS>SUBSTRUCTURE
     1 SRT         1 TEMP              0 ****  ****    0 ROOT
