@<TRIPOS>MOLECULE
SRZ
   23    22     1     0     0
SMALL
bcc


@<TRIPOS>ATOM
      1 CZ         -3.1230    0.0200   -1.5820 c3        1 SRZ      0.130400
      2 CE         -1.6100    0.0200   -1.5820 c3        1 SRZ     -0.086400
      3 CD         -1.1060    0.0200   -0.1550 c3        1 SRZ      0.134400
      4 OG          0.3020   -0.0170   -0.1550 os        1 SRZ     -0.419600
      5 CB          0.8740    0.0160    1.1320 c3        1 SRZ      0.137400
      6 CA          2.3590   -0.2440    1.0300 c3        1 SRZ      0.018500
      7 C           3.1000    1.0730    1.0040 c         1 SRZ      0.887600
      8 O           3.6640    1.4570   -0.0540 o         1 SRZ     -0.840300
      9 N           2.7850   -1.0050    2.1540 n3        1 SRZ     -0.881800
     10 OH         -3.5930    0.0200   -2.9120 oh        1 SRZ     -0.602800
     11 OXT         3.1530    1.7860    2.0400 o         1 SRZ     -0.840300
     12 HZ1C       -3.4480    0.8170   -1.1220 h1        1 SRZ      0.015700
     13 HZ2C       -3.4480   -0.7770   -1.1220 h1        1 SRZ      0.015700
     14 HE1C       -1.2850    0.8170   -2.0420 hc        1 SRZ      0.065700
     15 HE2C       -1.2850   -0.7770   -2.0420 hc        1 SRZ      0.065700
     16 HH         -4.4810    0.0200   -2.9120 ho        1 SRZ      0.387000
     17 HD1C       -1.4100    0.8300    0.2970 h1        1 SRZ      0.012700
     18 HD2C       -1.4520   -0.7640    0.3120 h1        1 SRZ      0.012700
     19 HB1C        0.4610   -0.6710    1.6890 h1        1 SRZ      0.035200
     20 HB2C        0.7230    0.8930    1.5320 h1        1 SRZ      0.035200
     21 HA          2.5480   -0.7390    0.2110 h1        1 SRZ      0.059700
     22 HN1         2.5840   -1.8850    2.0190 hn        1 SRZ      0.329800
     23 HN2         3.6860   -0.9130    2.2600 hn        1 SRZ      0.329800
@<TRIPOS>BOND
     1    1    2 1   
     2    1   10 1   
     3    1   12 1   
     4    1   13 1   
     5    2    3 1   
     6    2   14 1   
     7    2   15 1   
     8    3    4 1   
     9    3   17 1   
    10    3   18 1   
    11    4    5 1   
    12    5    6 1   
    13    5   19 1   
    14    5   20 1   
    15    6    7 1   
    16    6    9 1   
    17    6   21 1   
    18    7    8 1   
    19    7   11 1   
    20    9   22 1   
    21    9   23 1   
    22   10   16 1   
@<TRIPOS>SUBSTRUCTURE
     1 SRZ         1 TEMP              0 ****  ****    0 ROOT
