@<TRIPOS>MOLECULE
SRZ
   23    22     1     0     0
SMALL
bcc


@<TRIPOS>ATOM
      1 CZ          4.1830    0.4980   -0.3420 c3        1 SRZ      0.130400
      2 CE          2.9550   -0.1930    0.2210 c3        1 SRZ     -0.087400
      3 CD          1.7030    0.4100   -0.3910 c3        1 SRZ      0.135400
      4 OG          0.5920   -0.2400    0.2070 os        1 SRZ     -0.430600
      5 CB         -0.6520    0.2420   -0.3170 c3        1 SRZ      0.111400
      6 CA         -1.7940   -0.3950    0.4870 c3        1 SRZ      0.029500
      7 C          -3.0960    0.3030   -0.0500 c         1 SRZ      0.908600
      8 O          -3.8220   -0.3330   -0.8630 o         1 SRZ     -0.835800
      9 N          -1.8480   -1.8430    0.4610 n3        1 SRZ     -0.898800
     10 OH          5.3240   -0.1270    0.2280 oh        1 SRZ     -0.602800
     11 OXT        -3.3140    1.4780    0.3500 o         1 SRZ     -0.835800
     12 HZ1C        4.2160    0.3960   -1.4610 h1        1 SRZ      0.015700
     13 HZ2C        4.1770    1.5910   -0.0810 h1        1 SRZ      0.015700
     14 HE1C        2.9980   -1.2900    0.0020 hc        1 SRZ      0.065200
     15 HE2C        2.9280   -0.0790    1.3350 hc        1 SRZ      0.065200
     16 HH          6.0910    0.3380   -0.1220 ho        1 SRZ      0.388000
     17 HD1C        1.6530    1.5150   -0.1890 h1        1 SRZ      0.014200
     18 HD2C        1.6880    0.2500   -1.5040 h1        1 SRZ      0.014200
     19 HB1C       -0.7070    1.3570   -0.2070 h1        1 SRZ      0.032700
     20 HB2C       -0.7150   -0.0320   -1.4040 h1        1 SRZ      0.032700
     21 HA         -1.6620   -0.0960    1.5670 h1        1 SRZ      0.057700
     22 HN1        -2.6180   -2.1300   -0.1210 hn        1 SRZ      0.336800
     23 HN2        -1.0040   -2.2100    0.0650 hn        1 SRZ      0.336800
@<TRIPOS>BOND
     1    1    2 1   
     2    1   10 1   
     3    1   12 1   
     4    1   13 1   
     5    2    3 1   
     6    2   14 1   
     7    2   15 1   
     8    3    4 1   
     9    3   17 1   
    10    3   18 1   
    11    4    5 1   
    12    5    6 1   
    13    5   19 1   
    14    5   20 1   
    15    6    7 1   
    16    6    9 1   
    17    6   21 1   
    18    7    8 1   
    19    7   11 1   
    20    9   22 1   
    21    9   23 1   
    22   10   16 1   
@<TRIPOS>SUBSTRUCTURE
     1 SRZ         1 TEMP              0 ****  ****    0 ROOT
