@<TRIPOS>MOLECULE
SS0
   55    57     1     0     0
SMALL
bcc


@<TRIPOS>ATOM
      1 C           0.4480    3.1990    0.8260 c3        1 SS0     -0.195500
      2 N           1.1940    1.9580    0.4780 n4        1 SS0      0.001000
      3 O           7.6560   -3.9480    3.3330 os        1 SS0     -0.089000
      4 C01         7.5300   -2.6680    3.1240 c2        1 SS0      0.268000
      5 N01         7.1400    1.4250    2.2330 n2        1 SS0     -0.007000
      6 C02         8.7950   -1.8790    3.0400 c3        1 SS0     -0.246000
      7 N02         5.1650    0.2440    2.4890 na        1 SS0     -0.131000
      8 C03         8.7100   -0.4790    2.6540 c1        1 SS0      0.089000
      9 C04         7.4280    0.0810    2.4940 c2        1 SS0     -0.187000
     10 N04         4.1490   -6.4020    1.4200 n4        1 SS0      0.172000
     11 C05         6.1970   -0.6550    2.6470 c2        1 SS0     -0.033000
     12 C06         6.1480   -2.1050    2.9540 c3        1 SS0     -0.109000
     13 C07         5.7890    1.5300    2.2380 c2        1 SS0      0.006000
     14 C08         5.3940   -2.9250    1.8980 c3        1 SS0     -0.162000
     15 C09         5.6190   -4.4380    2.0160 c3        1 SS0      0.037000
     16 C10         6.4350   -4.7660    3.2760 c3        1 SS0     -0.076000
     17 C11         4.3590   -5.1580    2.0840 c2        1 SS0     -0.774000
     18 C12         3.7510    0.0370    2.6400 c3        1 SS0     -0.017000
     19 C13         4.2230   -7.5650    2.3530 c3        1 SS0     -0.187000
     20 C14         2.8380   -6.4210    0.7120 c3        1 SS0     -0.187000
     21 C15         2.9210    0.3350    1.3800 c3        1 SS0     -0.192000
     22 C16         1.8720    1.3980    1.6960 c3        1 SS0     -0.131000
     23 C17         0.2850    0.9640   -0.1520 c3        1 SS0     -0.195500
     24 H          -0.3250    2.9680    1.6070 hx        1 SS0      0.149667
     25 HA          1.1650    3.9690    1.2200 hx        1 SS0      0.149667
     26 HB         -0.0580    3.5960   -0.0960 hx        1 SS0      0.149667
     27 H02         9.5100   -2.4010    2.3250 hc        1 SS0      0.221000
     28 H03         9.3300   -1.9180    4.0460 hc        1 SS0      0.221000
     29 HN03        5.4020    3.2480    1.2950 hn        1 SS0      0.199500
     30 HN0A        4.9310    3.2170    2.8690 hn        1 SS0      0.199500
     31 H08         5.6190   -2.2530    3.9520 hc        1 SS0      0.172000
     32 H08A        5.7120   -2.5890    0.8760 hc        1 SS0      0.116000
     33 H09         4.2990   -2.7060    1.9970 hc        1 SS0      0.116000
     34 H10         6.2490   -4.7580    1.1340 hc        1 SS0      0.089000
     35 H10A        6.8540   -5.8060    3.2590 h1        1 SS0      0.143500
     36 H11         5.8630   -4.5790    4.2190 h1        1 SS0      0.143500
     37 H11A        3.5450   -4.8250    2.7240 hx        1 SS0      0.154000
     38 H12         3.5810   -1.0370    2.9420 h1        1 SS0      0.122000
     39 H12A        3.4010    0.6900    3.4940 h1        1 SS0      0.122000
     40 H13         4.0830   -8.5220    1.7850 hx        1 SS0      0.121000
     41 H13A        5.2250   -7.5600    2.8550 hx        1 SS0      0.121000
     42 H13B        3.4240   -7.4650    3.1320 hx        1 SS0      0.121000
     43 H14         2.7240   -7.3910    0.1610 hx        1 SS0      0.121000
     44 H14A        2.0110   -6.3120    1.4600 hx        1 SS0      0.121000
     45 H14B        2.8040   -5.5610   -0.0050 hx        1 SS0      0.121000
     46 H15         1.0730    0.9680    2.3650 hx        1 SS0      0.152000
     47 H15A        3.5820    0.6760    0.5370 hc        1 SS0      0.121000
     48 H16         2.4200   -0.6140    1.0500 hc        1 SS0      0.121000
     49 H16A        2.3610    2.2650    2.2300 hx        1 SS0      0.152000
     50 H17         0.8690    0.0460   -0.4250 hx        1 SS0      0.149667
     51 H17A       -0.1670    1.4110   -1.0790 hx        1 SS0      0.149667
     52 H17B       -0.5340    0.6930    0.5670 hx        1 SS0      0.149667
     53 N03         4.9850    2.6830    2.0170 nh        1 SS0     -0.300000
     54 HN1         1.9260    2.2030   -0.2050 hn        1 SS0      0.251000
     55 H041        4.8850   -6.5280    0.7150 hn        1 SS0      0.207000
@<TRIPOS>BOND
     1    1    2 1   
     2    1   24 1   
     3    1   25 1   
     4    1   26 1   
     5    2   22 1   
     6    2   23 1   
     7    2   54 1   
     8    3    4 1   
     9    3   16 1   
    10    4    6 1   
    11    4   12 1   
    12    5    9 1   
    13    5   13 1   
    14    6    8 1   
    15    6   27 1   
    16    6   28 1   
    17    7   11 1   
    18    7   13 1   
    19    7   18 1   
    20    8    9 1   
    21    9   11 1   
    22   10   17 1   
    23   10   19 1   
    24   10   20 1   
    25   10   55 1   
    26   11   12 1   
    27   12   14 1   
    28   12   31 1   
    29   13   53 1   
    30   14   15 1   
    31   14   32 1   
    32   14   33 1   
    33   15   16 1   
    34   15   17 1   
    35   15   34 1   
    36   16   35 1   
    37   16   36 1   
    38   17   37 1   
    39   18   21 1   
    40   18   38 1   
    41   18   39 1   
    42   19   40 1   
    43   19   41 1   
    44   19   42 1   
    45   20   43 1   
    46   20   44 1   
    47   20   45 1   
    48   21   22 1   
    49   21   47 1   
    50   21   48 1   
    51   22   46 1   
    52   22   49 1   
    53   23   50 1   
    54   23   51 1   
    55   23   52 1   
    56   29   53 1   
    57   30   53 1   
@<TRIPOS>SUBSTRUCTURE
     1 SS0         1 TEMP              0 ****  ****    0 ROOT
