@<TRIPOS>MOLECULE
SS0
   55    57     1     0     0
SMALL
bcc


@<TRIPOS>ATOM
      1 C           1.4220    3.3890    0.3980 c3        1 SS0     -0.190500
      2 N           2.2710    2.1670    0.4230 nx        1 SS0     -0.031000
      3 O           6.9580   -4.0260    1.3490 os        1 SS0      0.137000
      4 C01         6.8090   -2.8640    1.9490 c2        1 SS0     -0.142000
      5 N01         6.4230    1.2630    2.3130 n2        1 SS0     -0.009000
      6 C02         8.0900   -2.1240    2.1410 c3        1 SS0     -0.184000
      7 N02         4.4450    0.0580    2.3910 na        1 SS0     -0.158000
      8 C03         8.0080   -0.6720    2.2150 c1        1 SS0      0.090000
      9 C04         6.7050   -0.1050    2.2530 c2        1 SS0     -0.173000
     10 N04         4.4590   -6.6440    2.7820 nx        1 SS0      0.012000
     11 C05         5.4830   -0.8570    2.3020 c2        1 SS0     -0.027000
     12 C06         5.4660   -2.3470    2.3590 c3        1 SS0     -0.017000
     13 C07         5.0720    1.3610    2.3960 c2        1 SS0     -0.036000
     14 C08         4.3610   -2.9950    1.5320 c3        1 SS0     -0.167000
     15 C09         4.5440   -4.5050    1.4190 c3        1 SS0     -0.059000
     16 C10         5.9350   -4.8510    1.1080 c2        1 SS0     -0.440000
     17 C11         4.0660   -5.1960    2.7150 c3        1 SS0     -0.131000
     18 C12         3.0360   -0.1730    2.5270 c3        1 SS0     -0.034000
     19 C13         5.7400   -6.8280    3.5180 c3        1 SS0     -0.195500
     20 C14         3.3840   -7.4680    3.3940 c3        1 SS0     -0.195500
     21 C15         2.2510   -0.2610    1.2120 c3        1 SS0     -0.205000
     22 C16         1.4600    0.9920    0.8650 c3        1 SS0     -0.128000
     23 C17         2.8820    1.9470   -0.9120 c3        1 SS0     -0.190500
     24 H           0.5660    3.2450   -0.3140 hx        1 SS0      0.142667
     25 HA          2.0430    4.2620    0.0610 hx        1 SS0      0.142667
     26 HB          1.0240    3.5900    1.4280 hx        1 SS0      0.142667
     27 H02         8.8160   -2.3810    1.3090 hc        1 SS0      0.181000
     28 H03         8.5920   -2.4690    3.0980 hc        1 SS0      0.181000
     29 HN03        4.8850    3.3450    2.2030 hn        1 SS0      0.208500
     30 HN0A        3.9370    2.6930    3.3740 hn        1 SS0      0.208500
     31 H08         5.3120   -2.6340    3.4470 hc        1 SS0      0.126000
     32 H08A        4.3750   -2.5670    0.4940 hc        1 SS0      0.106000
     33 H09         3.3600   -2.7710    1.9820 hc        1 SS0      0.106000
     34 H10         3.8850   -4.8730    0.5770 hc        1 SS0      0.126000
     35 H10A        6.2410   -5.6660    0.4420 h4        1 SS0      0.201000
     36 H11         2.9430   -5.1310    2.7690 hx        1 SS0      0.133500
     37 H11A        4.5000   -4.6760    3.6140 hx        1 SS0      0.133500
     38 H12         2.8990   -1.1430    3.0900 h1        1 SS0      0.119500
     39 H12A        2.5960    0.6390    3.1750 h1        1 SS0      0.119500
     40 H13         6.5340   -6.1980    3.0270 hx        1 SS0      0.148333
     41 H13A        5.6100   -6.5180    4.5880 hx        1 SS0      0.148333
     42 H13B        6.0370   -7.9110    3.4760 hx        1 SS0      0.148333
     43 H14         3.1720   -7.0990    4.4330 hx        1 SS0      0.148333
     44 H14A        3.7210   -8.5400    3.4420 hx        1 SS0      0.148333
     45 H14B        2.4540   -7.3990    2.7690 hx        1 SS0      0.148333
     46 H15         0.7360    0.7450    0.0340 hx        1 SS0      0.144000
     47 H15A        2.9130   -0.5680    0.3600 hc        1 SS0      0.128000
     48 H16         1.4840   -1.0780    1.3350 hc        1 SS0      0.128000
     49 H16A        0.8610    1.3150    1.7670 hx        1 SS0      0.144000
     50 H17         3.5620    1.0560   -0.8730 hx        1 SS0      0.142667
     51 H17A        2.0790    1.7770   -1.6770 hx        1 SS0      0.142667
     52 H17B        3.4800    2.8540   -1.1980 hx        1 SS0      0.142667
     53 N03         4.2990    2.5590    2.4430 nv        1 SS0     -0.306000
     54 HN1         3.0450    2.3180    1.1280 hn        1 SS0      0.289000
     55 H041        4.6100   -6.9700    1.8150 hn        1 SS0      0.252000
@<TRIPOS>BOND
     1    1    2 1   
     2    1   24 1   
     3    1   25 1   
     4    1   26 1   
     5    2   22 1   
     6    2   23 1   
     7    2   54 1   
     8    3    4 1   
     9    3   16 1   
    10    4    6 1   
    11    4   12 1   
    12    5    9 1   
    13    5   13 1   
    14    6    8 1   
    15    6   27 1   
    16    6   28 1   
    17    7   11 1   
    18    7   13 1   
    19    7   18 1   
    20    8    9 1   
    21    9   11 1   
    22   10   17 1   
    23   10   19 1   
    24   10   20 1   
    25   10   55 1   
    26   11   12 1   
    27   12   14 1   
    28   12   31 1   
    29   13   53 1   
    30   14   15 1   
    31   14   32 1   
    32   14   33 1   
    33   15   16 1   
    34   15   17 1   
    35   15   34 1   
    36   16   35 1   
    37   17   36 1   
    38   17   37 1   
    39   18   21 1   
    40   18   38 1   
    41   18   39 1   
    42   19   40 1   
    43   19   41 1   
    44   19   42 1   
    45   20   43 1   
    46   20   44 1   
    47   20   45 1   
    48   21   22 1   
    49   21   47 1   
    50   21   48 1   
    51   22   46 1   
    52   22   49 1   
    53   23   50 1   
    54   23   51 1   
    55   23   52 1   
    56   29   53 1   
    57   30   53 1   
@<TRIPOS>SUBSTRUCTURE
     1 SS0         1 TEMP              0 ****  ****    0 ROOT
