@<TRIPOS>MOLECULE
SS0
   53    55     1     0     0
SMALL
bcc


@<TRIPOS>ATOM
      1 C           4.8370   -2.4480   -0.3680 c3        1 SS0      0.154600
      2 N           3.4900   -2.3280   -0.8810 n3        1 SS0     -0.734600
      3 O          -2.2170    2.9790   -0.5120 os        1 SS0     -0.324900
      4 C01        -2.4490    1.6190   -0.3730 ca        1 SS0      0.126100
      5 N01        -3.3000   -2.4460   -0.0900 nc        1 SS0     -0.603100
      6 C02        -3.7250    1.2060   -0.8130 ca        1 SS0     -0.164000
      7 N02        -1.2140   -1.7640    0.7020 na        1 SS0     -0.171300
      8 C03        -4.0860   -0.1290   -0.7660 ca        1 SS0     -0.058000
      9 C04        -3.1640   -1.0560   -0.2620 ca        1 SS0      0.061400
     10 N04         2.5580    2.5290    0.6950 n3        1 SS0     -0.739600
     11 C05        -1.8570   -0.6180    0.1920 ca        1 SS0     -0.040200
     12 C06        -1.4800    0.7330    0.1220 ca        1 SS0     -0.142300
     13 C07        -2.1170   -2.8600    0.4380 cd        1 SS0      0.570700
     14 C08        -0.1400    1.2190    0.5370 c3        1 SS0     -0.019100
     15 C09         0.1330    2.6270    0.0300 c3        1 SS0     -0.098700
     16 C10        -1.1080    3.4850    0.2320 c3        1 SS0      0.129400
     17 C11         1.3120    3.2800    0.7570 c3        1 SS0      0.174800
     18 C12         0.1860   -1.9180    0.9670 c3        1 SS0      0.043300
     19 C13         3.0470    2.3260   -0.6510 c3        1 SS0      0.153600
     20 C14         3.5630    3.0820    1.5770 c3        1 SS0      0.153600
     21 C15         1.0750   -2.1170   -0.2650 c3        1 SS0     -0.111400
     22 C16         2.5350   -1.9980    0.1690 c3        1 SS0      0.168800
     23 C17         3.4020   -1.4550   -2.0300 c3        1 SS0      0.154600
     24 H           4.8540   -3.2260    0.4400 h1        1 SS0      0.031533
     25 HA          5.5120   -2.7810   -1.1990 h1        1 SS0      0.031533
     26 HB          5.2400   -1.4870    0.0550 h1        1 SS0      0.031533
     27 H02        -4.4210    1.9660   -1.1970 ha        1 SS0      0.149000
     28 H03        -5.0770   -0.4610   -1.1090 ha        1 SS0      0.150000
     29 HN03       -2.5260   -4.8240    0.5590 hn        1 SS0      0.397300
     30 HN0A       -1.3080   -4.3260    1.5660 hn        1 SS0      0.397300
     31 H08        -0.0670    1.2020    1.6590 hc        1 SS0      0.059200
     32 H08A        0.6580    0.5370    0.1340 hc        1 SS0      0.059200
     33 H09         0.3470    2.5800   -1.0740 hc        1 SS0      0.068700
     34 H10        -0.9700    4.5200   -0.1780 h1        1 SS0      0.056700
     35 H10A       -1.3880    3.5330    1.3170 h1        1 SS0      0.056700
     36 H11         1.0380    3.3860    1.8460 h1        1 SS0      0.033200
     37 H11A        1.4390    4.3220    0.3350 h1        1 SS0      0.033200
     38 H12         0.5270   -1.0040    1.5340 h1        1 SS0      0.058700
     39 H12A        0.3210   -2.8030    1.6540 h1        1 SS0      0.058700
     40 H13         3.2060    3.2850   -1.2160 h1        1 SS0      0.032700
     41 H13A        4.0210    1.7720   -0.6090 h1        1 SS0      0.032700
     42 H13B        2.3080    1.6970   -1.2140 h1        1 SS0      0.032700
     43 H14         3.1610    3.1020    2.6230 h1        1 SS0      0.032700
     44 H14A        4.4680    2.4200    1.5540 h1        1 SS0      0.032700
     45 H14B        3.8770    4.1250    1.2950 h1        1 SS0      0.032700
     46 H15         0.8790   -3.1220   -0.7190 hc        1 SS0      0.066700
     47 H15A        0.8380   -1.3430   -1.0400 hc        1 SS0      0.066700
     48 H16         2.7120   -2.7130    1.0220 h1        1 SS0      0.032700
     49 H16A        2.7030   -0.9510    0.5630 h1        1 SS0      0.032700
     50 H17         4.2000   -1.7310   -2.7680 h1        1 SS0      0.031533
     51 H17A        2.4020   -1.6020   -2.5160 h1        1 SS0      0.031533
     52 H17B        3.5170   -0.3650   -1.7690 h1        1 SS0      0.031533
     53 N03        -1.7500   -4.2020    0.6780 nh        1 SS0     -0.847800
@<TRIPOS>BOND
     1    1    2 1   
     2    1   24 1   
     3    1   25 1   
     4    1   26 1   
     5    2   22 1   
     6    2   23 1   
     7    3    4 1   
     8    3   16 1   
     9    4    6 ar  
    10    4   12 ar  
    11    5    9 1   
    12    5   13 2   
    13    6    8 ar  
    14    6   27 1   
    15    7   11 1   
    16    7   13 1   
    17    7   18 1   
    18    8    9 ar  
    19    8   28 1   
    20    9   11 ar  
    21   10   17 1   
    22   10   19 1   
    23   10   20 1   
    24   11   12 ar  
    25   12   14 1   
    26   13   53 1   
    27   14   15 1   
    28   14   31 1   
    29   14   32 1   
    30   15   16 1   
    31   15   17 1   
    32   15   33 1   
    33   16   34 1   
    34   16   35 1   
    35   17   36 1   
    36   17   37 1   
    37   18   21 1   
    38   18   38 1   
    39   18   39 1   
    40   19   40 1   
    41   19   41 1   
    42   19   42 1   
    43   20   43 1   
    44   20   44 1   
    45   20   45 1   
    46   21   22 1   
    47   21   46 1   
    48   21   47 1   
    49   22   48 1   
    50   22   49 1   
    51   23   50 1   
    52   23   51 1   
    53   23   52 1   
    54   29   53 1   
    55   30   53 1   
@<TRIPOS>SUBSTRUCTURE
     1 SS0         1 TEMP              0 ****  ****    0 ROOT
