@<TRIPOS>MOLECULE
SS0
   56    58     1     0     0
SMALL
bcc


@<TRIPOS>ATOM
      1 C           0.4000    2.6200   -0.2410 c3        1 SS0     -0.198000
      2 N           1.7750    2.0420   -0.3080 n4        1 SS0      0.001000
      3 O           6.5550   -4.0280    1.1310 os        1 SS0      0.156000
      4 C01         6.7520   -3.0230    1.9660 c2        1 SS0     -0.212000
      5 N01         7.5040    0.8720    3.1110 n2        1 SS0      0.083000
      6 C02         8.1900   -2.7090    2.1950 c3        1 SS0     -0.191000
      7 N02         5.2440    0.3050    2.9100 na        1 SS0     -0.127000
      8 C03         8.5080   -1.3550    2.6080 c1        1 SS0      0.134000
      9 C04         7.3910   -0.4750    2.8060 c2        1 SS0     -0.168000
     10 N04         3.9160   -6.4450    2.6330 n4        1 SS0      0.009000
     11 C05         5.9970   -0.8460    2.7050 c2        1 SS0      0.030000
     12 C06         5.6310   -2.2960    2.6360 c3        1 SS0     -0.016000
     13 C07         6.2230    1.3350    3.1670 c2        1 SS0     -0.192000
     14 C08         4.2750   -2.6340    2.0340 c3        1 SS0     -0.163000
     15 C09         4.1590   -4.1090    1.6500 c3        1 SS0     -0.072000
     16 C10         5.3560   -4.5610    0.9300 c2        1 SS0     -0.370000
     17 C11         3.9010   -4.9690    2.9060 c3        1 SS0     -0.132000
     18 C12         3.8660    0.5730    2.5960 c3        1 SS0     -0.038000
     19 C13         5.2580   -7.0390    2.8910 c3        1 SS0     -0.197500
     20 C14         2.8780   -7.1510    3.4370 c3        1 SS0     -0.197500
     21 C15         3.6210    1.1250    1.1800 c3        1 SS0     -0.214000
     22 C16         2.1270    1.3830    0.9920 c3        1 SS0     -0.134000
     23 C17         1.8810    1.1010   -1.4570 c3        1 SS0     -0.198000
     24 H          -0.3430    1.8060   -0.0260 hx        1 SS0      0.157333
     25 HA          0.1530    3.0960   -1.2320 hx        1 SS0      0.157333
     26 HB          0.3560    3.4000    0.5670 hx        1 SS0      0.157333
     27 H02         8.8000   -2.9250    1.2610 hc        1 SS0      0.199500
     28 H03         8.6210   -3.4040    2.9850 hc        1 SS0      0.199500
     29 HN03        5.2930    3.1520    2.9200 hn        1 SS0      0.281667
     30 HN0A        6.7970    3.2280    3.6660 hn        1 SS0      0.281667
     31 H08         5.6150   -2.6370    3.7250 hc        1 SS0      0.145000
     32 H08A        4.1110   -2.0240    1.1070 hc        1 SS0      0.099500
     33 H09         3.4650   -2.3880    2.7710 hc        1 SS0      0.099500
     34 H10         3.2640   -4.2180    0.9670 hc        1 SS0      0.132000
     35 H10A        5.3580   -5.2530    0.0770 h4        1 SS0      0.219000
     36 H11         2.8900   -4.6980    3.3270 hx        1 SS0      0.140500
     37 H11A        4.6840   -4.7510    3.6870 hx        1 SS0      0.140500
     38 H12         3.2840   -0.3870    2.7190 h1        1 SS0      0.128500
     39 H12A        3.4670    1.3070    3.3560 h1        1 SS0      0.128500
     40 H13         5.2450   -8.1230    2.5880 hx        1 SS0      0.153500
     41 H13A        5.5020   -6.9640    3.9840 hx        1 SS0      0.153500
     42 H13B        6.0260   -6.4870    2.2850 hx        1 SS0      0.153500
     43 H14         3.0650   -6.9780    4.5300 hx        1 SS0      0.153500
     44 H14A        2.9330   -8.2540    3.2210 hx        1 SS0      0.153500
     45 H14B        1.8600   -6.7680    3.1580 hx        1 SS0      0.153500
     46 H15         1.5590    0.4090    1.0440 hx        1 SS0      0.150000
     47 H15A        4.2040    2.0740    1.0320 hc        1 SS0      0.119000
     48 H16         3.9890    0.3850    0.4190 hc        1 SS0      0.119000
     49 H16A        1.7520    2.0520    1.8220 hx        1 SS0      0.150000
     50 H17         2.9200    0.6790   -1.5040 hx        1 SS0      0.157333
     51 H17A        1.1330    0.2720   -1.3380 hx        1 SS0      0.157333
     52 H17B        1.6620    1.6580   -2.4120 hx        1 SS0      0.157333
     53 N03         5.9080    2.6920    3.5960 n4        1 SS0      0.029000
     54 HN1         2.4370    2.8160   -0.4700 hn        1 SS0      0.250000
     55 H041        3.7000   -6.5850    1.6350 hn        1 SS0      0.250000
     56 H033        5.4650    2.6700    4.5260 hn        1 SS0      0.281667
@<TRIPOS>BOND
     1    1    2 1   
     2    1   24 1   
     3    1   25 1   
     4    1   26 1   
     5    2   22 1   
     6    2   23 1   
     7    2   54 1   
     8    3    4 1   
     9    3   16 1   
    10    4    6 1   
    11    4   12 1   
    12    5    9 1   
    13    5   13 1   
    14    6    8 1   
    15    6   27 1   
    16    6   28 1   
    17    7   11 1   
    18    7   13 1   
    19    7   18 1   
    20    8    9 1   
    21    9   11 1   
    22   10   17 1   
    23   10   19 1   
    24   10   20 1   
    25   10   55 1   
    26   11   12 1   
    27   12   14 1   
    28   12   31 1   
    29   13   53 1   
    30   14   15 1   
    31   14   32 1   
    32   14   33 1   
    33   15   16 1   
    34   15   17 1   
    35   15   34 1   
    36   16   35 1   
    37   17   36 1   
    38   17   37 1   
    39   18   21 1   
    40   18   38 1   
    41   18   39 1   
    42   19   40 1   
    43   19   41 1   
    44   19   42 1   
    45   20   43 1   
    46   20   44 1   
    47   20   45 1   
    48   21   22 1   
    49   21   47 1   
    50   21   48 1   
    51   22   46 1   
    52   22   49 1   
    53   23   50 1   
    54   23   51 1   
    55   23   52 1   
    56   29   53 1   
    57   30   53 1   
    58   53   56 1   
@<TRIPOS>SUBSTRUCTURE
     1 SS0         1 TEMP              0 ****  ****    0 ROOT
