@<TRIPOS>MOLECULE
SS1
   19    19     1     0     0
SMALL
bcc


@<TRIPOS>ATOM
      1 O1          0.0700    0.0730   -0.1960 oh        1 SS1     -0.599800
      2 C1          1.4870    0.0280   -0.0690 c3        1 SS1      0.186400
      3 C2          1.9260    0.0030    1.3670 ca        1 SS1     -0.129300
      4 C3          3.1240   -0.6290    1.7170 ca        1 SS1     -0.119500
      5 C4          3.5420   -0.6480    3.0470 ca        1 SS1     -0.130500
      6 C5          2.7670   -0.0390    4.0340 ca        1 SS1     -0.126000
      7 C6          1.5710    0.5910    3.6880 ca        1 SS1     -0.130500
      8 C7          1.1520    0.6140    2.3590 ca        1 SS1     -0.119500
      9 C8          2.0190    1.2580   -0.7890 c3        1 SS1     -0.087100
     10 HO1        -0.2830   -0.6480    0.3380 ho        1 SS1      0.403000
     11 H1          1.8620   -0.9050   -0.5860 h1        1 SS1      0.036700
     12 H3          3.7370   -1.1110    0.9410 ha        1 SS1      0.138000
     13 H4          4.4850   -1.1450    3.3170 ha        1 SS1      0.132500
     14 H5          3.0980   -0.0560    5.0820 ha        1 SS1      0.132000
     15 H6          0.9590    1.0740    4.4640 ha        1 SS1      0.132500
     16 H7          0.2130    1.1150    2.0780 ha        1 SS1      0.138000
     17 H81         1.6660    1.2550   -1.8480 hc        1 SS1      0.047367
     18 H82         3.1340    1.2480   -0.7680 hc        1 SS1      0.047367
     19 H83         1.6490    2.1860   -0.2930 hc        1 SS1      0.047367
@<TRIPOS>BOND
     1    1    2 1   
     2    1   10 1   
     3    2    3 1   
     4    2    9 1   
     5    2   11 1   
     6    3    4 ar  
     7    3    8 ar  
     8    4    5 ar  
     9    4   12 1   
    10    5    6 ar  
    11    5   13 1   
    12    6    7 ar  
    13    6   14 1   
    14    7    8 ar  
    15    7   15 1   
    16    8   16 1   
    17    9   17 1   
    18    9   18 1   
    19    9   19 1   
@<TRIPOS>SUBSTRUCTURE
     1 SS1         1 TEMP              0 ****  ****    0 ROOT
