@<TRIPOS>MOLECULE
SS1
   19    19     1     0     0
SMALL
bcc


@<TRIPOS>ATOM
      1 O1         -2.2870    0.5160    1.0310 oh        1 SS1     -0.590800
      2 C1         -1.6520   -0.4490    0.2040 c3        1 SS1      0.183400
      3 C2         -0.1720   -0.2120    0.0980 ca        1 SS1     -0.114300
      4 C3          0.7240   -1.2130    0.4880 ca        1 SS1     -0.119500
      5 C4          2.0990   -1.0040    0.3860 ca        1 SS1     -0.127500
      6 C5          2.5880    0.2070   -0.1020 ca        1 SS1     -0.126000
      7 C6          1.6990    1.2100   -0.4890 ca        1 SS1     -0.127500
      8 C7          0.3250    1.0010   -0.3910 ca        1 SS1     -0.119500
      9 C8         -2.2990   -0.4830   -1.1720 c3        1 SS1     -0.125100
     10 HO1        -2.1100    1.3850    0.6520 ho        1 SS1      0.397000
     11 H1         -1.8520   -1.4210    0.7440 h1        1 SS1      0.078700
     12 H3          0.3430   -2.1680    0.8800 ha        1 SS1      0.129500
     13 H4          2.7970   -1.7960    0.6940 ha        1 SS1      0.132500
     14 H5          3.6730    0.3720   -0.1800 ha        1 SS1      0.132000
     15 H6          2.0820    2.1670   -0.8730 ha        1 SS1      0.132500
     16 H7         -0.3730    1.7930   -0.7020 ha        1 SS1      0.129500
     17 H81        -2.1090    0.4710   -1.7190 hc        1 SS1      0.045033
     18 H82        -1.8820   -1.3280   -1.7700 hc        1 SS1      0.045033
     19 H83        -3.4010   -0.6200   -1.0650 hc        1 SS1      0.045033
@<TRIPOS>BOND
     1    1    2 1   
     2    1   10 1   
     3    2    3 1   
     4    2    9 1   
     5    2   11 1   
     6    3    4 ar  
     7    3    8 ar  
     8    4    5 ar  
     9    4   12 1   
    10    5    6 ar  
    11    5   13 1   
    12    6    7 ar  
    13    6   14 1   
    14    7    8 ar  
    15    7   15 1   
    16    8   16 1   
    17    9   17 1   
    18    9   18 1   
    19    9   19 1   
@<TRIPOS>SUBSTRUCTURE
     1 SS1         1 TEMP              0 ****  ****    0 ROOT
