@<TRIPOS>MOLECULE
SS1
   19    19     1     0     0
SMALL
bcc


@<TRIPOS>ATOM
      1 O1          0.0860    0.0850   -0.2210 oh        1 SS1     -0.599800
      2 C1          1.5030    0.0500   -0.0810 c3        1 SS1      0.186400
      3 C2          1.9290    0.0070    1.3580 ca        1 SS1     -0.129300
      4 C3          3.1290   -0.6200    1.7110 ca        1 SS1     -0.119500
      5 C4          3.5350   -0.6550    3.0440 ca        1 SS1     -0.130500
      6 C5          2.7450   -0.0680    4.0320 ca        1 SS1     -0.126000
      7 C6          1.5470    0.5570    3.6850 ca        1 SS1     -0.130500
      8 C7          1.1400    0.5960    2.3520 ca        1 SS1     -0.119500
      9 C8          2.0320    1.2940   -0.7780 c3        1 SS1     -0.087100
     10 HO1        -0.2650   -0.6470    0.2990 ho        1 SS1      0.403000
     11 H1          1.8900   -0.8720   -0.6080 h1        1 SS1      0.036700
     12 H3          3.7540   -1.0840    0.9330 ha        1 SS1      0.138000
     13 H4          4.4800   -1.1470    3.3150 ha        1 SS1      0.132500
     14 H5          3.0670   -0.0970    5.0830 ha        1 SS1      0.132000
     15 H6          0.9230    1.0220    4.4620 ha        1 SS1      0.132500
     16 H7          0.1990    1.0930    2.0700 ha        1 SS1      0.138000
     17 H81         3.1460    1.2930   -0.7470 hc        1 SS1      0.047367
     18 H82         1.6890    1.3040   -1.8400 hc        1 SS1      0.047367
     19 H83         1.6490    2.2120   -0.2720 hc        1 SS1      0.047367
@<TRIPOS>BOND
     1    1    2 1   
     2    1   10 1   
     3    2    3 1   
     4    2    9 1   
     5    2   11 1   
     6    3    4 ar  
     7    3    8 ar  
     8    4    5 ar  
     9    4   12 1   
    10    5    6 ar  
    11    5   13 1   
    12    6    7 ar  
    13    6   14 1   
    14    7    8 ar  
    15    7   15 1   
    16    8   16 1   
    17    9   17 1   
    18    9   18 1   
    19    9   19 1   
@<TRIPOS>SUBSTRUCTURE
     1 SS1         1 TEMP              0 ****  ****    0 ROOT
