@<TRIPOS>MOLECULE
SS1
   19    17     1     0     0
SMALL
bcc


@<TRIPOS>ATOM
      1 O1         -1.9850   -0.2240   -1.4750 oh        1 SS1     -0.327000
      2 C1         -0.5770   -0.2240   -1.4750 c3        1 SS1      0.068000
      3 C2         -0.0730   -0.2240   -0.0500 c2        1 SS1     -0.122000
      4 C3          1.0250   -0.9950    0.2970 c2        1 SS1     -0.121000
      5 C4          1.4870   -0.9950    1.6040 c1        1 SS1     -0.131000
      6 C5          0.8510   -0.2240    2.5640 c1        1 SS1     -0.128000
      7 C6         -0.2470    0.5470    2.2170 c1        1 SS1     -0.128000
      8 C7         -0.7100    0.5470    0.9100 c1        1 SS1     -0.118000
      9 C8         -0.0730    1.0110   -2.1880 c3        1 SS1     -0.205000
     10 HO1        -2.2810   -0.9080   -1.9570 ho        1 SS1      0.202000
     11 H1         -0.2520   -1.0210   -1.9350 h1        1 SS1      0.076000
     12 H3          1.4730   -1.5380   -0.3790 ha        1 SS1      0.132000
     13 H4          2.2600   -1.5380    1.8480 ha        1 SS1      0.132000
     14 H5          1.1760   -0.2240    3.4840 ha        1 SS1      0.132500
     15 H6         -0.6950    1.0900    2.8930 ha        1 SS1      0.132500
     16 H7         -1.4830    1.0900    0.6660 ha        1 SS1      0.144000
     17 H81         0.8950    1.0740   -2.0830 hc        1 SS1      0.086667
     18 H82        -0.4950    1.8030   -1.8040 hc        1 SS1      0.086667
     19 H83        -0.2950    0.9520   -3.1370 hc        1 SS1      0.086667
@<TRIPOS>BOND
     1    1    2 1   
     2    1   10 1   
     3    2    3 1   
     4    2    9 1   
     5    2   11 1   
     6    3    4 1   
     7    3    8 1   
     8    4    5 1   
     9    4   12 1   
    10    5   13 1   
    11    6    7 1   
    12    6   14 1   
    13    7   15 1   
    14    8   16 1   
    15    9   17 1   
    16    9   18 1   
    17    9   19 1   
@<TRIPOS>SUBSTRUCTURE
     1 SS1         1 TEMP              0 ****  ****    0 ROOT
