@<TRIPOS>MOLECULE
SS2
   19    19     1     0     0
SMALL
bcc


@<TRIPOS>ATOM
      1 O1         -0.0510   -0.2210    0.0650 oh        1 SS2     -0.599800
      2 C1          1.3510    0.0380    0.0500 c3        1 SS2      0.187400
      3 C2          1.8540   -0.0040    1.4630 ca        1 SS2     -0.084300
      4 C3          1.1050   -0.5830    2.4910 ca        1 SS2     -0.114500
      5 C4          1.6050   -0.6060    3.7930 ca        1 SS2     -0.133000
      6 C5          2.8540   -0.0540    4.0740 ca        1 SS2     -0.128000
      7 C6          3.6040    0.5260    3.0510 ca        1 SS2     -0.133000
      8 C7          3.1070    0.5540    1.7500 ca        1 SS2     -0.114500
      9 C8          2.0780   -0.9730   -0.8240 c3        1 SS2     -0.129100
     10 HO1        -0.3250   -0.2920   -0.8570 ho        1 SS2      0.402000
     11 H1          1.5140    1.0770   -0.3640 h1        1 SS2      0.038700
     12 H3          0.1160   -1.0120    2.2660 ha        1 SS2      0.140000
     13 H4          1.0100   -1.0610    4.5980 ha        1 SS2      0.130500
     14 H5          3.2470   -0.0740    5.1010 ha        1 SS2      0.130000
     15 H6          4.5880    0.9650    3.2700 ha        1 SS2      0.130500
     16 H7          3.6970    1.0160    0.9450 ha        1 SS2      0.140000
     17 H81         1.8560   -2.0110   -0.4810 hc        1 SS2      0.045367
     18 H82         1.7500   -0.8700   -1.8860 hc        1 SS2      0.045367
     19 H83         3.1790   -0.8010   -0.7670 hc        1 SS2      0.045367
@<TRIPOS>BOND
     1    1    2 1   
     2    1   10 1   
     3    2    3 1   
     4    2    9 1   
     5    2   11 1   
     6    3    4 ar  
     7    3    8 ar  
     8    4    5 ar  
     9    4   12 1   
    10    5    6 ar  
    11    5   13 1   
    12    6    7 ar  
    13    6   14 1   
    14    7    8 ar  
    15    7   15 1   
    16    8   16 1   
    17    9   17 1   
    18    9   18 1   
    19    9   19 1   
@<TRIPOS>SUBSTRUCTURE
     1 SS2         1 TEMP              0 ****  ****    0 ROOT
