@<TRIPOS>MOLECULE
SS2
   19    19     1     0     0
SMALL
bcc


@<TRIPOS>ATOM
      1 O1          0.0950   -0.1050   -0.2280 oh        1 SS2     -0.599800
      2 C1          1.5060    0.0010   -0.0700 c3        1 SS2      0.186400
      3 C2          1.9150   -0.0020    1.3750 ca        1 SS2     -0.129300
      4 C3          1.1510   -0.6780    2.3310 ca        1 SS2     -0.119500
      5 C4          1.5430   -0.6810    3.6680 ca        1 SS2     -0.130500
      6 C5          2.7020   -0.0100    4.0580 ca        1 SS2     -0.126000
      7 C6          3.4690    0.6640    3.1070 ca        1 SS2     -0.130500
      8 C7          3.0770    0.6700    1.7700 ca        1 SS2     -0.119500
      9 C8          2.1080   -1.1790   -0.8190 c3        1 SS2     -0.087100
     10 HO1        -0.3000    0.5820    0.3220 ho        1 SS2      0.403000
     11 H1          1.8470    0.9660   -0.5480 h1        1 SS2      0.036700
     12 H3          0.2400   -1.2110    2.0140 ha        1 SS2      0.138000
     13 H4          0.9380   -1.2140    4.4160 ha        1 SS2      0.132500
     14 H5          3.0120   -0.0130    5.1140 ha        1 SS2      0.132000
     15 H6          4.3840    1.1930    3.4130 ha        1 SS2      0.132500
     16 H7          3.6830    1.2030    1.0220 ha        1 SS2      0.138000
     17 H81         1.7720   -2.1390   -0.3610 hc        1 SS2      0.047367
     18 H82         3.2210   -1.1190   -0.7740 hc        1 SS2      0.047367
     19 H83         1.7760   -1.1570   -1.8840 hc        1 SS2      0.047367
@<TRIPOS>BOND
     1    1    2 1   
     2    1   10 1   
     3    2    3 1   
     4    2    9 1   
     5    2   11 1   
     6    3    4 ar  
     7    3    8 ar  
     8    4    5 ar  
     9    4   12 1   
    10    5    6 ar  
    11    5   13 1   
    12    6    7 ar  
    13    6   14 1   
    14    7    8 ar  
    15    7   15 1   
    16    8   16 1   
    17    9   17 1   
    18    9   18 1   
    19    9   19 1   
@<TRIPOS>SUBSTRUCTURE
     1 SS2         1 TEMP              0 ****  ****    0 ROOT
