@<TRIPOS>MOLECULE
SS2
   19    19     1     0     0
SMALL
bcc


@<TRIPOS>ATOM
      1 O1          2.2530   -0.9780   -0.5850 oh        1 SS2     -0.599800
      2 C1          1.6660    0.2710   -0.2230 c3        1 SS2      0.187400
      3 C2          0.1820    0.0810   -0.1110 ca        1 SS2     -0.084300
      4 C3         -0.3880   -1.1920   -0.0090 ca        1 SS2     -0.114500
      5 C4         -1.7720   -1.3310    0.0960 ca        1 SS2     -0.133000
      6 C5         -2.5920   -0.2040    0.1000 ca        1 SS2     -0.128000
      7 C6         -2.0260    1.0680   -0.0040 ca        1 SS2     -0.133000
      8 C7         -0.6450    1.2110   -0.1120 ca        1 SS2     -0.114500
      9 C8          2.2550    0.7870    1.0820 c3        1 SS2     -0.129100
     10 HO1         3.2080   -0.8500   -0.5460 ho        1 SS2      0.402000
     11 H1          1.8770    1.0130   -1.0490 h1        1 SS2      0.038700
     12 H3          0.2630   -2.0800   -0.0190 ha        1 SS2      0.140000
     13 H4         -2.2150   -2.3350    0.1750 ha        1 SS2      0.130500
     14 H5         -3.6830   -0.3150    0.1840 ha        1 SS2      0.130000
     15 H6         -2.6710    1.9580   -0.0040 ha        1 SS2      0.130500
     16 H7         -0.2010    2.2140   -0.1970 ha        1 SS2      0.140000
     17 H81         1.7350    1.7250    1.3880 hc        1 SS2      0.045367
     18 H82         2.1330    0.0260    1.8890 hc        1 SS2      0.045367
     19 H83         3.3430    1.0010    0.9540 hc        1 SS2      0.045367
@<TRIPOS>BOND
     1    1    2 1   
     2    1   10 1   
     3    2    3 1   
     4    2    9 1   
     5    2   11 1   
     6    3    4 ar  
     7    3    8 ar  
     8    4    5 ar  
     9    4   12 1   
    10    5    6 ar  
    11    5   13 1   
    12    6    7 ar  
    13    6   14 1   
    14    7    8 ar  
    15    7   15 1   
    16    8   16 1   
    17    9   17 1   
    18    9   18 1   
    19    9   19 1   
@<TRIPOS>SUBSTRUCTURE
     1 SS2         1 TEMP              0 ****  ****    0 ROOT
