@<TRIPOS>MOLECULE
SS3
   50    53     1     0     0
SMALL
bcc


@<TRIPOS>ATOM
      1 N1         -0.1950   -0.0630    0.4160 nc        1 SS3     -0.496100
      2 N3          7.0740    0.3730    3.5780 nb        1 SS3     -0.622000
      3 C4          0.7400    0.5900    2.3780 ca        1 SS3     -0.032200
      4 C5          1.0090    1.1040    3.6560 ca        1 SS3     -0.138000
      5 C6          2.3000    0.9750    4.1370 ca        1 SS3     -0.086000
      6 C8          1.1070   -0.4370    0.3570 cd        1 SS3      0.360900
      7 C13         8.7200   -0.8730   12.1310 ca        1 SS3     -0.135500
      8 C15         7.9850    0.0440   14.2420 ca        1 SS3     -0.098000
      9 C9          1.7490   -1.1190   -0.7810 c3        1 SS3     -0.108400
     10 C17         8.2930    0.2890   11.4730 ca        1 SS3     -0.158300
     11 C20         4.6670    0.2530    3.9460 cp        1 SS3     -0.088300
     12 C21         4.8700   -0.0460    5.2990 ca        1 SS3     -0.103000
     13 C22         6.1910   -0.1400    5.7600 ca        1 SS3     -0.034200
     14 C24         7.5240    0.0090    7.7180 c3        1 SS3      0.105400
     15 C1          3.3270    0.3550    3.3840 cp        1 SS3     -0.107000
     16 C2          3.0670   -0.1550    2.1100 ca        1 SS3     -0.028000
     17 C3          1.7800   -0.0460    1.5970 ca        1 SS3     -0.218900
     18 N5         -0.4180    0.5240    1.5990 na        1 SS3     -0.013100
     19 C14         8.5650   -0.9940   13.5100 ca        1 SS3     -0.111500
     20 C16         7.7180    1.3290   12.2110 ca        1 SS3     -0.135500
     21 C18         7.2680    0.0760    4.8770 ca        1 SS3      0.347200
     22 C19         5.8110    0.4560    3.1300 ca        1 SS3      0.396200
     23 C26         7.5640    1.2040   13.5920 ca        1 SS3     -0.111500
     24 O1          6.3620   -0.5270    7.0860 os        1 SS3     -0.374900
     25 C23         7.2500   -0.0480    9.2310 c3        1 SS3      0.117500
     26 C25         8.4860    0.4270   10.0050 c3        1 SS3     -0.056100
     27 N4          6.8410   -1.4330    9.6530 nz        1 SS3     -0.835600
     28 H2          3.8580   -0.6440    1.5220 ha        1 SS3      0.144000
     29 H5          0.2250    1.5930    4.2500 ha        1 SS3      0.147000
     30 HA         -1.3050    0.9220    1.8020 hn        1 SS3      0.333700
     31 H9C1        2.7320   -1.5440   -0.4610 hc        1 SS3      0.058033
     32 H9C2        1.9260   -0.3930   -1.6150 hc        1 SS3      0.058033
     33 H9C3        1.1070   -1.9490   -1.1710 hc        1 SS3      0.058033
     34 H6          2.5440    1.3790    5.1320 ha        1 SS3      0.129000
     35 H21         4.0240   -0.2230    5.9770 ha        1 SS3      0.155000
     36 H19         5.6960    0.7060    2.0580 h4        1 SS3      0.046100
     37 H18         8.3180    0.0130    5.2080 h4        1 SS3      0.024100
     38 H241        8.4150   -0.6140    7.4400 h1        1 SS3      0.083700
     39 H242        7.6990    1.0770    7.4210 h1        1 SS3      0.083700
     40 H23         6.3700    0.6220    9.4730 hx        1 SS3      0.120700
     41 H251        9.3940   -0.1450    9.6710 hc        1 SS3      0.093200
     42 H252        8.6530    1.5060    9.7330 hc        1 SS3      0.093200
     43 H4N1        7.5670   -2.1040    9.3920 hn        1 SS3      0.464800
     44 H4N2        6.7160   -1.4540   10.6730 hn        1 SS3      0.464800
     45 H16         7.4030    2.2550   11.7070 ha        1 SS3      0.135000
     46 H14         8.9160   -1.9020   14.0260 ha        1 SS3      0.157000
     47 H26         7.1190    2.0300   14.1700 ha        1 SS3      0.157000
     48 H13         9.2230   -1.6740   11.5680 ha        1 SS3      0.135000
     49 H43         5.9690   -1.6840    9.1750 hn        1 SS3      0.464800
     50 H15         7.8710   -0.0500   15.3350 ha        1 SS3      0.160000
@<TRIPOS>BOND
     1    1    6 2   
     2    1   18 1   
     3    2   21 ar  
     4    2   22 ar  
     5    3    4 ar  
     6    3   17 ar  
     7    3   18 1   
     8    4    5 ar  
     9    4   29 1   
    10    5   15 ar  
    11    5   34 1   
    12    6    9 1   
    13    6   17 1   
    14    7   10 ar  
    15    7   19 ar  
    16    7   48 1   
    17    8   19 ar  
    18    8   23 ar  
    19    8   50 1   
    20    9   31 1   
    21    9   32 1   
    22    9   33 1   
    23   10   20 ar  
    24   10   26 1   
    25   11   12 ar  
    26   11   15 1   
    27   11   22 ar  
    28   12   13 ar  
    29   12   35 1   
    30   13   21 ar  
    31   13   24 1   
    32   14   24 1   
    33   14   25 1   
    34   14   38 1   
    35   14   39 1   
    36   15   16 ar  
    37   16   17 ar  
    38   16   28 1   
    39   18   30 1   
    40   19   46 1   
    41   20   23 ar  
    42   20   45 1   
    43   21   37 1   
    44   22   36 1   
    45   23   47 1   
    46   25   26 1   
    47   25   27 1   
    48   25   40 1   
    49   26   41 1   
    50   26   42 1   
    51   27   43 1   
    52   27   44 1   
    53   27   49 1   
@<TRIPOS>SUBSTRUCTURE
     1 SS3         1 TEMP              0 ****  ****    0 ROOT
