@<TRIPOS>MOLECULE
SS3
   50    53     1     0     0
SMALL
bcc


@<TRIPOS>ATOM
      1 N1         -0.1930   -0.1020    0.4200 nc        1 SS3     -0.496100
      2 N3          7.0720    0.4050    3.5820 nb        1 SS3     -0.622000
      3 C4          0.7350    0.5500    2.3850 ca        1 SS3     -0.032200
      4 C5          0.9980    1.0590    3.6670 ca        1 SS3     -0.138000
      5 C6          2.2900    0.9430    4.1460 ca        1 SS3     -0.086000
      6 C8          1.1140   -0.4590    0.3580 cd        1 SS3      0.360900
      7 C13         8.7310   -0.8660   12.1290 ca        1 SS3     -0.135500
      8 C15         7.9820    0.0300   14.2440 ca        1 SS3     -0.098000
      9 C9          1.7630   -1.1250   -0.7850 c3        1 SS3     -0.108400
     10 C17         8.2900    0.2930   11.4760 ca        1 SS3     -0.158300
     11 C20         4.6660    0.2530    3.9490 cp        1 SS3     -0.088300
     12 C21         4.8740   -0.0530    5.3000 ca        1 SS3     -0.103000
     13 C22         6.1960   -0.1330    5.7600 ca        1 SS3     -0.034200
     14 C24         7.5270    0.0230    7.7200 c3        1 SS3      0.105400
     15 C1          3.3250    0.3410    3.3880 cp        1 SS3     -0.107000
     16 C2          3.0700   -0.1630    2.1110 ca        1 SS3     -0.028000
     17 C3          1.7820   -0.0670    1.6000 ca        1 SS3     -0.218900
     18 N5         -0.4230    0.4750    1.6070 na        1 SS3     -0.013100
     19 C14         8.5780   -0.9960   13.5080 ca        1 SS3     -0.111500
     20 C16         7.7000    1.3210   12.2200 ca        1 SS3     -0.135500
     21 C18         7.2690    0.1020    4.8780 ca        1 SS3      0.347200
     22 C19         5.8080    0.4750    3.1350 ca        1 SS3      0.396200
     23 C26         7.5460    1.1880   13.6000 ca        1 SS3     -0.111500
     24 O1          6.3730   -0.5270    7.0840 os        1 SS3     -0.374900
     25 C23         7.2530   -0.0460    9.2320 c3        1 SS3      0.117500
     26 C25         8.4810    0.4420   10.0090 c3        1 SS3     -0.056100
     27 N4          6.8630   -1.4390    9.6470 n4        1 SS3     -0.835600
     28 H2          3.8680   -0.6380    1.5200 ha        1 SS3      0.144000
     29 H5          0.2080    1.5350    4.2640 ha        1 SS3      0.147000
     30 HA         -1.3140    0.8610    1.8120 hn        1 SS3      0.333700
     31 H9C1        1.1330   -1.9620   -1.1790 hc        1 SS3      0.058033
     32 H9C2        2.7520   -1.5380   -0.4680 hc        1 SS3      0.058033
     33 H9C3        1.9290   -0.3920   -1.6150 hc        1 SS3      0.058033
     34 H6          2.5300    1.3440    5.1440 ha        1 SS3      0.129000
     35 H21         4.0300   -0.2440    5.9780 ha        1 SS3      0.155000
     36 H19         5.6890    0.7310    2.0640 h4        1 SS3      0.046100
     37 H18         8.3200    0.0500    5.2090 h4        1 SS3      0.024100
     38 H241        8.4270   -0.5870    7.4380 h1        1 SS3      0.083700
     39 H242        7.6880    1.0940    7.4290 h1        1 SS3      0.083700
     40 H23         6.3630    0.6100    9.4770 hx        1 SS3      0.120700
     41 H251        8.6340    1.5240    9.7420 hc        1 SS3      0.093200
     42 H252        9.3970   -0.1160    9.6740 hc        1 SS3      0.093200
     43 H4N1        6.7380   -1.4670   10.6670 hn        1 SS3      0.464800
     44 H4N2        5.9940   -1.6990    9.1670 hn        1 SS3      0.464800
     45 H16         7.3720    2.2460   11.7190 ha        1 SS3      0.135000
     46 H14         8.9410   -1.9010   14.0190 ha        1 SS3      0.157000
     47 H26         7.0900    2.0050   14.1810 ha        1 SS3      0.157000
     48 H13         9.2460   -1.6570   11.5620 ha        1 SS3      0.135000
     49 H43         7.5990   -2.0990    9.3820 hn        1 SS3      0.464800
     50 H15         7.8690   -0.0700   15.3360 ha        1 SS3      0.160000
@<TRIPOS>BOND
     1    1    6 2   
     2    1   18 1   
     3    2   21 ar  
     4    2   22 ar  
     5    3    4 ar  
     6    3   17 ar  
     7    3   18 1   
     8    4    5 ar  
     9    4   29 1   
    10    5   15 ar  
    11    5   34 1   
    12    6    9 1   
    13    6   17 1   
    14    7   10 ar  
    15    7   19 ar  
    16    7   48 1   
    17    8   19 ar  
    18    8   23 ar  
    19    8   50 1   
    20    9   31 1   
    21    9   32 1   
    22    9   33 1   
    23   10   20 ar  
    24   10   26 1   
    25   11   12 ar  
    26   11   15 1   
    27   11   22 ar  
    28   12   13 ar  
    29   12   35 1   
    30   13   21 ar  
    31   13   24 1   
    32   14   24 1   
    33   14   25 1   
    34   14   38 1   
    35   14   39 1   
    36   15   16 ar  
    37   16   17 ar  
    38   16   28 1   
    39   18   30 1   
    40   19   46 1   
    41   20   23 ar  
    42   20   45 1   
    43   21   37 1   
    44   22   36 1   
    45   23   47 1   
    46   25   26 1   
    47   25   27 1   
    48   25   40 1   
    49   26   41 1   
    50   26   42 1   
    51   27   43 1   
    52   27   44 1   
    53   27   49 1   
@<TRIPOS>SUBSTRUCTURE
     1 SS3         1 TEMP              0 ****  ****    0 ROOT
