@<TRIPOS>MOLECULE
SS3
   49    52     1     0     0
SMALL
bcc


@<TRIPOS>ATOM
      1 N1         -7.7650    1.0950    0.3990 nc        1 SS3     -0.513100
      2 N3         -0.9980   -2.8050   -1.0480 nb        1 SS3     -0.633000
      3 C4         -5.6600    1.5880   -0.2960 ca        1 SS3     -0.045200
      4 C5         -4.4940    2.1950   -0.7830 ca        1 SS3     -0.142000
      5 C6         -3.3470    1.4210   -0.8390 ca        1 SS3     -0.084000
      6 C8         -7.0380   -0.0380    0.5530 cd        1 SS3      0.356900
      7 C13         6.9430    0.3370    1.2430 ca        1 SS3     -0.116000
      8 C15         8.6190    1.5200   -0.0360 ca        1 SS3     -0.129000
      9 C9         -7.5530   -1.3240    1.0560 c3        1 SS3     -0.106400
     10 C17         6.3340   -0.0960    0.0590 ca        1 SS3     -0.077300
     11 C20        -2.0900   -0.6950   -0.5210 cp        1 SS3     -0.108300
     12 C21        -0.8600   -0.1180   -0.1920 ca        1 SS3     -0.120000
     13 C22         0.2990   -0.9090   -0.2980 ca        1 SS3      0.013800
     14 C24         2.6620   -1.0810   -0.0820 c3        1 SS3      0.078400
     15 C1         -3.3320    0.0650   -0.4330 cp        1 SS3     -0.076000
     16 C2         -4.4920   -0.5460    0.0470 ca        1 SS3     -0.044000
     17 C3         -5.6590    0.2050    0.1240 ca        1 SS3     -0.214900
     18 N5         -6.9800    2.0390   -0.1420 na        1 SS3     -0.016100
     19 C14         8.0800    1.1430    1.1940 ca        1 SS3     -0.132000
     20 C16         6.8790    0.2870   -1.1720 ca        1 SS3     -0.116000
     21 C18         0.1860   -2.2480   -0.7300 ca        1 SS3      0.322200
     22 C19        -2.1010   -2.0480   -0.9460 ca        1 SS3      0.366200
     23 C26         8.0160    1.0920   -1.2180 ca        1 SS3     -0.132000
     24 O1          1.4780   -0.2840    0.0440 os        1 SS3     -0.329900
     25 C23         3.8390   -0.1600    0.3250 c3        1 SS3      0.171500
     26 C25         5.1310   -0.9690    0.1050 c3        1 SS3     -0.030100
     27 N4          3.7460    0.3900    1.6590 n3        1 SS3     -0.894800
     28 H2         -4.4860   -1.5990    0.3660 ha        1 SS3      0.143000
     29 H5         -4.4900    3.2430   -1.1100 ha        1 SS3      0.142000
     30 HA         -7.2750    2.9870   -0.1290 hn        1 SS3      0.320700
     31 H9C1       -8.0690   -1.8780    0.2320 hc        1 SS3      0.054033
     32 H9C2       -6.7030   -1.9470    1.4290 hc        1 SS3      0.054033
     33 H9C3       -8.2840   -1.1750    1.8900 hc        1 SS3      0.054033
     34 H6         -2.4140    1.8690   -1.2190 ha        1 SS3      0.139000
     35 H21        -0.7850    0.9230    0.1500 ha        1 SS3      0.157000
     36 H19        -3.0500   -2.5380   -1.2250 h4        1 SS3      0.028100
     37 H18         1.0650   -2.9060   -0.8290 h4        1 SS3      0.026100
     38 H241        2.5900   -1.9720    0.5940 h1        1 SS3      0.045700
     39 H242        2.7780   -1.4170   -1.1450 h1        1 SS3      0.045700
     40 H23         3.8400    0.7180   -0.3890 h1        1 SS3      0.080700
     41 H251        5.0340   -1.5260   -0.8660 hc        1 SS3      0.049200
     42 H252        5.2470   -1.7330    0.9190 hc        1 SS3      0.049200
     43 H4N1        2.9120    0.9390    1.7440 hn        1 SS3      0.353800
     44 H4N2        3.7300   -0.3380    2.3460 hn        1 SS3      0.353800
     45 H16         6.4080   -0.0480   -2.1080 ha        1 SS3      0.132500
     46 H14         8.5500    1.4820    2.1280 ha        1 SS3      0.130500
     47 H26         8.4380    1.3880   -2.1900 ha        1 SS3      0.130500
     48 H15         9.5160    2.1550   -0.0730 ha        1 SS3      0.130000
     49 H13         6.5130    0.0510    2.2140 ha        1 SS3      0.132500
@<TRIPOS>BOND
     1    1    6 2   
     2    1   18 1   
     3    2   21 ar  
     4    2   22 ar  
     5    3    4 ar  
     6    3   17 ar  
     7    3   18 1   
     8    4    5 ar  
     9    4   29 1   
    10    5   15 ar  
    11    5   34 1   
    12    6    9 1   
    13    6   17 1   
    14    7   10 ar  
    15    7   19 ar  
    16    7   49 1   
    17    8   19 ar  
    18    8   23 ar  
    19    8   48 1   
    20    9   31 1   
    21    9   32 1   
    22    9   33 1   
    23   10   20 ar  
    24   10   26 1   
    25   11   12 ar  
    26   11   15 1   
    27   11   22 ar  
    28   12   13 ar  
    29   12   35 1   
    30   13   21 ar  
    31   13   24 1   
    32   14   24 1   
    33   14   25 1   
    34   14   38 1   
    35   14   39 1   
    36   15   16 ar  
    37   16   17 ar  
    38   16   28 1   
    39   18   30 1   
    40   19   46 1   
    41   20   23 ar  
    42   20   45 1   
    43   21   37 1   
    44   22   36 1   
    45   23   47 1   
    46   25   26 1   
    47   25   27 1   
    48   25   40 1   
    49   26   41 1   
    50   26   42 1   
    51   27   43 1   
    52   27   44 1   
@<TRIPOS>SUBSTRUCTURE
     1 SS3         1 TEMP              0 ****  ****    0 ROOT
