@<TRIPOS>MOLECULE
SS3
   50    53     1     0     0
SMALL
bcc


@<TRIPOS>ATOM
      1 N1         -0.1770   -0.0780    0.4060 nc        1 SS3     -0.496100
      2 N3          7.0930    0.3630    3.5640 nb        1 SS3     -0.622000
      3 C4          0.7580    0.5770    2.3660 ca        1 SS3     -0.032200
      4 C5          1.0280    1.0920    3.6440 ca        1 SS3     -0.138000
      5 C6          2.3190    0.9640    4.1240 ca        1 SS3     -0.086000
      6 C8          1.1250   -0.4510    0.3460 cd        1 SS3      0.360900
      7 C13         8.7290   -0.8480   12.1260 ca        1 SS3     -0.135500
      8 C15         7.9830    0.0740   14.2320 ca        1 SS3     -0.098000
      9 C9          1.7670   -1.1330   -0.7930 c3        1 SS3     -0.108400
     10 C17         8.2990    0.3090   11.4620 ca        1 SS3     -0.158300
     11 C20         4.6860    0.2430    3.9330 cp        1 SS3     -0.088300
     12 C21         4.8900   -0.0550    5.2860 ca        1 SS3     -0.103000
     13 C22         6.2110   -0.1470    5.7470 ca        1 SS3     -0.035200
     14 C24         7.5420    0.0100    7.7070 c3        1 SS3      0.105400
     15 C1          3.3460    0.3440    3.3710 cp        1 SS3     -0.107000
     16 C2          3.0850   -0.1670    2.0980 ca        1 SS3     -0.028000
     17 C3          1.7980   -0.0590    1.5850 ca        1 SS3     -0.218900
     18 N5         -0.4000    0.5110    1.5880 na        1 SS3     -0.013100
     19 C14         8.5720   -0.9640   13.5060 ca        1 SS3     -0.111500
     20 C16         7.7160    1.3490   12.1940 ca        1 SS3     -0.135500
     21 C18         7.2870    0.0670    4.8630 ca        1 SS3      0.348200
     22 C19         5.8300    0.4450    3.1170 ca        1 SS3      0.396200
     23 C26         7.5580    1.2290   13.5750 ca        1 SS3     -0.111500
     24 O1          6.3830   -0.5340    7.0730 os        1 SS3     -0.373900
     25 C23         7.2640   -0.0420    9.2190 c3        1 SS3      0.117500
     26 C25         8.4950    0.4420    9.9930 c3        1 SS3     -0.056100
     27 N4          6.8610   -1.4270    9.6450 n4        1 SS3     -0.835600
     28 H2          3.8770   -0.6550    1.5090 ha        1 SS3      0.144000
     29 H5          0.2440    1.5810    4.2370 ha        1 SS3      0.147000
     30 HA         -1.2870    0.9080    1.7900 hn        1 SS3      0.333700
     31 H9C1        1.9450   -0.4060   -1.6260 hc        1 SS3      0.058033
     32 H9C2        1.1250   -1.9620   -1.1830 hc        1 SS3      0.058033
     33 H9C3        2.7490   -1.5580   -0.4720 hc        1 SS3      0.058033
     34 H6          2.5630    1.3680    5.1190 ha        1 SS3      0.129000
     35 H21         4.0440   -0.2310    5.9650 ha        1 SS3      0.155000
     36 H19         5.7150    0.6940    2.0450 h4        1 SS3      0.046100
     37 H18         8.3370    0.0050    5.1940 h4        1 SS3      0.024100
     38 H241        7.7130    1.0780    7.4060 h1        1 SS3      0.083700
     39 H242        8.4360   -0.6110    7.4320 h1        1 SS3      0.083700
     40 H23         6.3790    0.6240    9.4560 hx        1 SS3      0.120700
     41 H251        8.6580    1.5200    9.7170 hc        1 SS3      0.093200
     42 H252        9.4070   -0.1270    9.6650 hc        1 SS3      0.093200
     43 H4N1        5.9900   -1.6850    9.1660 hn        1 SS3      0.464800
     44 H4N2        6.7330   -1.4450   10.6650 hn        1 SS3      0.464800
     45 H16         7.3970    2.2720   11.6850 ha        1 SS3      0.135000
     46 H14         8.9260   -1.8670   14.0260 ha        1 SS3      0.157000
     47 H26         7.1080    2.0560   14.1480 ha        1 SS3      0.157000
     48 H13         9.2380   -1.6490   11.5680 ha        1 SS3      0.135000
     49 H43         7.5910   -2.0960    9.3880 hn        1 SS3      0.464800
     50 H15         7.8660   -0.0150   15.3240 ha        1 SS3      0.160000
@<TRIPOS>BOND
     1    1    6 2   
     2    1   18 1   
     3    2   21 ar  
     4    2   22 ar  
     5    3    4 ar  
     6    3   17 ar  
     7    3   18 1   
     8    4    5 ar  
     9    4   29 1   
    10    5   15 ar  
    11    5   34 1   
    12    6    9 1   
    13    6   17 1   
    14    7   10 ar  
    15    7   19 ar  
    16    7   48 1   
    17    8   19 ar  
    18    8   23 ar  
    19    8   50 1   
    20    9   31 1   
    21    9   32 1   
    22    9   33 1   
    23   10   20 ar  
    24   10   26 1   
    25   11   12 ar  
    26   11   15 1   
    27   11   22 ar  
    28   12   13 ar  
    29   12   35 1   
    30   13   21 ar  
    31   13   24 1   
    32   14   24 1   
    33   14   25 1   
    34   14   38 1   
    35   14   39 1   
    36   15   16 ar  
    37   16   17 ar  
    38   16   28 1   
    39   18   30 1   
    40   19   46 1   
    41   20   23 ar  
    42   20   45 1   
    43   21   37 1   
    44   22   36 1   
    45   23   47 1   
    46   25   26 1   
    47   25   27 1   
    48   25   40 1   
    49   26   41 1   
    50   26   42 1   
    51   27   43 1   
    52   27   44 1   
    53   27   49 1   
@<TRIPOS>SUBSTRUCTURE
     1 SS3         1 TEMP              0 ****  ****    0 ROOT
