@<TRIPOS>MOLECULE
SS4
   50    50     1     0     0
SMALL
bcc


@<TRIPOS>ATOM
      1 N1         -0.5730    0.2840   -0.0200 n2        1 SS4      0.147000
      2 N3          7.7180    1.6030    5.2430 n2        1 SS4     -0.227000
      3 C4          0.8010   -1.0360    2.2210 c2        1 SS4     -0.178000
      4 C5          1.3910   -1.4440    3.5300 c3        1 SS4     -0.086000
      5 C6          2.7000   -0.8330    3.7320 cv        1 SS4     -0.003000
      6 C8          0.7450    0.1560    0.0530 c2        1 SS4     -0.258000
      7 C13         8.4470   -0.6880   12.4400 c3        1 SS4     -0.220000
      8 C15         9.1390    0.7960   14.3650 c3        1 SS4     -0.213000
      9 C9          1.5840    0.3790   -1.1580 c3        1 SS4     -0.134000
     10 C17         8.9740    0.3510   11.5070 c2        1 SS4      0.000000
     11 C20         4.4830    0.2290    3.5760 cv        1 SS4     -0.312000
     12 C21         3.7860   -0.6960    4.5550 cv        1 SS4     -0.139000
     13 C22         4.2280   -1.2350    5.8410 c3        1 SS4      0.049000
     14 C24         7.7060   -1.7900    9.6210 c2        1 SS4     -0.167000
     15 C1          3.2930    0.0670    2.7000 cv        1 SS4     -0.063000
     16 C2          2.7020    0.3860    1.5500 c2        1 SS4     -0.035000
     17 C3          1.3790   -0.2050    1.3170 c2        1 SS4      0.012000
     18 N5         -1.6970    0.4050   -0.0890 n1        1 SS4     -0.002000
     19 C14         8.4620   -0.3980   13.8680 c1        1 SS4      0.006000
     20 C16         9.9050    1.3170   12.0780 c2        1 SS4     -0.158000
     21 C18         7.6170    1.2690    6.3560 c1        1 SS4     -0.008000
     22 C19         5.6260    0.8620    3.5480 c1        1 SS4      0.151000
     23 C26         9.9800    1.5410   13.4000 c2        1 SS4     -0.122000
     24 O1          4.5370   -0.2260    6.8000 oh        1 SS4     -0.393000
     25 C10         7.6880   -0.4500    9.5260 c2        1 SS4     -0.070000
     26 C25         8.6180    0.4460   10.2090 c2        1 SS4     -0.215000
     27 N4          6.7220    0.2310    8.6630 n4        1 SS4     -0.104000
     28 H5         -0.1850   -1.4880    2.0270 ha        1 SS4      0.141000
     29 H18         5.1890   -1.8100    5.7290 h1        1 SS4      0.104500
     30 H19         7.7150    1.8410    4.2910 hn        1 SS4      0.341000
     31 HA          0.6870   -1.1500    4.3600 hc        1 SS4      0.125000
     32 H6          1.4750   -2.5680    3.5570 hc        1 SS4      0.125000
     33 H9C1        1.8880    1.4530   -1.2310 hc        1 SS4      0.088000
     34 H9C2        2.5030   -0.2540   -1.0830 hc        1 SS4      0.088000
     35 H9C3        1.0500    0.1000   -2.1000 hc        1 SS4      0.088000
     36 H14         7.3940   -0.9810   12.1580 hc        1 SS4      0.157500
     37 H26         9.7230    0.5400   15.2930 h1        1 SS4      0.189000
     38 H16        10.6800    2.2820   13.8200 ha        1 SS4      0.161000
     39 H251       10.5440    1.8710   11.3710 ha        1 SS4      0.149000
     40 H252        9.0520    1.2470    9.5820 ha        1 SS4      0.149000
     41 H21         3.4350   -1.9120    6.2680 h1        1 SS4      0.104500
     42 H241        3.7870    0.3810    6.8340 ho        1 SS4      0.226000
     43 H242        8.4610   -2.2940   10.2450 ha        1 SS4      0.154500
     44 H10         7.0060   -2.4590    9.1000 ha        1 SS4      0.154500
     45 H2          3.1280    1.0550    0.7880 ha        1 SS4      0.160000
     46 H4N1        7.2250    0.6700    7.7820 hn        1 SS4      0.271000
     47 H4N2        6.0030   -0.4180    8.3290 hn        1 SS4      0.271000
     48 BR1         7.6320    1.8760   14.9830 br        1 SS4      0.061000
     49 H43         6.2740    0.9820    9.1870 hn        1 SS4      0.271000
     50 H13         9.0710   -1.6320   12.3410 hc        1 SS4      0.157500
@<TRIPOS>BOND
     1    1    6 1   
     2    1   18 1   
     3    2   21 1   
     4    2   30 1   
     5    3    4 1   
     6    3   17 1   
     7    3   28 1   
     8    4    5 1   
     9    4   31 1   
    10    4   32 1   
    11    5   12 1   
    12    5   15 1   
    13    6    9 1   
    14    6   17 1   
    15    7   10 1   
    16    7   19 1   
    17    7   36 1   
    18    7   50 1   
    19    8   19 1   
    20    8   23 1   
    21    8   37 1   
    22    8   48 1   
    23    9   33 1   
    24    9   34 1   
    25    9   35 1   
    26   10   20 1   
    27   10   26 1   
    28   11   12 1   
    29   11   15 1   
    30   11   22 1   
    31   12   13 1   
    32   13   24 1   
    33   13   29 1   
    34   13   41 1   
    35   14   25 1   
    36   14   43 1   
    37   14   44 1   
    38   15   16 1   
    39   16   17 1   
    40   16   45 1   
    41   20   23 1   
    42   20   39 1   
    43   23   38 1   
    44   24   42 1   
    45   25   26 1   
    46   25   27 1   
    47   26   40 1   
    48   27   46 1   
    49   27   47 1   
    50   27   49 1   
@<TRIPOS>SUBSTRUCTURE
     1 SS4         1 TEMP              0 ****  ****    0 ROOT
