@<TRIPOS>MOLECULE
SS4
   49    52     1     0     0
SMALL
bcc


@<TRIPOS>ATOM
      1 N1         -9.4430    1.6580   -0.6190 nc        1 SS4     -0.515100
      2 N3         -3.2370   -3.0820    0.8280 nb        1 SS4     -0.635000
      3 C4         -7.3560    1.8470    0.2570 ca        1 SS4     -0.047200
      4 C5         -6.1730    2.2740    0.8760 ca        1 SS4     -0.142000
      5 C6         -5.1190    1.3760    0.9260 ca        1 SS4     -0.084000
      6 C8         -8.8240    0.4760   -0.8520 cd        1 SS4      0.357900
      7 C13         5.2240   -0.7950    0.8050 ca        1 SS4     -0.131000
      8 C15         6.7610    0.4010   -0.6270 ca        1 SS4     -0.027900
      9 C9         -9.4140   -0.6760   -1.5570 c3        1 SS4     -0.105400
     10 C17         4.3480   -0.9820   -0.2700 ca        1 SS4     -0.072300
     11 C20        -4.0640   -0.8220    0.4640 cp        1 SS4     -0.110300
     12 C21        -2.7590   -0.3520    0.2890 ca        1 SS4     -0.116000
     13 C22        -1.6980   -1.2710    0.3850 ca        1 SS4      0.014800
     14 C24         0.6480   -1.6370    0.4670 c3        1 SS4      0.131400
     15 C1         -5.2110    0.0750    0.3770 cp        1 SS4     -0.073000
     16 C2         -6.3860   -0.3530   -0.2440 ca        1 SS4     -0.045000
     17 C3         -7.4640    0.5220   -0.3080 ca        1 SS4     -0.214900
     18 N5         -8.5760    2.4880   -0.0190 na        1 SS4     -0.015100
     19 C14         6.4240   -0.1090    0.6300 ca        1 SS4     -0.098500
     20 C16         4.6920   -0.4690   -1.5260 ca        1 SS4     -0.131000
     21 C18        -1.9820   -2.6270    0.6550 ca        1 SS4      0.318200
     22 C19        -4.2460   -2.2020    0.7340 ca        1 SS4      0.364200
     23 C26         5.8900    0.2190   -1.7060 ca        1 SS4     -0.098500
     24 O1         -0.4400   -0.7520    0.1750 os        1 SS4     -0.309900
     25 C10         1.9240   -0.7770    0.3420 c3        1 SS4      0.167500
     26 C25         3.0710   -1.7200   -0.0830 c3        1 SS4     -0.083100
     27 N4          2.1730   -0.0000    1.5370 n3        1 SS4     -0.894800
     28 H5         -8.9190    3.2990    0.4400 hn        1 SS4      0.318700
     29 H18        -1.1840   -3.3840    0.7380 h4        1 SS4      0.023100
     30 H19        -5.2600   -2.6120    0.8900 h4        1 SS4      0.026100
     31 HA         -6.0850    3.2800    1.3060 ha        1 SS4      0.142000
     32 H6         -4.1790    1.6780    1.4150 ha        1 SS4      0.141000
     33 H9C1       -9.3530   -0.5180   -2.6640 hc        1 SS4      0.053700
     34 H9C2       -8.8480   -1.6040   -1.2970 hc        1 SS4      0.053700
     35 H9C3      -10.4880   -0.8180   -1.2810 hc        1 SS4      0.053700
     36 H13         4.9700   -1.2000    1.7960 ha        1 SS4      0.138000
     37 H14         7.1030    0.0260    1.4870 ha        1 SS4      0.148500
     38 H26         6.1450    0.6150   -2.7010 ha        1 SS4      0.148500
     39 H16         4.0110   -0.6090   -2.3800 ha        1 SS4      0.138000
     40 H251        2.7820   -2.2240   -1.0430 hc        1 SS4      0.056700
     41 H252        3.2030   -2.5210    0.6930 hc        1 SS4      0.056700
     42 H21        -2.5500    0.7050    0.0700 ha        1 SS4      0.159000
     43 H241        0.5300   -2.0720    1.4930 h1        1 SS4      0.044700
     44 H242        0.6580   -2.4600   -0.2950 h1        1 SS4      0.044700
     45 H10         1.7540   -0.0340   -0.4960 h1        1 SS4      0.085700
     46 H2         -6.4590   -1.3590   -0.6820 ha        1 SS4      0.143000
     47 H4N1        2.3170   -0.5960    2.3290 hn        1 SS4      0.352300
     48 H4N2        2.9810    0.5770    1.4090 hn        1 SS4      0.352300
     49 BR1         8.3720    1.3230   -0.8660 br        1 SS4     -0.083100
@<TRIPOS>BOND
     1    1    6 2   
     2    1   18 1   
     3    2   21 ar  
     4    2   22 ar  
     5    3    4 ar  
     6    3   17 ar  
     7    3   18 1   
     8    4    5 ar  
     9    4   31 1   
    10    5   15 ar  
    11    5   32 1   
    12    6    9 1   
    13    6   17 1   
    14    7   10 ar  
    15    7   19 ar  
    16    7   36 1   
    17    8   19 ar  
    18    8   23 ar  
    19    8   49 1   
    20    9   33 1   
    21    9   34 1   
    22    9   35 1   
    23   10   20 ar  
    24   10   26 1   
    25   11   12 ar  
    26   11   15 1   
    27   11   22 ar  
    28   12   13 ar  
    29   12   42 1   
    30   13   21 ar  
    31   13   24 1   
    32   14   24 1   
    33   14   25 1   
    34   14   43 1   
    35   14   44 1   
    36   15   16 ar  
    37   16   17 ar  
    38   16   46 1   
    39   18   28 1   
    40   19   37 1   
    41   20   23 ar  
    42   20   39 1   
    43   21   29 1   
    44   22   30 1   
    45   23   38 1   
    46   25   26 1   
    47   25   27 1   
    48   25   45 1   
    49   26   40 1   
    50   26   41 1   
    51   27   47 1   
    52   27   48 1   
@<TRIPOS>SUBSTRUCTURE
     1 SS4         1 TEMP              0 ****  ****    0 ROOT
