@<TRIPOS>MOLECULE
SS4
   50    47     1     0     0
SMALL
bcc


@<TRIPOS>ATOM
      1 N1         -1.1460    0.2950    1.5040 n2        1 SS4      0.149000
      2 N3         10.6000   -1.6550    6.5120 n2        1 SS4     -0.109000
      3 C4          0.0070    0.7900    4.1450 ca        1 SS4     -0.141000
      4 C5          0.6860    1.2080    5.2880 ca        1 SS4     -0.106000
      5 C6          2.0730    1.1110    5.3640 ca        1 SS4     -0.137000
      6 C8          0.0440   -0.1850    1.8370 c2        1 SS4     -0.254000
      7 C13         7.0720   -3.7460    8.7100 c1        1 SS4     -0.231500
      8 C15         4.8000    0.5380   11.7760 c2        1 SS4     -0.223000
      9 C9          0.7130   -1.1830    0.9540 c3        1 SS4     -0.133000
     10 C17         8.0960    0.5800   10.5280 c1        1 SS4     -0.191000
     11 C20         4.2530    0.4880    4.3410 c2        1 SS4     -0.324000
     12 C21         4.8350   -0.0490    5.5580 c2        1 SS4     -0.124000
     13 C22         6.1560   -0.0420    5.8020 c2        1 SS4     -0.082000
     14 C24        11.2840    1.4240    9.1220 c2        1 SS4     -0.254000
     15 C1          2.7880    0.5880    4.2790 ca        1 SS4     -0.019000
     16 C2          2.1140    0.1740    3.1260 ca        1 SS4     -0.132000
     17 C3          0.7140    0.2700    3.0490 ca        1 SS4      0.038000
     18 N5         -2.1620    0.6980    1.2080 n1        1 SS4     -0.003000
     19 C14         7.2870   -2.6050    9.0010 c1        1 SS4     -0.231500
     20 C16         6.9500    0.8660   10.7350 c1        1 SS4     -0.093000
     21 C18         9.4760   -1.6930    6.7820 c1        1 SS4      0.303000
     22 C19         4.9850    0.8830    3.2970 c1        1 SS4      0.246000
     23 C26         5.6120    1.2270   10.9620 c2        1 SS4     -0.059000
     24 O1          6.7300   -0.5640    6.9460 oh        1 SS4     -0.339000
     25 C10        10.0660    0.8490    9.0800 c2        1 SS4     -0.063000
     26 C25         9.4760    0.2530   10.3370 c3        1 SS4     -0.020000
     27 N4          9.3250    0.6950    7.8800 n8        1 SS4     -0.361000
     28 H5         -1.0900    0.8670    4.1220 ha        1 SS4      0.139000
     29 H18         8.4030   -1.7340    7.0400 ha        1 SS4      0.382000
     30 H19        11.5600   -1.5960    6.3000 hn        1 SS4      0.389000
     31 HA          2.6040    1.4500    6.2640 ha        1 SS4      0.132000
     32 H6          0.1200    1.6180    6.1380 ha        1 SS4      0.142000
     33 H9C1        1.2390   -1.9350    1.5930 hc        1 SS4      0.086000
     34 H9C2       -0.0100   -1.7290    0.2990 hc        1 SS4      0.086000
     35 H9C3        1.4650   -0.6740    0.2990 hc        1 SS4      0.086000
     36 H14         4.1170   -0.4710    6.2830 ha        1 SS4      0.154000
     37 H26         5.1330   -0.3550   12.3240 h4        1 SS4      0.161000
     38 H16         5.2770    2.1380   10.4290 ha        1 SS4      0.162000
     39 H251       10.0650    0.6210   11.2280 hc        1 SS4      0.119000
     40 H252        9.5960   -0.8680   10.3040 hc        1 SS4      0.119000
     41 H21         6.9390    0.3740    5.1500 h4        1 SS4      0.163000
     42 H241        6.0280   -0.8620    7.5460 ho        1 SS4      0.239000
     43 H242       11.7620    1.8900    8.2520 ha        1 SS4      0.134500
     44 H10        11.8620    1.4720   10.0530 ha        1 SS4      0.134500
     45 H2          2.6840   -0.2270    2.2740 ha        1 SS4      0.142000
     46 H4N1        9.5410    1.4250    7.2260 hn        1 SS4      0.180000
     47 H4N2        7.4460   -1.6020    9.3240 ha        1 SS4      0.234000
     48 Br1         3.0340    0.9780   12.1040 br        1 SS4      0.091000
     49 H43         8.3350    0.6890    8.0580 hn        1 SS4      0.180000
     50 H13         6.8730   -4.7610    8.4560 ha        1 SS4      0.234000
@<TRIPOS>BOND
     1    1    6 1   
     2    1   18 1   
     3    2   21 1   
     4    2   30 1   
     5    3    4 1   
     6    3   17 1   
     7    3   28 1   
     8    4    5 1   
     9    4   32 1   
    10    5   15 1   
    11    5   31 1   
    12    6    9 1   
    13    6   17 1   
    14    7   19 1   
    15    7   50 1   
    16    8   23 1   
    17    8   37 1   
    18    8   48 1   
    19    9   33 1   
    20    9   34 1   
    21    9   35 1   
    22   10   20 1   
    23   10   26 1   
    24   11   12 1   
    25   11   15 1   
    26   11   22 1   
    27   12   13 1   
    28   12   36 1   
    29   13   24 1   
    30   13   41 1   
    31   14   25 1   
    32   14   43 1   
    33   14   44 1   
    34   15   16 1   
    35   16   17 1   
    36   16   45 1   
    37   19   47 1   
    38   20   23 1   
    39   21   29 1   
    40   23   38 1   
    41   24   42 1   
    42   25   26 1   
    43   25   27 1   
    44   26   39 1   
    45   26   40 1   
    46   27   46 1   
    47   27   49 1   
@<TRIPOS>SUBSTRUCTURE
     1 SS4         1 TEMP              0 ****  ****    0 ROOT
