@<TRIPOS>MOLECULE
SS4
   50    50     1     0     0
SMALL
bcc


@<TRIPOS>ATOM
      1 N1          0.3240   -1.1840   -0.0820 n2        1 SS4      0.148000
      2 N3          7.1990   -1.0680    5.9360 n1        1 SS4     -0.096000
      3 C4          0.3510    0.4990    2.3570 c2        1 SS4     -0.118000
      4 C5          0.4550    1.0070    3.7390 c3        1 SS4     -0.203000
      5 C6          1.7560    0.9590    4.3820 c1        1 SS4     -0.111000
      6 C8          1.3890   -0.5190    0.3410 c2        1 SS4     -0.266000
      7 C13         8.8430   -1.2370   12.1390 c3        1 SS4     -0.213000
      8 C15         7.4430   -0.3250   13.9700 c2        1 SS4     -0.252000
      9 C9          2.5440   -0.2930   -0.5730 c3        1 SS4     -0.133000
     10 C17         8.6770    0.0660   11.4440 c2        1 SS4     -0.151000
     11 C20         4.1570    0.4270    4.3390 c2        1 SS4     -0.081000
     12 C21         4.2500    0.9250    5.6040 c2        1 SS4     -0.091000
     13 C22         5.5270    0.9070    6.3720 c3        1 SS4      0.140000
     14 C24         9.7050   -1.3670    8.2460 c2        1 SS4     -0.111000
     15 C1          2.8630    0.4420    3.6510 c2        1 SS4     -0.188000
     16 C2          2.7170   -0.0330    2.3710 c2        1 SS4      0.036000
     17 C3          1.4370   -0.0050    1.7070 c2        1 SS4     -0.044000
     18 N5         -0.5800   -1.7560   -0.4530 n1        1 SS4      0.003000
     19 C14         8.1110   -1.4430   13.3820 c1        1 SS4     -0.021000
     20 C16         7.9920    1.0690   12.0460 c2        1 SS4     -0.138000
     21 C18         6.4250   -0.2050    6.0350 c1        1 SS4     -0.101000
     22 C19         5.3470   -0.1180    3.7960 c1        1 SS4     -0.087000
     23 C26         7.3760    0.8830   13.3370 c2        1 SS4     -0.021000
     24 O1          5.3130    0.8320    7.7880 oh        1 SS4     -0.382000
     25 C10         8.8780   -0.7230    9.0840 c2        1 SS4     -0.159000
     26 C25         9.3460    0.2480   10.1290 c3        1 SS4     -0.106000
     27 N4          7.4240   -0.9020    9.0020 n4        1 SS4     -0.028000
     28 H5         -0.6390    0.5540    1.8800 ha        1 SS4      0.144000
     29 H18         6.0840    1.8840    6.2120 h1        1 SS4      0.152000
     30 H19         5.5520   -0.1050    2.7230 ha        1 SS4      0.096000
     31 HA          0.1100    2.0880    3.7710 hc        1 SS4      0.178000
     32 H6         -0.2700    0.4470    4.4080 hc        1 SS4      0.178000
     33 H9C1        3.0650    0.6490   -0.2700 hc        1 SS4      0.087333
     34 H9C2        3.2680   -1.1440   -0.5090 hc        1 SS4      0.087333
     35 H9C3        2.2250   -0.1830   -1.6390 hc        1 SS4      0.087333
     36 H14         8.6270   -2.1000   11.4480 hc        1 SS4      0.166000
     37 H26         7.8910    2.0640   11.5800 ha        1 SS4      0.150000
     38 H16         6.8520    1.7520   13.7730 ha        1 SS4      0.166000
     39 H251        9.1890    1.2960    9.7450 hc        1 SS4      0.134000
     40 H252       10.4570    0.1110   10.2640 hc        1 SS4      0.134000
     41 H21         3.3810    1.4170    6.0840 ha        1 SS4      0.194000
     42 H241        4.3880    0.6000    7.9490 ho        1 SS4      0.243000
     43 H242       10.7960   -1.2190    8.3170 ha        1 SS4      0.174000
     44 H10         9.3800   -2.0560    7.4490 ha        1 SS4      0.174000
     45 H2          3.5680   -0.4560    1.8070 ha        1 SS4      0.141000
     46 H4N1        7.1910   -1.7380    8.4550 hn        1 SS4      0.264667
     47 H4N2        6.9930   -0.0740    8.5560 hn        1 SS4      0.264667
     48 BR1         6.6470   -0.5990   15.6330 br        1 SS4      0.127000
     49 H43         7.0450   -1.0000    9.9520 hn        1 SS4      0.264667
     50 H13         9.9340   -1.3610   12.4410 hc        1 SS4      0.166000
@<TRIPOS>BOND
     1    1    6 1   
     2    1   18 1   
     3    2   21 1   
     4    3    4 1   
     5    3   17 1   
     6    3   28 1   
     7    4    5 1   
     8    4   31 1   
     9    4   32 1   
    10    5   15 1   
    11    6    9 1   
    12    6   17 1   
    13    7   10 1   
    14    7   19 1   
    15    7   36 1   
    16    7   50 1   
    17    8   19 1   
    18    8   23 1   
    19    8   48 1   
    20    9   33 1   
    21    9   34 1   
    22    9   35 1   
    23   10   20 1   
    24   10   26 1   
    25   11   12 1   
    26   11   15 1   
    27   11   22 1   
    28   12   13 1   
    29   12   41 1   
    30   13   21 1   
    31   13   24 1   
    32   13   29 1   
    33   14   25 1   
    34   14   43 1   
    35   14   44 1   
    36   15   16 1   
    37   16   17 1   
    38   16   45 1   
    39   20   23 1   
    40   20   37 1   
    41   22   30 1   
    42   23   38 1   
    43   24   42 1   
    44   25   26 1   
    45   25   27 1   
    46   26   39 1   
    47   26   40 1   
    48   27   46 1   
    49   27   47 1   
    50   27   49 1   
@<TRIPOS>SUBSTRUCTURE
     1 SS4         1 TEMP              0 ****  ****    0 ROOT
