@<TRIPOS>MOLECULE
SS5
   69    73     1     0     0
SMALL
bcc


@<TRIPOS>ATOM
      1 C1          3.4210   -2.2410    0.2230 ca        1 SS5     -0.045300
      2 C2          3.8040   -3.0950    1.2670 ca        1 SS5     -0.139000
      3 C3          5.0100   -2.8910    1.9300 ca        1 SS5     -0.098000
      4 C4          5.8560   -1.8420    1.5690 ca        1 SS5     -0.204000
      5 C5          5.4720   -0.9910    0.5260 ca        1 SS5      0.126100
      6 C6          4.2540   -1.1860   -0.1510 ca        1 SS5     -0.158000
      7 C7          2.1400   -2.4630   -0.5010 c3        1 SS5     -0.032100
      8 O8          6.2140    0.0810    0.0700 os        1 SS5     -0.332900
      9 C9          0.9400   -1.8560    0.2510 c3        1 SS5      0.171500
     10 C10        -0.2190   -1.7540   -0.7710 c3        1 SS5      0.078400
     11 O11        -1.2960   -1.1110   -0.0790 os        1 SS5     -0.329900
     12 N12         0.6190   -2.5760    1.4640 n3        1 SS5     -0.894800
     13 C13        -2.4360   -0.8930   -0.8220 ca        1 SS5      0.013800
     14 C14        -2.6110   -1.2720   -2.1700 ca        1 SS5      0.322200
     15 N15        -3.7530   -1.0340   -2.8430 nb        1 SS5     -0.633000
     16 C16        -4.7510   -0.4140   -2.1950 ca        1 SS5      0.366200
     17 C17        -4.6720    0.0040   -0.8430 cp        1 SS5     -0.108300
     18 C18        -3.4860   -0.2430   -0.1460 ca        1 SS5     -0.119000
     19 C19        -5.5610    1.7540    0.6770 ca        1 SS5     -0.084000
     20 C20        -6.5890    2.4290    1.3120 ca        1 SS5     -0.142000
     21 C21        -7.9000    2.0040    1.0510 ca        1 SS5     -0.046200
     22 C22        -8.1600    0.9020    0.1540 ca        1 SS5     -0.214900
     23 C23        -7.1040    0.2440   -0.4660 ca        1 SS5     -0.044000
     24 C24        -5.8010    0.6720   -0.2050 cp        1 SS5     -0.075000
     25 N25        -9.1520    2.4080    1.5430 na        1 SS5     -0.016100
     26 N26       -10.1510    1.7160    0.9750 nc        1 SS5     -0.514100
     27 C27        -9.6190    0.7750    0.1590 cd        1 SS5      0.356900
     28 C28       -10.3830   -0.2340   -0.5970 c3        1 SS5     -0.106400
     29 C29         7.4540    0.3150    0.7490 c3        1 SS5      0.131400
     30 C30         8.0780    1.5390    0.0860 c3        1 SS5     -0.067700
     31 C31         9.1820    2.0910    0.9760 c3        1 SS5     -0.073400
     32 C32         9.8510    3.2880    0.3320 c3        1 SS5     -0.075400
     33 C33        10.3800    2.9510   -1.0470 c3        1 SS5     -0.077400
     34 C34         9.2880    2.3890   -1.9330 c3        1 SS5     -0.075400
     35 C35         8.6220    1.1900   -1.2910 c3        1 SS5     -0.073400
     36 H2          3.1380   -3.9160    1.5700 ha        1 SS5      0.139000
     37 H6          3.9780   -0.5030   -0.9660 ha        1 SS5      0.144000
     38 H7C1        2.1950   -1.9870   -1.5160 hc        1 SS5      0.050700
     39 H7C2        1.9780   -3.5640   -0.6540 hc        1 SS5      0.050700
     40 H3          5.3020   -3.5620    2.7520 ha        1 SS5      0.131000
     41 H4          6.8040   -1.6980    2.1030 ha        1 SS5      0.136000
     42 H9          1.2090   -0.8010    0.5610 h1        1 SS5      0.081700
     43 H291        7.2520    0.5120    1.8350 h1        1 SS5      0.039700
     44 H292        8.1160   -0.5840    0.6440 h1        1 SS5      0.039700
     45 H101        0.0890   -1.1300   -1.6490 h1        1 SS5      0.045200
     46 H102       -0.5460   -2.7680   -1.1180 h1        1 SS5      0.045200
     47 H121       -0.1390   -2.1230    1.9380 hn        1 SS5      0.353800
     48 H122        0.3610   -3.5220    1.2610 hn        1 SS5      0.353800
     49 H14        -1.8180   -1.7830   -2.7410 h4        1 SS5      0.026100
     50 H18        -3.3630    0.0500    0.9070 ha        1 SS5      0.157000
     51 H16        -5.6670   -0.2290   -2.7840 h4        1 SS5      0.027100
     52 H20        -6.3860    3.2660    1.9930 ha        1 SS5      0.142000
     53 H25        -9.3490    3.2760    1.9840 hn        1 SS5      0.319700
     54 H23        -7.2950   -0.6030   -1.1410 ha        1 SS5      0.143000
     55 H281      -10.6640   -1.0840    0.0760 hc        1 SS5      0.054033
     56 H282      -11.3200    0.2000   -1.0260 hc        1 SS5      0.054033
     57 H283       -9.7540   -0.6310   -1.4320 hc        1 SS5      0.054033
     58 H30         7.2780    2.3230   -0.0340 hc        1 SS5      0.067700
     59 H311        8.7520    2.3900    1.9680 hc        1 SS5      0.043450
     60 H312        9.9440    1.2900    1.1650 hc        1 SS5      0.043450
     61 H351        9.3630    0.3530   -1.2000 hc        1 SS5      0.043450
     62 H352        7.7790    0.8280   -1.9350 hc        1 SS5      0.043450
     63 H321        9.1120    4.1290    0.2530 hc        1 SS5      0.040700
     64 H322       10.6930    3.6390    0.9830 hc        1 SS5      0.040700
     65 H331       10.8100    3.8730   -1.5190 hc        1 SS5      0.039200
     66 H332       11.2100    2.2020   -0.9560 hc        1 SS5      0.039200
     67 H341        8.5200    3.1830   -2.1300 hc        1 SS5      0.040700
     68 H342        9.7230    2.0890   -2.9220 hc        1 SS5      0.040700
     69 H19        -4.5200    2.0700    0.8530 ha        1 SS5      0.139000
@<TRIPOS>BOND
     1    1    2 ar  
     2    1    6 ar  
     3    1    7 1   
     4    2    3 ar  
     5    2   36 1   
     6    3    4 ar  
     7    3   40 1   
     8    4    5 ar  
     9    4   41 1   
    10    5    6 ar  
    11    5    8 1   
    12    6   37 1   
    13    7    9 1   
    14    7   38 1   
    15    7   39 1   
    16    8   29 1   
    17    9   10 1   
    18    9   12 1   
    19    9   42 1   
    20   10   11 1   
    21   10   45 1   
    22   10   46 1   
    23   11   13 1   
    24   12   47 1   
    25   12   48 1   
    26   13   14 ar  
    27   13   18 ar  
    28   14   15 ar  
    29   14   49 1   
    30   15   16 ar  
    31   16   17 ar  
    32   16   51 1   
    33   17   18 ar  
    34   17   24 1   
    35   18   50 1   
    36   19   20 ar  
    37   19   24 ar  
    38   19   69 1   
    39   20   21 ar  
    40   20   52 1   
    41   21   22 ar  
    42   21   25 1   
    43   22   23 ar  
    44   22   27 1   
    45   23   24 ar  
    46   23   54 1   
    47   25   26 1   
    48   25   53 1   
    49   26   27 2   
    50   27   28 1   
    51   28   55 1   
    52   28   56 1   
    53   28   57 1   
    54   29   30 1   
    55   29   43 1   
    56   29   44 1   
    57   30   31 1   
    58   30   35 1   
    59   30   58 1   
    60   31   32 1   
    61   31   59 1   
    62   31   60 1   
    63   32   33 1   
    64   32   63 1   
    65   32   64 1   
    66   33   34 1   
    67   33   65 1   
    68   33   66 1   
    69   34   35 1   
    70   34   67 1   
    71   34   68 1   
    72   35   61 1   
    73   35   62 1   
@<TRIPOS>SUBSTRUCTURE
     1 SS5         1 TEMP              0 ****  ****    0 ROOT
