@<TRIPOS>MOLECULE
SS5
   69    60     1     0     0
SMALL
bcc


@<TRIPOS>ATOM
      1 C1          1.2200    1.0890    1.5110 c1        1 SS5     -0.050000
      2 C2          2.5930    1.0140    1.2460 c1        1 SS5     -0.129500
      3 C3          3.5150    1.0050    2.3090 c1        1 SS5     -0.129500
      4 C4          3.0610    1.0710    3.6260 c1        1 SS5     -0.205000
      5 C5          1.6780    1.1460    3.8920 c1        1 SS5      0.086000
      6 C6          0.7640    1.1550    2.8380 c1        1 SS5     -0.157000
      7 C7          0.2000    1.2280    0.3240 c3        1 SS5     -0.124000
      8 O8          1.2130    1.2300    5.2370 os        1 SS5     -0.214000
      9 C9         -0.1330   -0.1730   -0.2350 c3        1 SS5     -0.047000
     10 C10        -1.0890   -0.0370   -1.3660 c3        1 SS5     -0.022000
     11 O11        -1.2590   -1.2750   -1.9830 os        1 SS5     -0.213000
     12 N12         1.0700   -0.8040   -0.6960 n3        1 SS5     -0.356000
     13 C13        -2.0670   -1.2300   -3.1820 c2        1 SS5      0.026000
     14 C14        -3.3770   -0.7710   -3.1230 c2        1 SS5     -0.093000
     15 N15        -4.1510   -0.7560   -4.2540 n1        1 SS5     -0.115000
     16 C16        -3.6400   -1.1900   -5.4360 c1        1 SS5     -0.092750
     17 C17        -2.3180   -1.6540   -5.5010 c1        1 SS5     -0.062750
     18 C18        -1.5470   -1.6690   -4.3770 c1        1 SS5     -0.156000
     19 C19        -1.2320   -0.9530   -7.3880 c1        1 SS5     -0.092750
     20 C20        -0.9950   -1.0120   -8.7660 c1        1 SS5     -0.092750
     21 C21        -1.3060   -2.1880   -9.4880 c1        1 SS5     -0.062750
     22 C22        -1.8390   -3.2660   -8.8390 c1        1 SS5     -0.062750
     23 C23        -2.0780   -3.2060   -7.4490 c1        1 SS5     -0.092750
     24 C24        -1.7690   -2.0400   -6.7340 c1        1 SS5     -0.062750
     25 N25        -1.0580   -2.5540  -10.7800 n1        1 SS5     -0.190000
     26 N26        -1.4390   -3.8700  -10.9310 n2        1 SS5     -0.049000
     27 C27        -1.9190   -4.3080   -9.7400 c1        1 SS5     -0.089000
     28 C28        -2.2430   -5.7880  -10.0870 c2        1 SS5     -0.149000
     29 C29         1.9470    2.1460    6.0440 c3        1 SS5     -0.020000
     30 C30         1.4140    2.0750    7.5290 c3        1 SS5     -0.107000
     31 C31         2.5630    1.8500    8.4430 c3        1 SS5     -0.152000
     32 C32         2.1680    1.9470    9.9110 c3        1 SS5     -0.154500
     33 C33         1.4110    3.2460   10.2330 c3        1 SS5     -0.157000
     34 C34         0.2560    3.4740    9.3170 c3        1 SS5     -0.154500
     35 C35         0.6520    3.3790    7.8510 c3        1 SS5     -0.152000
     36 H2          2.9000    0.9690    0.3560 ha        1 SS5      0.137000
     37 H6         -0.1970    1.2060    3.0230 ha        1 SS5      0.149000
     38 H7C1        0.6200    1.8090   -0.4290 hc        1 SS5      0.097500
     39 H7C2       -0.6500    1.6700    0.6570 hc        1 SS5      0.097500
     40 H3          4.5040    0.9520    2.1190 ha        1 SS5      0.137000
     41 H4          3.7170    1.0640    4.3840 ha        1 SS5      0.138000
     42 H9         -0.5450   -0.7280    0.4820 h1        1 SS5      0.074000
     43 H291        1.8280    3.0650    5.6920 h1        1 SS5      0.080000
     44 H292        2.9400    1.8980    6.0240 h1        1 SS5      0.080000
     45 H101       -1.9480    0.2800   -1.0290 h1        1 SS5      0.101000
     46 H102       -0.7340    0.6100   -2.0180 h1        1 SS5      0.101000
     47 H121        0.8630   -1.4440   -1.3060 hn        1 SS5      0.157500
     48 H122        1.5090   -1.1930    0.0240 hn        1 SS5      0.157500
     49 H14        -3.7570   -0.4500   -2.2520 h4        1 SS5      0.174000
     50 H18        -0.6310   -1.9910   -4.4200 ha        1 SS5      0.166000
     51 H16        -4.1780   -1.1780   -6.2160 ha        1 SS5      0.145750
     52 H19        -1.0940   -0.1410   -6.9190 ha        1 SS5      0.145750
     53 H20        -0.6090   -0.2310   -9.2360 ha        1 SS5      0.145750
     54 H25        -0.6950   -2.0120  -11.4410 DU        1 SS5      0.268000
     55 H23        -2.3760   -3.9910   -6.9790 ha        1 SS5      0.145750
     56 H281       -2.9160   -5.8170  -10.7830 ha        1 SS5      0.093000
     57 H282       -2.5830   -6.2500   -9.2800 ha        1 SS5      0.093000
     58 H283       -1.4330   -6.2330  -10.4000 ha        1 SS5      0.093000
     59 H30         0.7680    1.2830    7.6090 hc        1 SS5      0.108000
     60 H311        3.2520    2.5220    8.2570 hc        1 SS5      0.083000
     61 H312        2.9260    0.9740    8.2770 hc        1 SS5      0.083000
     62 H351        1.2370    4.1640    7.6230 hc        1 SS5      0.083000
     63 H352       -0.1490    3.4150    7.3090 hc        1 SS5      0.083000
     64 H321        1.5860    1.1680   10.1410 hc        1 SS5      0.080500
     65 H322        3.0150    1.9100   10.4800 hc        1 SS5      0.080500
     66 H331        1.0830    3.2000   11.1470 hc        1 SS5      0.079500
     67 H332        2.0250    3.9960   10.1560 hc        1 SS5      0.079500
     68 H341       -0.1190    4.3810    9.4910 hc        1 SS5      0.080500
     69 H342       -0.4240    2.8120    9.5020 hc        1 SS5      0.080500
@<TRIPOS>BOND
     1    1    6 1   
     2    1    7 1   
     3    2    3 1   
     4    2   36 1   
     5    3   40 1   
     6    4    5 1   
     7    4   41 1   
     8    5    8 1   
     9    6   37 1   
    10    7    9 1   
    11    7   38 1   
    12    7   39 1   
    13    8   29 1   
    14    9   10 1   
    15    9   12 1   
    16    9   42 1   
    17   10   11 1   
    18   10   45 1   
    19   10   46 1   
    20   11   13 1   
    21   12   47 1   
    22   12   48 1   
    23   13   14 1   
    24   13   18 1   
    25   14   15 1   
    26   14   49 1   
    27   16   17 1   
    28   16   51 1   
    29   18   50 1   
    30   19   24 1   
    31   19   52 1   
    32   20   21 1   
    33   20   53 1   
    34   22   23 1   
    35   23   55 1   
    36   25   26 1   
    37   26   27 1   
    38   28   56 1   
    39   28   57 1   
    40   28   58 1   
    41   29   30 1   
    42   29   43 1   
    43   29   44 1   
    44   30   31 1   
    45   30   35 1   
    46   30   59 1   
    47   31   32 1   
    48   31   60 1   
    49   31   61 1   
    50   32   33 1   
    51   32   64 1   
    52   32   65 1   
    53   33   34 1   
    54   33   66 1   
    55   33   67 1   
    56   34   35 1   
    57   34   68 1   
    58   34   69 1   
    59   35   62 1   
    60   35   63 1   
@<TRIPOS>SUBSTRUCTURE
     1 SS5         1 TEMP              0 ****  ****    0 ROOT
