@<TRIPOS>MOLECULE
SS5
   70    74     1     0     0
SMALL
bcc


@<TRIPOS>ATOM
      1 C1         -0.0210    0.3000   -0.1760 ca        1 SS5     -0.118300
      2 C2          1.3670    0.4890   -0.2550 ca        1 SS5     -0.213000
      3 C3          2.1410    0.4520    0.9030 ca        1 SS5     -0.072000
      4 C4          1.5540    0.2140    2.1450 ca        1 SS5     -0.188000
      5 C5          0.1670    0.0240    2.2220 ca        1 SS5      0.160100
      6 C6         -0.6270    0.0670    1.0560 ca        1 SS5     -0.152000
      7 C7         -0.8490    0.3660   -1.4110 c3        1 SS5     -0.058100
      8 O8         -0.5290   -0.2290    3.3750 os        1 SS5     -0.319900
      9 C9         -1.0130   -1.0210   -2.0420 c3        1 SS5      0.118500
     10 C10        -1.7690   -0.9030   -3.3770 c3        1 SS5      0.105400
     11 O11        -1.8010   -2.2200   -3.9310 os        1 SS5     -0.373900
     12 N12         0.3180   -1.6950   -2.2320 nz        1 SS5     -0.835600
     13 C13        -2.8170   -2.4350   -4.8570 ca        1 SS5     -0.034200
     14 C14        -3.2740   -1.4400   -5.7430 ca        1 SS5      0.347200
     15 N15        -4.2030   -1.6950   -6.6830 nb        1 SS5     -0.622000
     16 C16        -4.6910   -2.9430   -6.7660 ca        1 SS5      0.396200
     17 C17        -4.2900   -4.0090   -5.9180 cp        1 SS5     -0.089300
     18 C18        -3.3300   -3.7380   -4.9340 ca        1 SS5     -0.103000
     19 C19        -5.1760   -6.1030   -4.9230 ca        1 SS5     -0.086000
     20 C20        -5.7240   -7.3700   -5.0070 ca        1 SS5     -0.139000
     21 C21        -5.9620   -7.8890   -6.2900 ca        1 SS5     -0.032200
     22 C22        -5.6460   -7.1200   -7.4740 ca        1 SS5     -0.218900
     23 C23        -5.1000   -5.8480   -7.3530 ca        1 SS5     -0.028000
     24 C24        -4.8620   -5.3390   -6.0740 cp        1 SS5     -0.106000
     25 N25        -6.4710   -9.1070   -6.7470 na        1 SS5     -0.013100
     26 N26        -6.5230   -9.1580   -8.0850 nc        1 SS5     -0.496100
     27 C27        -6.0320   -7.9950   -8.5820 cd        1 SS5      0.360900
     28 C28        -5.9160   -7.6610  -10.0130 c3        1 SS5     -0.108400
     29 C29         0.2190   -0.1540    4.6040 c3        1 SS5      0.127400
     30 C30        -0.7940   -0.3670    5.7240 c3        1 SS5     -0.067700
     31 C31        -0.0580   -0.7460    7.0010 c3        1 SS5     -0.073400
     32 C32        -1.0310   -0.9330    8.1480 c3        1 SS5     -0.076400
     33 C33        -1.8870    0.2980    8.3570 c3        1 SS5     -0.080400
     34 C34        -2.6080    0.6900    7.0830 c3        1 SS5     -0.076400
     35 C35        -1.6360    0.8820    5.9380 c3        1 SS5     -0.073400
     36 H2          1.8400    0.7290   -1.2180 ha        1 SS5      0.126000
     37 H6         -1.7150   -0.0640    1.1460 ha        1 SS5      0.160000
     38 H7C1       -0.3930    1.0770   -2.1510 hc        1 SS5      0.093700
     39 H7C2       -1.8800    0.7480   -1.1710 hc        1 SS5      0.093700
     40 H3          3.2280    0.6220    0.8410 ha        1 SS5      0.153000
     41 H4          2.1800    0.1920    3.0500 ha        1 SS5      0.161000
     42 H9         -1.6020   -1.6900   -1.3420 hx        1 SS5      0.122700
     43 H291        0.7100    0.8510    4.6810 h1        1 SS5      0.048200
     44 H292        0.9950   -0.9640    4.6030 h1        1 SS5      0.048200
     45 H101       -1.2370   -0.2180   -4.0900 h1        1 SS5      0.083700
     46 H102       -2.8030   -0.5160   -3.1760 h1        1 SS5      0.083700
     47 H121        0.1640   -2.6480   -2.5810 hn        1 SS5      0.464800
     48 H122        0.8750   -1.1770   -2.9170 hn        1 SS5      0.464800
     49 H14        -2.8940   -0.4050   -5.7060 h4        1 SS5      0.024100
     50 H18        -2.9730   -4.5240   -4.2550 ha        1 SS5      0.155000
     51 H16        -5.4550   -3.1100   -7.5490 h4        1 SS5      0.046100
     52 H25        -6.8490   -9.8460   -6.2030 hn        1 SS5      0.333700
     53 H23        -4.8520   -5.2630   -8.2520 ha        1 SS5      0.144000
     54 H281       -6.9230   -7.4090  -10.4320 hc        1 SS5      0.058033
     55 H282       -5.2440   -6.7770  -10.1390 hc        1 SS5      0.058033
     56 H283       -5.4970   -8.5180  -10.5970 hc        1 SS5      0.058033
     57 H30        -1.4770   -1.2130    5.4300 hc        1 SS5      0.068700
     58 H311        0.5170   -1.6940    6.8390 hc        1 SS5      0.043700
     59 H312        0.6780    0.0590    7.2610 hc        1 SS5      0.043700
     60 H351       -2.1960    1.1140    4.9950 hc        1 SS5      0.043700
     61 H352       -0.9650    1.7540    6.1590 hc        1 SS5      0.043700
     62 H321       -0.4590   -1.1570    9.0860 hc        1 SS5      0.046200
     63 H322       -1.6900   -1.8160    7.9370 hc        1 SS5      0.046200
     64 H331       -1.2410    1.1500    8.6970 hc        1 SS5      0.046700
     65 H332       -2.6360    0.1000    9.1670 hc        1 SS5      0.046700
     66 H341       -3.3520   -0.1050    6.8140 hc        1 SS5      0.046200
     67 H342       -3.1780    1.6410    7.2510 hc        1 SS5      0.046200
     68 H19        -4.9890   -5.6640   -3.9310 ha        1 SS5      0.129000
     69 H123        0.8210   -1.7120   -1.3360 hn        1 SS5      0.464800
     70 H20        -5.9690   -7.9470   -4.1050 ha        1 SS5      0.146000
@<TRIPOS>BOND
     1    1    2 ar  
     2    1    6 ar  
     3    1    7 1   
     4    2    3 ar  
     5    2   36 1   
     6    3    4 ar  
     7    3   40 1   
     8    4    5 ar  
     9    4   41 1   
    10    5    6 ar  
    11    5    8 1   
    12    6   37 1   
    13    7    9 1   
    14    7   38 1   
    15    7   39 1   
    16    8   29 1   
    17    9   10 1   
    18    9   12 1   
    19    9   42 1   
    20   10   11 1   
    21   10   45 1   
    22   10   46 1   
    23   11   13 1   
    24   12   47 1   
    25   12   48 1   
    26   12   69 1   
    27   13   14 ar  
    28   13   18 ar  
    29   14   15 ar  
    30   14   49 1   
    31   15   16 ar  
    32   16   17 ar  
    33   16   51 1   
    34   17   18 ar  
    35   17   24 1   
    36   18   50 1   
    37   19   20 ar  
    38   19   24 ar  
    39   19   68 1   
    40   20   21 ar  
    41   20   70 1   
    42   21   22 ar  
    43   21   25 1   
    44   22   23 ar  
    45   22   27 1   
    46   23   24 ar  
    47   23   53 1   
    48   25   26 1   
    49   25   52 1   
    50   26   27 2   
    51   27   28 1   
    52   28   54 1   
    53   28   55 1   
    54   28   56 1   
    55   29   30 1   
    56   29   43 1   
    57   29   44 1   
    58   30   31 1   
    59   30   35 1   
    60   30   57 1   
    61   31   32 1   
    62   31   58 1   
    63   31   59 1   
    64   32   33 1   
    65   32   62 1   
    66   32   63 1   
    67   33   34 1   
    68   33   64 1   
    69   33   65 1   
    70   34   35 1   
    71   34   66 1   
    72   34   67 1   
    73   35   60 1   
    74   35   61 1   
@<TRIPOS>SUBSTRUCTURE
     1 SS5         1 TEMP              0 ****  ****    0 ROOT
