@<TRIPOS>MOLECULE
SS5
   70    74     1     0     0
SMALL
bcc


@<TRIPOS>ATOM
      1 C1         -0.0110    0.2970   -0.1740 ca        1 SS5     -0.118300
      2 C2          1.3770    0.4840   -0.2480 ca        1 SS5     -0.213000
      3 C3          2.1470    0.4450    0.9120 ca        1 SS5     -0.072000
      4 C4          1.5560    0.2070    2.1510 ca        1 SS5     -0.188000
      5 C5          0.1680    0.0190    2.2240 ca        1 SS5      0.160100
      6 C6         -0.6220    0.0650    1.0550 ca        1 SS5     -0.152000
      7 C7         -0.8350    0.3650   -1.4120 c3        1 SS5     -0.058100
      8 O8         -0.5330   -0.2330    3.3750 os        1 SS5     -0.319900
      9 C9         -1.0000   -1.0220   -2.0440 c3        1 SS5      0.118500
     10 C10        -1.7520   -0.9020   -3.3810 c3        1 SS5      0.105400
     11 O11        -1.7840   -2.2180   -3.9350 os        1 SS5     -0.373900
     12 N12         0.3300   -1.6980   -2.2310 n4        1 SS5     -0.835600
     13 C13        -2.8000   -2.4320   -4.8630 ca        1 SS5     -0.034200
     14 C14        -3.2520   -1.4370   -5.7520 ca        1 SS5      0.348200
     15 N15        -4.1800   -1.6910   -6.6930 nb        1 SS5     -0.622000
     16 C16        -4.6720   -2.9370   -6.7750 ca        1 SS5      0.396200
     17 C17        -4.2750   -4.0030   -5.9250 cp        1 SS5     -0.089300
     18 C18        -3.3170   -3.7340   -4.9390 ca        1 SS5     -0.103000
     19 C19        -5.1710   -6.0920   -4.9280 ca        1 SS5     -0.086000
     20 C20        -5.7230   -7.3570   -5.0100 ca        1 SS5     -0.139000
     21 C21        -5.9600   -7.8780   -6.2930 ca        1 SS5     -0.032200
     22 C22        -5.6390   -7.1120   -7.4780 ca        1 SS5     -0.218900
     23 C23        -5.0880   -5.8420   -7.3570 ca        1 SS5     -0.028000
     24 C24        -4.8520   -5.3310   -6.0800 cp        1 SS5     -0.106000
     25 N25        -6.4720   -9.0950   -6.7490 na        1 SS5     -0.013100
     26 N26        -6.5210   -9.1480   -8.0870 nc        1 SS5     -0.496100
     27 C27        -6.0250   -7.9880   -8.5850 cd        1 SS5      0.360900
     28 C28        -5.9050   -7.6560  -10.0160 c3        1 SS5     -0.108400
     29 C29         0.2120   -0.1600    4.6060 c3        1 SS5      0.127400
     30 C30        -0.8050   -0.3730    5.7220 c3        1 SS5     -0.067700
     31 C31        -0.0740   -0.7540    7.0020 c3        1 SS5     -0.073400
     32 C32        -1.0510   -0.9410    8.1450 c3        1 SS5     -0.076400
     33 C33        -1.9060    0.2920    8.3520 c3        1 SS5     -0.080400
     34 C34        -2.6220    0.6850    7.0770 c3        1 SS5     -0.076400
     35 C35        -1.6460    0.8770    5.9340 c3        1 SS5     -0.073400
     36 H2          1.8530    0.7240   -1.2100 ha        1 SS5      0.126000
     37 H6         -1.7110   -0.0660    1.1420 ha        1 SS5      0.160000
     38 H7C1       -0.3750    1.0760   -2.1510 hc        1 SS5      0.093700
     39 H7C2       -1.8660    0.7490   -1.1760 hc        1 SS5      0.093700
     40 H3          3.2350    0.6130    0.8540 ha        1 SS5      0.153000
     41 H4          2.1790    0.1830    3.0580 ha        1 SS5      0.161000
     42 H9         -1.5920   -1.6890   -1.3460 hx        1 SS5      0.122700
     43 H291        0.7040    0.8430    4.6860 h1        1 SS5      0.048200
     44 H292        0.9860   -0.9720    4.6070 h1        1 SS5      0.048200
     45 H101       -2.7850   -0.5130   -3.1830 h1        1 SS5      0.083700
     46 H102       -1.2170   -0.2180   -4.0930 h1        1 SS5      0.083700
     47 H121        0.1760   -2.6500   -2.5800 hn        1 SS5      0.464800
     48 H122        0.8310   -1.7160   -1.3330 hn        1 SS5      0.464800
     49 H14        -2.8690   -0.4030   -5.7160 h4        1 SS5      0.024100
     50 H18        -2.9630   -4.5200   -4.2580 ha        1 SS5      0.155000
     51 H16        -5.4350   -3.1030   -7.5590 h4        1 SS5      0.046100
     52 H25        -6.8540   -9.8320   -6.2040 hn        1 SS5      0.333700
     53 H23        -4.8370   -5.2590   -8.2570 ha        1 SS5      0.144000
     54 H281       -6.9100   -7.3990  -10.4370 hc        1 SS5      0.058033
     55 H282       -5.4910   -8.5170  -10.5990 hc        1 SS5      0.058033
     56 H283       -5.2280   -6.7760  -10.1430 hc        1 SS5      0.058033
     57 H30        -1.4880   -1.2180    5.4260 hc        1 SS5      0.068700
     58 H311        0.5010   -1.7030    6.8410 hc        1 SS5      0.043700
     59 H312        0.6630    0.0500    7.2640 hc        1 SS5      0.043700
     60 H351       -2.2030    1.1100    4.9900 hc        1 SS5      0.043700
     61 H352       -0.9750    1.7470    6.1580 hc        1 SS5      0.043700
     62 H321       -0.4820   -1.1660    9.0850 hc        1 SS5      0.046200
     63 H322       -1.7110   -1.8230    7.9310 hc        1 SS5      0.046200
     64 H331       -2.6580    0.0940    9.1590 hc        1 SS5      0.046700
     65 H332       -1.2600    1.1420    8.6950 hc        1 SS5      0.046700
     66 H341       -3.1910    1.6370    7.2430 hc        1 SS5      0.046200
     67 H342       -3.3660   -0.1090    6.8040 hc        1 SS5      0.046200
     68 H19        -4.9840   -5.6520   -3.9360 ha        1 SS5      0.129000
     69 H123        0.8900   -1.1800   -2.9130 hn        1 SS5      0.464800
     70 H20        -5.9710   -7.9320   -4.1080 ha        1 SS5      0.146000
@<TRIPOS>BOND
     1    1    2 ar  
     2    1    6 ar  
     3    1    7 1   
     4    2    3 ar  
     5    2   36 1   
     6    3    4 ar  
     7    3   40 1   
     8    4    5 ar  
     9    4   41 1   
    10    5    6 ar  
    11    5    8 1   
    12    6   37 1   
    13    7    9 1   
    14    7   38 1   
    15    7   39 1   
    16    8   29 1   
    17    9   10 1   
    18    9   12 1   
    19    9   42 1   
    20   10   11 1   
    21   10   45 1   
    22   10   46 1   
    23   11   13 1   
    24   12   47 1   
    25   12   48 1   
    26   12   69 1   
    27   13   14 ar  
    28   13   18 ar  
    29   14   15 ar  
    30   14   49 1   
    31   15   16 ar  
    32   16   17 ar  
    33   16   51 1   
    34   17   18 ar  
    35   17   24 1   
    36   18   50 1   
    37   19   20 ar  
    38   19   24 ar  
    39   19   68 1   
    40   20   21 ar  
    41   20   70 1   
    42   21   22 ar  
    43   21   25 1   
    44   22   23 ar  
    45   22   27 1   
    46   23   24 ar  
    47   23   53 1   
    48   25   26 1   
    49   25   52 1   
    50   26   27 2   
    51   27   28 1   
    52   28   54 1   
    53   28   55 1   
    54   28   56 1   
    55   29   30 1   
    56   29   43 1   
    57   29   44 1   
    58   30   31 1   
    59   30   35 1   
    60   30   57 1   
    61   31   32 1   
    62   31   58 1   
    63   31   59 1   
    64   32   33 1   
    65   32   62 1   
    66   32   63 1   
    67   33   34 1   
    68   33   64 1   
    69   33   65 1   
    70   34   35 1   
    71   34   66 1   
    72   34   67 1   
    73   35   60 1   
    74   35   61 1   
@<TRIPOS>SUBSTRUCTURE
     1 SS5         1 TEMP              0 ****  ****    0 ROOT
