@<TRIPOS>MOLECULE
SS5
   70    74     1     0     0
SMALL
bcc


@<TRIPOS>ATOM
      1 C1         -0.0110    0.2880   -0.1790 ca        1 SS5     -0.118300
      2 C2          1.3770    0.4720   -0.2570 ca        1 SS5     -0.213000
      3 C3          2.1500    0.4340    0.9010 ca        1 SS5     -0.072000
      4 C4          1.5610    0.2000    2.1430 ca        1 SS5     -0.188000
      5 C5          0.1730    0.0150    2.2190 ca        1 SS5      0.160100
      6 C6         -0.6190    0.0590    1.0520 ca        1 SS5     -0.152000
      7 C7         -0.8380    0.3550   -1.4160 c3        1 SS5     -0.058100
      8 O8         -0.5260   -0.2330    3.3720 os        1 SS5     -0.319900
      9 C9         -1.0060   -1.0320   -2.0450 c3        1 SS5      0.118500
     10 C10        -1.7600   -0.9130   -3.3810 c3        1 SS5      0.105400
     11 O11        -1.7950   -2.2300   -3.9340 os        1 SS5     -0.373900
     12 N12         0.3230   -1.7110   -2.2330 n4        1 SS5     -0.835600
     13 C13        -2.8110   -2.4420   -4.8620 ca        1 SS5     -0.034200
     14 C14        -3.2630   -1.4460   -5.7490 ca        1 SS5      0.347200
     15 N15        -4.1910   -1.6990   -6.6910 nb        1 SS5     -0.622000
     16 C16        -4.6820   -2.9460   -6.7740 ca        1 SS5      0.396200
     17 C17        -4.2860   -4.0120   -5.9250 cp        1 SS5     -0.089300
     18 C18        -3.3270   -3.7440   -4.9390 ca        1 SS5     -0.103000
     19 C19        -5.1820   -6.1020   -4.9310 ca        1 SS5     -0.086000
     20 C20        -5.7330   -7.3670   -5.0150 ca        1 SS5     -0.139000
     21 C21        -5.9700   -7.8870   -6.2980 ca        1 SS5     -0.032200
     22 C22        -5.6490   -7.1200   -7.4820 ca        1 SS5     -0.218900
     23 C23        -5.0990   -5.8490   -7.3600 ca        1 SS5     -0.028000
     24 C24        -4.8630   -5.3400   -6.0820 cp        1 SS5     -0.106000
     25 N25        -6.4820   -9.1030   -6.7560 na        1 SS5     -0.013100
     26 N26        -6.5310   -9.1550   -8.0940 nc        1 SS5     -0.496100
     27 C27        -6.0350   -7.9940   -8.5900 cd        1 SS5      0.360900
     28 C28        -5.9150   -7.6600  -10.0210 c3        1 SS5     -0.108400
     29 C29         0.2220   -0.1590    4.6010 c3        1 SS5      0.127400
     30 C30        -0.7930   -0.3660    5.7210 c3        1 SS5     -0.067700
     31 C31        -0.0600   -0.7460    6.9990 c3        1 SS5     -0.073400
     32 C32        -1.0350   -0.9270    8.1450 c3        1 SS5     -0.076400
     33 C33        -1.8860    0.3080    8.3510 c3        1 SS5     -0.080400
     34 C34        -2.6050    0.7010    7.0760 c3        1 SS5     -0.076400
     35 C35        -1.6310    0.8870    5.9320 c3        1 SS5     -0.073400
     36 H2          1.8520    0.7090   -1.2200 ha        1 SS5      0.126000
     37 H6         -1.7090   -0.0680    1.1410 ha        1 SS5      0.160000
     38 H7C1       -1.8670    0.7410   -1.1770 hc        1 SS5      0.093700
     39 H7C2       -0.3780    1.0650   -2.1560 hc        1 SS5      0.093700
     40 H3          3.2380    0.6000    0.8410 ha        1 SS5      0.153000
     41 H4          2.1860    0.1770    3.0480 ha        1 SS5      0.161000
     42 H9         -1.5980   -1.6970   -1.3450 hx        1 SS5      0.122700
     43 H291        0.9940   -0.9720    4.6030 h1        1 SS5      0.048200
     44 H292        0.7170    0.8440    4.6770 h1        1 SS5      0.048200
     45 H101       -2.7920   -0.5220   -3.1820 h1        1 SS5      0.083700
     46 H102       -1.2250   -0.2300   -4.0940 h1        1 SS5      0.083700
     47 H121        0.8820   -1.1950   -2.9170 hn        1 SS5      0.464800
     48 H122        0.1660   -2.6630   -2.5810 hn        1 SS5      0.464800
     49 H14        -2.8800   -0.4120   -5.7120 h4        1 SS5      0.024100
     50 H18        -2.9740   -4.5310   -4.2580 ha        1 SS5      0.155000
     51 H16        -5.4460   -3.1100   -7.5590 h4        1 SS5      0.046100
     52 H25        -6.8640   -9.8410   -6.2120 hn        1 SS5      0.333700
     53 H23        -4.8480   -5.2660   -8.2590 ha        1 SS5      0.144000
     54 H281       -5.5010   -8.5210  -10.6050 hc        1 SS5      0.058033
     55 H282       -5.2370   -6.7800  -10.1460 hc        1 SS5      0.058033
     56 H283       -6.9200   -7.4030  -10.4420 hc        1 SS5      0.058033
     57 H30        -1.4790   -1.2100    5.4280 hc        1 SS5      0.068700
     58 H311        0.6790    0.0570    7.2580 hc        1 SS5      0.043700
     59 H312        0.5120   -1.6960    6.8390 hc        1 SS5      0.043700
     60 H351       -2.1880    1.1190    4.9880 hc        1 SS5      0.043700
     61 H352       -0.9560    1.7560    6.1520 hc        1 SS5      0.043700
     62 H321       -0.4640   -1.1520    9.0840 hc        1 SS5      0.046200
     63 H322       -1.6980   -1.8080    7.9350 hc        1 SS5      0.046200
     64 H331       -1.2370    1.1580    8.6910 hc        1 SS5      0.046700
     65 H332       -2.6370    0.1150    9.1610 hc        1 SS5      0.046700
     66 H341       -3.3510   -0.0920    6.8080 hc        1 SS5      0.046200
     67 H342       -3.1710    1.6540    7.2420 hc        1 SS5      0.046200
     68 H19        -4.9950   -5.6630   -3.9380 ha        1 SS5      0.129000
     69 H123        0.8250   -1.7280   -1.3360 hn        1 SS5      0.464800
     70 H20        -5.9810   -7.9440   -4.1130 ha        1 SS5      0.146000
@<TRIPOS>BOND
     1    1    2 ar  
     2    1    6 ar  
     3    1    7 1   
     4    2    3 ar  
     5    2   36 1   
     6    3    4 ar  
     7    3   40 1   
     8    4    5 ar  
     9    4   41 1   
    10    5    6 ar  
    11    5    8 1   
    12    6   37 1   
    13    7    9 1   
    14    7   38 1   
    15    7   39 1   
    16    8   29 1   
    17    9   10 1   
    18    9   12 1   
    19    9   42 1   
    20   10   11 1   
    21   10   45 1   
    22   10   46 1   
    23   11   13 1   
    24   12   47 1   
    25   12   48 1   
    26   12   69 1   
    27   13   14 ar  
    28   13   18 ar  
    29   14   15 ar  
    30   14   49 1   
    31   15   16 ar  
    32   16   17 ar  
    33   16   51 1   
    34   17   18 ar  
    35   17   24 1   
    36   18   50 1   
    37   19   20 ar  
    38   19   24 ar  
    39   19   68 1   
    40   20   21 ar  
    41   20   70 1   
    42   21   22 ar  
    43   21   25 1   
    44   22   23 ar  
    45   22   27 1   
    46   23   24 ar  
    47   23   53 1   
    48   25   26 1   
    49   25   52 1   
    50   26   27 2   
    51   27   28 1   
    52   28   54 1   
    53   28   55 1   
    54   28   56 1   
    55   29   30 1   
    56   29   43 1   
    57   29   44 1   
    58   30   31 1   
    59   30   35 1   
    60   30   57 1   
    61   31   32 1   
    62   31   58 1   
    63   31   59 1   
    64   32   33 1   
    65   32   62 1   
    66   32   63 1   
    67   33   34 1   
    68   33   64 1   
    69   33   65 1   
    70   34   35 1   
    71   34   66 1   
    72   34   67 1   
    73   35   60 1   
    74   35   61 1   
@<TRIPOS>SUBSTRUCTURE
     1 SS5         1 TEMP              0 ****  ****    0 ROOT
