@<TRIPOS>MOLECULE
SS6
   68    72     1     0     0
SMALL
bcc


@<TRIPOS>ATOM
      1 C4         -7.0020   -1.9410    0.0790 ca        1 SS6      0.394600
      2 C5         -6.5590   -0.6160   -0.2190 ca        1 SS6     -0.240600
      3 C6         -5.2160   -0.2590    0.2580 ca        1 SS6      0.681200
      4 N1         -4.4520   -1.1590    0.9110 nb        1 SS6     -0.761000
      5 N3         -6.2020   -2.8460    0.7540 nb        1 SS6     -0.701000
      6 CBA         5.3830   -3.8800   -0.2790 ca        1 SS6     -0.064300
      7 CAP         5.4910   -2.4990   -0.4740 ca        1 SS6     -0.119000
      8 CAJ         4.4910   -4.3790    0.6760 ca        1 SS6     -0.132000
      9 CAH         3.7250   -3.5030    1.4430 ca        1 SS6     -0.117000
     10 CAM         3.8300   -2.1260    1.2680 ca        1 SS6     -0.158000
     11 CBE         4.7100   -1.6130    0.2920 ca        1 SS6      0.016800
     12 NBK         4.8120   -0.2030    0.1140 na        1 SS6      0.127300
     13 NAV         5.9840    0.4290   -0.0970 nc        1 SS6     -0.500800
     14 CBF         5.6970    1.7000   -0.4920 cd        1 SS6      0.333600
     15 CBL         6.7340    2.7490   -0.7530 c3        1 SS6     -0.074300
     16 CAC         7.5310    3.0080    0.5210 c3        1 SS6     -0.086100
     17 CAD         7.6790    2.2750   -1.8530 c3        1 SS6     -0.086100
     18 CAB         6.0640    4.0440   -1.1950 c3        1 SS6     -0.086100
     19 CAR         4.2640    1.8790   -0.6140 cd        1 SS6     -0.268300
     20 CBG         3.7080    0.6370   -0.2570 cc        1 SS6      0.020300
     21 NAX         2.3730    0.2270   -0.2550 n         1 SS6     -0.439100
     22 CAZ         1.3600    1.1250    0.1790 c         1 SS6      0.765100
     23 OAF         1.5880    2.3470    0.2820 o         1 SS6     -0.592100
     24 CBC        -1.0620    1.3430    0.6450 ca        1 SS6      0.071600
     25 CAQ        -2.2990    0.8120    0.2160 ca        1 SS6     -0.161000
     26 CAK        -1.0290    2.5960    1.2880 ca        1 SS6     -0.144000
     27 CAG        -2.2170    3.2880    1.5030 ca        1 SS6     -0.093000
     28 CAL        -3.4420    2.7640    1.1100 ca        1 SS6     -0.188000
     29 CBD        -3.4930    1.5110    0.4590 ca        1 SS6      0.154600
     30 NAY        -4.7330    1.0270   -0.0240 nh        1 SS6     -0.723300
     31 CAS        -7.3940    0.2570   -0.9440 ca        1 SS6     -0.179000
     32 CBB        -8.6710   -0.1380   -1.3480 ca        1 SS6      0.135600
     33 NAE        -9.5410    0.7540   -1.9820 nh        1 SS6     -0.818200
     34 CAN        -9.1170   -1.4610   -1.0290 ca        1 SS6     -0.149000
     35 CAO        -8.3120   -2.3290   -0.3440 ca        1 SS6     -0.143300
     36 C2         -4.9980   -2.4070    1.1110 ca        1 SS6      0.651900
     37 HAA         7.2340   -4.8980   -0.6060 hc        1 SS6      0.049033
     38 HAAA        5.7630   -5.8200   -1.1310 hc        1 SS6      0.049033
     39 HAAB        6.3590   -4.4190   -2.1180 hc        1 SS6      0.049033
     40 HAP         6.2000   -2.1140   -1.2240 ha        1 SS6      0.157000
     41 HAJ         4.4000   -5.4650    0.8270 ha        1 SS6      0.138000
     42 HAH         3.0370   -3.9000    2.2040 ha        1 SS6      0.138000
     43 HAM         3.2470   -1.4510    1.9130 ha        1 SS6      0.144000
     44 HAC         8.0740    2.0870    0.8390 hc        1 SS6      0.039478
     45 HACA        8.2770    3.8190    0.3410 hc        1 SS6      0.039478
     46 HACB        6.8490    3.3250    1.3460 hc        1 SS6      0.039478
     47 HAD         7.1060    2.0460   -2.7830 hc        1 SS6      0.039478
     48 HADA        8.4240    3.0750   -2.0790 hc        1 SS6      0.039478
     49 HADB        8.2260    1.3580   -1.5320 hc        1 SS6      0.039478
     50 HAB         5.3780    4.4200   -0.3980 hc        1 SS6      0.039478
     51 HABA        6.8410    4.8210   -1.3930 hc        1 SS6      0.039478
     52 HABB        5.4760    3.8800   -2.1290 hc        1 SS6      0.039478
     53 HAR         3.7230    2.7790   -0.8880 ha        1 SS6      0.191000
     54 HNAW       -0.0780   -0.3690    0.1500 hn        1 SS6      0.312500
     55 HAQ        -2.3310   -0.1600   -0.3020 ha        1 SS6      0.150000
     56 HAK        -0.0720    3.0380    1.6100 ha        1 SS6      0.171000
     57 HAG        -2.1830    4.2680    2.0040 ha        1 SS6      0.138000
     58 HAL        -4.3630    3.3330    1.3070 ha        1 SS6      0.132000
     59 HAS        -7.0430    1.2640   -1.2140 ha        1 SS6      0.132000
     60 HNAE       -9.0920    1.5090   -2.4510 hn        1 SS6      0.393800
     61 HNAA      -10.2550    0.3210   -2.5240 hn        1 SS6      0.393800
     62 HAN       -10.1250   -1.7800   -1.3380 ha        1 SS6      0.139000
     63 HAO        -8.6640   -3.3470   -0.1080 ha        1 SS6      0.156000
     64 H2         -4.3370   -3.1170    1.6510 h5        1 SS6      0.051100
     65 H29         2.2200   -0.7540   -0.1440 hn        1 SS6      0.316500
     66 H30        -5.4480    1.7250   -0.0600 hn        1 SS6      0.428800
     67 NAW         0.0990    0.5600    0.4680 n         1 SS6     -0.459100
     68 CAA         6.2230   -4.8030   -1.0770 c3        1 SS6     -0.057800
@<TRIPOS>BOND
     1    1    2 ar  
     2    1    5 ar  
     3    1   35 ar  
     4    2    3 ar  
     5    2   31 ar  
     6    3    4 ar  
     7    3   30 1   
     8    4   36 ar  
     9    5   36 ar  
    10    6    7 ar  
    11    6    8 ar  
    12    6   68 1   
    13    7   11 ar  
    14    7   40 1   
    15    8    9 ar  
    16    8   41 1   
    17    9   10 ar  
    18    9   42 1   
    19   10   11 ar  
    20   10   43 1   
    21   11   12 1   
    22   12   13 1   
    23   12   20 1   
    24   13   14 2   
    25   14   15 1   
    26   14   19 1   
    27   15   16 1   
    28   15   17 1   
    29   15   18 1   
    30   16   44 1   
    31   16   45 1   
    32   16   46 1   
    33   17   47 1   
    34   17   48 1   
    35   17   49 1   
    36   18   50 1   
    37   18   51 1   
    38   18   52 1   
    39   19   20 2   
    40   19   53 1   
    41   20   21 1   
    42   21   22 1   
    43   21   65 1   
    44   22   23 2   
    45   22   67 1   
    46   24   25 ar  
    47   24   26 ar  
    48   24   67 1   
    49   25   29 ar  
    50   25   55 1   
    51   26   27 ar  
    52   26   56 1   
    53   27   28 ar  
    54   27   57 1   
    55   28   29 ar  
    56   28   58 1   
    57   29   30 1   
    58   30   66 1   
    59   31   32 ar  
    60   31   59 1   
    61   32   33 1   
    62   32   34 ar  
    63   33   60 1   
    64   33   61 1   
    65   34   35 ar  
    66   34   62 1   
    67   35   63 1   
    68   36   64 1   
    69   37   68 1   
    70   38   68 1   
    71   39   68 1   
    72   54   67 1   
@<TRIPOS>SUBSTRUCTURE
     1 SS6         1 TEMP              0 ****  ****    0 ROOT
