@<TRIPOS>MOLECULE
SS6
   68    68     1     0     0
SMALL
bcc


@<TRIPOS>ATOM
      1 C4          1.3770   -1.9320   -1.4660 c2        1 SS6     -0.034000
      2 C5          1.9130   -0.8830   -0.5530 c2        1 SS6     -0.147000
      3 C6          2.4740   -1.1810    0.6690 c2        1 SS6      0.162000
      4 N1          2.6410   -2.5030    1.0640 n2        1 SS6     -0.313000
      5 N3          1.9880   -2.9740   -1.9120 n2        1 SS6     -0.166000
      6 CBA         0.4250   -7.0100   10.2590 c2        1 SS6      0.076000
      7 CAP         1.7800   -6.7290    9.8780 c2        1 SS6     -0.220000
      8 CAJ        -0.4770   -5.9890   10.4510 c2        1 SS6     -0.258000
      9 CAH        -0.1450   -4.6600   10.1530 c1        1 SS6     -0.110000
     10 CAM         1.2010   -4.3290    9.6990 c3        1 SS6     -0.193000
     11 CBE         2.2100   -5.4410    9.6580 c2        1 SS6      0.092000
     12 NBK         3.5780   -5.1540    9.4470 na        1 SS6     -0.122000
     13 NAV         4.5400   -6.0630    9.7560 n2        1 SS6     -0.073000
     14 CBF         5.7450   -5.5090    9.4900 c2        1 SS6     -0.068000
     15 CBL         7.0770   -6.1620    9.6990 c3        1 SS6      0.016000
     16 CAC         7.8840   -5.3190   10.6810 c3        1 SS6     -0.203333
     17 CAD         6.9390   -7.5740   10.2520 c3        1 SS6     -0.203333
     18 CAB         7.8060   -6.2210    8.3600 c3        1 SS6     -0.203333
     19 CAR         5.5720   -4.1680    8.9630 c2        1 SS6     -0.236000
     20 CBG         4.1830   -3.9520    8.9370 c2        1 SS6      0.075000
     21 NAX         3.5040   -2.8090    8.5160 n         1 SS6     -0.315000
     22 CAZ         4.1240   -1.5970    8.2600 c2        1 SS6      0.289000
     23 OAF         5.3340   -1.3750    8.4170 o         1 SS6     -0.368000
     24 CBC         3.4000   -2.2960    4.3670 c2        1 SS6     -0.127000
     25 CAQ         3.8130   -1.2660    3.5390 c1        1 SS6      0.056000
     26 CAK         7.4910    0.0760    6.4210 c2        1 SS6     -0.532000
     27 CAG         6.9190    0.0850    5.2550 c1        1 SS6      0.111000
     28 CAL         4.9620    0.5380    2.5370 c1        1 SS6     -0.035000
     29 CBD         3.8510   -0.3820    2.5490 c2        1 SS6     -0.102000
     30 NAY         2.8040   -0.1620    1.6080 n3        1 SS6     -0.207000
     31 CAS         1.7540    0.4610   -1.0630 c2        1 SS6     -0.244000
     32 CBB         0.7420    0.7730   -1.9260 c2        1 SS6      0.024000
     33 NAE         0.6410    2.0040   -2.5640 n3        1 SS6     -0.331000
     34 CAN        -0.2960   -0.2680   -2.2670 c3        1 SS6     -0.213000
     35 CAO        -0.0080   -1.6310   -1.8420 c1        1 SS6      0.085000
     36 C2          2.7690   -3.6280    1.4120 c1        1 SS6      0.158000
     37 HAA         0.2080   -8.9970    9.4950 hc        1 SS6      0.100000
     38 HAAA       -1.0070   -8.5390   10.7660 hc        1 SS6      0.100000
     39 HAAB        0.7130   -8.8940   11.2330 hc        1 SS6      0.100000
     40 HAP         2.4620   -7.5930    9.8170 ha        1 SS6      0.161000
     41 HAJ        -1.4950   -6.2010   10.8120 ha        1 SS6      0.149000
     42 HAH         1.0170   -3.9470    8.6480 hc        1 SS6      0.159000
     43 HAM         1.5720   -3.4730   10.3320 hc        1 SS6      0.159000
     44 HAC         7.3730   -5.2850   11.6730 hc        1 SS6      0.079444
     45 HACA        7.9930   -4.2750   10.2990 hc        1 SS6      0.079444
     46 HACB        8.8990   -5.7630   10.8140 hc        1 SS6      0.079444
     47 HAD         6.4160   -7.5600   11.2380 hc        1 SS6      0.079444
     48 HADA        7.9520   -8.0220   10.3920 hc        1 SS6      0.079444
     49 HADB        6.3590   -8.2170    9.5480 hc        1 SS6      0.079444
     50 HAB         8.8210   -6.6650    8.5030 hc        1 SS6      0.079444
     51 HABA        7.2380   -6.8520    7.6360 hc        1 SS6      0.079444
     52 HABB        7.9180   -5.1960    7.9330 hc        1 SS6      0.079444
     53 HAR         6.3500   -3.4690    8.6680 ha        1 SS6      0.192000
     54 HNAW        3.4020   -0.8190    7.9120 h5        1 SS6      0.149000
     55 HAQ         3.5950   -3.2880    3.8500 h4        1 SS6      0.221000
     56 HAK         6.9960   -0.3700    7.3110 ha        1 SS6      0.212000
     57 HAG         8.4830    0.4890    6.6550 ha        1 SS6      0.212000
     58 HAL         5.7830    0.3810    3.2560 ha        1 SS6      0.124000
     59 HAS         2.5060    1.2130   -0.7790 ha        1 SS6      0.135000
     60 HNAE       -0.2820    2.2780   -2.8120 hn        1 SS6      0.194500
     61 HNAA        1.1920    2.7370   -2.1760 hn        1 SS6      0.194500
     62 HAN        -1.2870    0.0330   -1.8170 hc        1 SS6      0.156500
     63 HAO        -0.4600   -0.3300   -3.3870 hc        1 SS6      0.156500
     64 H2          2.9280   -3.0950   -1.5950 hn        1 SS6      0.145000
     65 H29         2.5720   -2.9210    8.1800 hn        1 SS6      0.250000
     66 H30         2.9170    0.7330    1.1580 hn        1 SS6      0.233000
     67 NAW         2.9200   -2.2500    5.5370 n1        1 SS6     -0.132000
     68 CAA         0.0590   -8.4320   10.4500 c3        1 SS6     -0.210000
@<TRIPOS>BOND
     1    1    2 1   
     2    1    5 1   
     3    1   35 1   
     4    2    3 1   
     5    2   31 1   
     6    3    4 1   
     7    3   30 1   
     8    4   36 1   
     9    5   64 1   
    10    6    7 1   
    11    6    8 1   
    12    6   68 1   
    13    7   11 1   
    14    7   40 1   
    15    8    9 1   
    16    8   41 1   
    17    9   10 1   
    18   10   11 1   
    19   10   42 1   
    20   10   43 1   
    21   11   12 1   
    22   12   13 1   
    23   12   20 1   
    24   13   14 1   
    25   14   15 1   
    26   14   19 1   
    27   15   16 1   
    28   15   17 1   
    29   15   18 1   
    30   16   44 1   
    31   16   45 1   
    32   16   46 1   
    33   17   47 1   
    34   17   48 1   
    35   17   49 1   
    36   18   50 1   
    37   18   51 1   
    38   18   52 1   
    39   19   20 1   
    40   19   53 1   
    41   20   21 1   
    42   21   22 1   
    43   21   65 1   
    44   22   23 1   
    45   22   54 1   
    46   24   25 1   
    47   24   55 1   
    48   24   67 1   
    49   25   29 1   
    50   26   27 1   
    51   26   56 1   
    52   26   57 1   
    53   28   29 1   
    54   28   58 1   
    55   29   30 1   
    56   30   66 1   
    57   31   32 1   
    58   31   59 1   
    59   32   33 1   
    60   32   34 1   
    61   33   60 1   
    62   33   61 1   
    63   34   35 1   
    64   34   62 1   
    65   34   63 1   
    66   37   68 1   
    67   38   68 1   
    68   39   68 1   
@<TRIPOS>SUBSTRUCTURE
     1 SS6         1 TEMP              0 ****  ****    0 ROOT
