@<TRIPOS>MOLECULE
SS6
   68    69     1     0     0
SMALL
bcc


@<TRIPOS>ATOM
      1 C4          0.5860   -2.3010    0.6010 c2        1 SS6     -0.028000
      2 C5          1.5380   -1.1660    0.7370 c2        1 SS6     -0.175000
      3 C6          1.9790   -0.7030    1.9580 c2        1 SS6      0.207000
      4 N1          1.6170   -1.3530    3.1350 n2        1 SS6     -0.290000
      5 N3          0.6880   -3.4810    1.1070 n2        1 SS6     -0.174000
      6 CBA         0.3440   -6.3140    9.6510 c2        1 SS6     -0.112000
      7 CAP         1.7810   -6.3640    9.5820 c2        1 SS6     -0.011000
      8 CAJ        -0.3410   -5.2920    9.0770 c2        1 SS6     -0.127000
      9 CAH         0.3660   -4.2060    8.3730 c3        1 SS6     -0.187000
     10 CAM         1.8100   -4.2710    8.3290 c1        1 SS6     -0.156000
     11 CBE         2.4920   -5.3680    8.9320 c2        1 SS6     -0.017000
     12 NBK         3.9070   -5.4130    8.8220 na        1 SS6     -0.103000
     13 NAV         4.6740   -6.3240    9.4610 n2        1 SS6     -0.095000
     14 CBF         5.9710   -6.0010    9.2230 c2        1 SS6     -0.074000
     15 CBL         7.1640   -6.7660    9.7110 c3        1 SS6      0.017000
     16 CAC         8.0250   -5.8370   10.5600 c3        1 SS6     -0.202333
     17 CAD         6.7650   -7.9750   10.5460 c3        1 SS6     -0.202333
     18 CAB         7.9660   -7.2380    8.5020 c3        1 SS6     -0.202333
     19 CAR         6.0550   -4.7960    8.4210 c2        1 SS6     -0.235000
     20 CBG         4.7210   -4.4140    8.1860 c2        1 SS6      0.097000
     21 NAX         4.2120   -3.3030    7.5140 ns        1 SS6     -0.297000
     22 CAZ         4.8890   -2.7960    6.3910 c2        1 SS6      0.400000
     23 OAF         6.0770   -3.0770    6.1140 o         1 SS6     -0.378000
     24 CBC         4.7840   -1.3100    4.4680 c2        1 SS6      0.109000
     25 CAQ         4.2620   -0.3290    3.7650 c1        1 SS6     -0.320000
     26 CAK         6.8520    2.4190    6.3760 c1        1 SS6     -0.221000
     27 CAG         6.5950    3.2530    5.5590 c1        1 SS6     -0.221000
     28 CAL         4.4300    1.9290    2.9980 c1        1 SS6     -0.035000
     29 CBD         3.7720    0.6460    3.0110 c2        1 SS6      0.042000
     30 NAY         2.7160    0.4900    2.0880 n7        1 SS6     -0.253000
     31 CAS         1.9270   -0.5740   -0.5240 c2        1 SS6     -0.236000
     32 CBB         1.1150   -0.6430   -1.6190 c2        1 SS6      0.012000
     33 NAE         1.5140   -0.2350   -2.8900 n8        1 SS6     -0.328000
     34 CAN        -0.2640   -1.2420   -1.4900 c3        1 SS6     -0.209000
     35 CAO        -0.5570   -1.9180   -0.2340 c1        1 SS6      0.078000
     36 C2          1.3200   -1.8570    4.1630 c1        1 SS6      0.136000
     37 HAA        -0.1000   -8.3990    9.8770 hc        1 SS6      0.090333
     38 HAAA       -1.4460   -7.2830   10.3620 hc        1 SS6      0.090333
     39 HAAB        0.0110   -7.4660   11.4280 hc        1 SS6      0.090333
     40 HAP         2.2750   -7.2240   10.0680 ha        1 SS6      0.168000
     41 HAJ        -1.4390   -5.2390    9.1170 ha        1 SS6      0.141000
     42 HAH         0.0100   -4.1510    7.2960 hc        1 SS6      0.180000
     43 HAM         0.0870   -3.2060    8.8280 hc        1 SS6      0.180000
     44 HAC         7.4600   -5.4980   11.4610 hc        1 SS6      0.078222
     45 HACA        8.3280   -4.9400    9.9690 hc        1 SS6      0.078222
     46 HACB        8.9450   -6.3750   10.8950 hc        1 SS6      0.078222
     47 HAD         6.1820   -7.6570   11.4430 hc        1 SS6      0.078222
     48 HADA        7.6820   -8.5120   10.8890 hc        1 SS6      0.078222
     49 HADB        6.1430   -8.6800    9.9450 hc        1 SS6      0.078222
     50 HAB         8.8870   -7.7680    8.8430 hc        1 SS6      0.078222
     51 HABA        7.3570   -7.9390    7.8830 hc        1 SS6      0.078222
     52 HABB        8.2630   -6.3680    7.8690 hc        1 SS6      0.078222
     53 HAR         6.9490   -4.3020    8.0530 ha        1 SS6      0.190000
     54 HNAW        3.2550   -1.5950    5.8200 hn        1 SS6      0.248000
     55 HAQ         5.7690   -1.7560    4.1950 h4        1 SS6      0.194000
     56 HAK         7.0800    1.6760    7.0990 ha        1 SS6      0.221500
     57 HAG         4.9160    2.2360    3.9370 ha        1 SS6      0.076000
     58 HAL         6.3720    3.9970    4.8350 ha        1 SS6      0.221500
     59 HAS         2.9260   -0.1160   -0.5860 ha        1 SS6      0.134000
     60 HNAE        0.7760    0.0790   -3.4780 hn        1 SS6      0.190500
     61 HNAA        2.3230    0.3450   -2.9150 hn        1 SS6      0.190500
     62 HAN        -1.0370   -0.4340   -1.6410 hc        1 SS6      0.154000
     63 HAO        -0.4470   -2.0160   -2.2980 hc        1 SS6      0.154000
     64 H2          1.5010   -3.6430    1.6650 hn        1 SS6      0.145000
     65 H29         3.1940   -3.1940    7.5920 hn        1 SS6      0.297000
     66 H30         2.8060    1.0290    1.2500 hn        1 SS6      0.249000
     67 NAW         4.1850   -1.8650    5.5890 ns        1 SS6     -0.335000
     68 CAA        -0.3370   -7.4200   10.3660 c3        1 SS6     -0.183000
@<TRIPOS>BOND
     1    1    2 1   
     2    1    5 1   
     3    1   35 1   
     4    2    3 1   
     5    2   31 1   
     6    3    4 1   
     7    3   30 1   
     8    4   36 1   
     9    5   64 1   
    10    6    7 1   
    11    6    8 1   
    12    6   68 1   
    13    7   11 1   
    14    7   40 1   
    15    8    9 1   
    16    8   41 1   
    17    9   10 1   
    18    9   42 1   
    19    9   43 1   
    20   10   11 1   
    21   11   12 1   
    22   12   13 1   
    23   12   20 1   
    24   13   14 1   
    25   14   15 1   
    26   14   19 1   
    27   15   16 1   
    28   15   17 1   
    29   15   18 1   
    30   16   44 1   
    31   16   45 1   
    32   16   46 1   
    33   17   47 1   
    34   17   48 1   
    35   17   49 1   
    36   18   50 1   
    37   18   51 1   
    38   18   52 1   
    39   19   20 1   
    40   19   53 1   
    41   20   21 1   
    42   21   22 1   
    43   21   65 1   
    44   22   23 1   
    45   22   67 1   
    46   24   25 1   
    47   24   55 1   
    48   24   67 1   
    49   25   29 1   
    50   26   27 1   
    51   26   56 1   
    52   27   58 1   
    53   28   29 1   
    54   28   57 1   
    55   29   30 1   
    56   30   66 1   
    57   31   32 1   
    58   31   59 1   
    59   32   33 1   
    60   32   34 1   
    61   33   60 1   
    62   33   61 1   
    63   34   35 1   
    64   34   62 1   
    65   34   63 1   
    66   37   68 1   
    67   38   68 1   
    68   39   68 1   
    69   54   67 1   
@<TRIPOS>SUBSTRUCTURE
     1 SS6         1 TEMP              0 ****  ****    0 ROOT
