@<TRIPOS>MOLECULE
SS6
   68    68     1     0     0
SMALL
bcc


@<TRIPOS>ATOM
      1 C4          0.4840   -1.8490   -0.0300 c2        1 SS6     -0.031000
      2 C5          1.5200   -0.8170    0.2500 c2        1 SS6     -0.163000
      3 C6          1.9460   -0.5130    1.5240 c2        1 SS6      0.198000
      4 N1          1.4870   -1.2370    2.6210 n2        1 SS6     -0.289000
      5 N3          0.4700   -3.0750    0.3610 n2        1 SS6     -0.169000
      6 CBA         0.7440   -7.1810    9.7700 c2        1 SS6      0.031000
      7 CAP         1.6280   -6.7450    8.8460 c2        1 SS6     -0.187000
      8 CAJ         0.2700   -6.3300   10.8450 c2        1 SS6     -0.449000
      9 CAH         0.3050   -5.0060   10.8760 c1        1 SS6      0.173000
     10 CAM         1.3210   -4.3070    8.9230 c2        1 SS6     -0.269000
     11 CBE         2.1550   -5.3770    8.8650 c2        1 SS6      0.109000
     12 NBK         3.5720   -5.2490    8.8510 na        1 SS6     -0.124000
     13 NAV         4.3810   -5.9690    9.6580 n2        1 SS6     -0.049000
     14 CBF         5.6370   -5.4740    9.5240 c2        1 SS6     -0.085000
     15 CBL         6.8600   -5.9950   10.2150 c3        1 SS6      0.018000
     16 CAC         7.4700   -4.8680   11.0420 c3        1 SS6     -0.203333
     17 CAD         6.5400   -7.1680   11.1320 c3        1 SS6     -0.203333
     18 CAB         7.8620   -6.4480    9.1570 c3        1 SS6     -0.203333
     19 CAR         5.6440   -4.3510    8.6030 c2        1 SS6     -0.211000
     20 CBG         4.3080   -4.2060    8.1920 c2        1 SS6      0.055000
     21 NAX         3.7420   -3.2900    7.3000 n         1 SS6     -0.282000
     22 CAZ         4.5200   -2.7650    6.2420 c2        1 SS6      0.403000
     23 OAF         5.7700   -2.8210    6.2360 o         1 SS6     -0.380000
     24 CBC         4.5590   -1.5500    4.1430 c2        1 SS6      0.083000
     25 CAQ         4.1600   -0.5030    3.4620 c1        1 SS6     -0.314000
     26 CAK         7.2620    0.2160    6.2440 c2        1 SS6     -0.543000
     27 CAG         6.6030    1.0500    5.4950 c1        1 SS6      0.129000
     28 CAL         4.6460    1.7380    2.8290 c1        1 SS6     -0.032000
     29 CBD         3.8120    0.5610    2.7490 c2        1 SS6      0.060000
     30 NAY         2.7810    0.5930    1.7930 n3        1 SS6     -0.252000
     31 CAS         2.0080   -0.1420   -0.9330 c2        1 SS6     -0.245000
     32 CBB         1.2380   -0.0350   -2.0560 c2        1 SS6      0.020000
     33 NAE         1.7210    0.4570   -3.2640 n3        1 SS6     -0.331000
     34 CAN        -0.1900   -0.5230   -2.0310 c3        1 SS6     -0.212000
     35 CAO        -0.5890   -1.2950   -0.8620 c1        1 SS6      0.081000
     36 C2          1.1200   -1.8040    3.5920 c1        1 SS6      0.136000
     37 HAA         0.5910   -9.1350    8.8610 hc        1 SS6      0.091667
     38 HAAA        0.5190   -9.1070   10.6740 hc        1 SS6      0.091667
     39 HAAB       -0.9060   -8.5460    9.7020 hc        1 SS6      0.091667
     40 HAP         2.0270   -7.4190    8.0720 ha        1 SS6      0.157000
     41 HAJ        -0.1520   -6.8590   11.7250 ha        1 SS6      0.187000
     42 HAH         0.2450   -4.4200    8.7130 ha        1 SS6      0.151000
     43 HAM         1.6560   -3.2750    9.0920 ha        1 SS6      0.151000
     44 HAC         6.7560   -4.5380   11.8340 hc        1 SS6      0.079111
     45 HACA        7.7120   -3.9940   10.3910 hc        1 SS6      0.079111
     46 HACB        8.4080   -5.2230   11.5310 hc        1 SS6      0.079111
     47 HAD         7.4760   -7.5210   11.6270 hc        1 SS6      0.079111
     48 HADA        5.8130   -6.8620   11.9210 hc        1 SS6      0.079111
     49 HADB        6.1030   -8.0140   10.5500 hc        1 SS6      0.079111
     50 HAB         8.8010   -6.7960    9.6510 hc        1 SS6      0.079111
     51 HABA        7.4390   -7.2890    8.5570 hc        1 SS6      0.079111
     52 HABB        8.1080   -5.6050    8.4680 hc        1 SS6      0.079111
     53 HAR         6.4990   -3.7650    8.2800 ha        1 SS6      0.191000
     54 HNAW        2.8800   -1.8450    5.3080 hn        1 SS6      0.248000
     55 HAQ         5.5170   -2.0690    3.9190 h4        1 SS6      0.182000
     56 HAK         6.9860   -0.8560    6.3280 ha        1 SS6      0.207500
     57 HAG         8.1390    0.4730    6.8570 ha        1 SS6      0.207500
     58 HAL         5.0950    1.9790    3.8040 ha        1 SS6      0.115000
     59 HAS         3.0440    0.2310   -0.9170 ha        1 SS6      0.135000
     60 HNAE        1.0370    0.8770   -3.8510 hn        1 SS6      0.193500
     61 HNAA        2.5760    0.9630   -3.2100 hn        1 SS6      0.193500
     62 HAN        -0.8870    0.3610   -2.1190 hc        1 SS6      0.155500
     63 HAO        -0.4070   -1.1910   -2.9210 hc        1 SS6      0.155500
     64 H2          1.2430   -3.3580    0.9280 hn        1 SS6      0.145000
     65 H29         2.7530   -3.3610    7.1630 hn        1 SS6      0.239000
     66 H30         2.9420    1.2030    1.0170 hn        1 SS6      0.252000
     67 NAW         3.8330   -2.1190    5.1940 n         1 SS6     -0.332000
     68 CAA         0.2120   -8.5650    9.7440 c3        1 SS6     -0.191000
@<TRIPOS>BOND
     1    1    2 1   
     2    1    5 1   
     3    1   35 1   
     4    2    3 1   
     5    2   31 1   
     6    3    4 1   
     7    3   30 1   
     8    4   36 1   
     9    5   64 1   
    10    6    7 1   
    11    6    8 1   
    12    6   68 1   
    13    7   11 1   
    14    7   40 1   
    15    8    9 1   
    16    8   41 1   
    17   10   11 1   
    18   10   42 1   
    19   10   43 1   
    20   11   12 1   
    21   12   13 1   
    22   12   20 1   
    23   13   14 1   
    24   14   15 1   
    25   14   19 1   
    26   15   16 1   
    27   15   17 1   
    28   15   18 1   
    29   16   44 1   
    30   16   45 1   
    31   16   46 1   
    32   17   47 1   
    33   17   48 1   
    34   17   49 1   
    35   18   50 1   
    36   18   51 1   
    37   18   52 1   
    38   19   20 1   
    39   19   53 1   
    40   20   21 1   
    41   21   22 1   
    42   21   65 1   
    43   22   23 1   
    44   22   67 1   
    45   24   25 1   
    46   24   55 1   
    47   24   67 1   
    48   25   29 1   
    49   26   27 1   
    50   26   56 1   
    51   26   57 1   
    52   28   29 1   
    53   28   58 1   
    54   29   30 1   
    55   30   66 1   
    56   31   32 1   
    57   31   59 1   
    58   32   33 1   
    59   32   34 1   
    60   33   60 1   
    61   33   61 1   
    62   34   35 1   
    63   34   62 1   
    64   34   63 1   
    65   37   68 1   
    66   38   68 1   
    67   39   68 1   
    68   54   67 1   
@<TRIPOS>SUBSTRUCTURE
     1 SS6         1 TEMP              0 ****  ****    0 ROOT
