@<TRIPOS>MOLECULE
SS7
   48    50     1     0     0
SMALL
bcc


@<TRIPOS>ATOM
      1 O11         0.3730   -0.8630   -0.2730 o         1 SS7     -0.569500
      2 C8          1.4490   -0.2910   -0.0780 c         1 SS7      0.727100
      3 C5          2.1850   -0.1120    1.2130 ca        1 SS7     -0.139600
      4 C4          1.8750   -0.5100    2.4950 ca        1 SS7     -0.064000
      5 C3          2.7890   -0.1920    3.5190 ca        1 SS7     -0.118500
      6 C2          3.9630    0.4990    3.2450 ca        1 SS7     -0.118500
      7 C1          4.2800    0.9080    1.9350 ca        1 SS7     -0.064000
      8 C6          3.3870    0.5970    0.9330 ca        1 SS7     -0.139600
      9 C7          3.4240    0.8850   -0.5410 c         1 SS7      0.727100
     10 O10         4.2970    1.4960   -1.1590 o         1 SS7     -0.569500
     11 N9          2.2240    0.3470   -1.0890 n         1 SS7     -0.514400
     12 C12         1.8720    0.2560   -2.4880 c3        1 SS7      0.124700
     13 C14         2.5060    1.3370   -3.3580 c3        1 SS7     -0.103100
     14 C13         2.1490   -1.1320   -3.1080 c3        1 SS7      0.103400
     15 O15         3.5670   -1.3420   -3.1140 os        1 SS7     -0.339900
     16 C16         3.9470   -2.4620   -3.8480 ca        1 SS7      0.078100
     17 C17         4.0820   -2.3730   -5.2470 ca        1 SS7     -0.065800
     18 C22         3.7250   -1.1370   -5.9810 c3        1 SS7     -0.054300
     19 C18         4.5650   -3.4780   -5.9510 ca        1 SS7     -0.135000
     20 C21         4.2930   -3.6340   -3.1490 ca        1 SS7     -0.065800
     21 C23         4.1670   -3.7060   -1.6760 c3        1 SS7     -0.054300
     22 C20         4.7840   -4.7310   -3.8650 ca        1 SS7     -0.135000
     23 C19         4.9130   -4.6410   -5.2520 ca        1 SS7      0.108100
     24 O24         5.4950   -5.6510   -6.0180 os        1 SS7     -0.369200
     25 C25         5.1110   -6.9620   -5.8440 c         1 SS7      0.639100
     26 O27         4.2630   -7.2420   -5.0000 o         1 SS7     -0.522000
     27 C26         5.8380   -7.8720   -6.7730 c3        1 SS7     -0.151100
     28 H1          0.9460   -1.0570    2.7160 ha        1 SS7      0.159000
     29 H2          2.5620   -0.5010    4.5510 ha        1 SS7      0.143000
     30 H3          4.6630    0.7360    4.0610 ha        1 SS7      0.143000
     31 H4          5.2100    1.4560    1.7220 ha        1 SS7      0.159000
     32 H5          0.7420    0.3760   -2.5260 h1        1 SS7      0.071700
     33 H6          2.0570    1.2790   -4.3790 hc        1 SS7      0.056367
     34 H7          3.6110    1.1780   -3.4350 hc        1 SS7      0.056367
     35 H8          2.3220    2.3530   -2.9360 hc        1 SS7      0.056367
     36 H9          1.7550   -1.1450   -4.1580 h1        1 SS7      0.049700
     37 H10         1.6590   -1.9440   -2.5070 h1        1 SS7      0.049700
     38 H11         3.7150   -0.2540   -5.2920 hc        1 SS7      0.050033
     39 H12         4.4600   -0.9410   -6.8010 hc        1 SS7      0.050033
     40 H13         2.7090   -1.2420   -6.4380 hc        1 SS7      0.050033
     41 H14         4.6870   -3.4360   -7.0430 ha        1 SS7      0.152500
     42 H15         3.2720   -3.1310   -1.3310 hc        1 SS7      0.050033
     43 H16         5.0730   -3.2550   -1.1970 hc        1 SS7      0.050033
     44 H17         4.0710   -4.7640   -1.3310 hc        1 SS7      0.050033
     45 H18         5.0440   -5.6640   -3.3430 ha        1 SS7      0.152500
     46 H19         5.0980   -8.3430   -7.4650 hc        1 SS7      0.078700
     47 H20         6.6010   -7.3140   -7.3680 hc        1 SS7      0.078700
     48 H21         6.3410   -8.6710   -6.1750 hc        1 SS7      0.078700
@<TRIPOS>BOND
     1    1    2 2   
     2    2    3 1   
     3    2   11 1   
     4    3    4 ar  
     5    3    8 ar  
     6    4    5 ar  
     7    4   28 1   
     8    5    6 ar  
     9    5   29 1   
    10    6    7 ar  
    11    6   30 1   
    12    7    8 ar  
    13    7   31 1   
    14    8    9 1   
    15    9   10 2   
    16    9   11 1   
    17   11   12 1   
    18   12   13 1   
    19   12   14 1   
    20   12   32 1   
    21   13   33 1   
    22   13   34 1   
    23   13   35 1   
    24   14   15 1   
    25   14   36 1   
    26   14   37 1   
    27   15   16 1   
    28   16   17 ar  
    29   16   20 ar  
    30   17   18 1   
    31   17   19 ar  
    32   18   38 1   
    33   18   39 1   
    34   18   40 1   
    35   19   23 ar  
    36   19   41 1   
    37   20   21 1   
    38   20   22 ar  
    39   21   42 1   
    40   21   43 1   
    41   21   44 1   
    42   22   23 ar  
    43   22   45 1   
    44   23   24 1   
    45   24   25 1   
    46   25   26 2   
    47   25   27 1   
    48   27   46 1   
    49   27   47 1   
    50   27   48 1   
@<TRIPOS>SUBSTRUCTURE
     1 SS7         1 TEMP              0 ****  ****    0 ROOT
