@<TRIPOS>MOLECULE
SS7
   48    50     1     0     0
SMALL
bcc


@<TRIPOS>ATOM
      1 O11         0.3570   -0.8790   -0.2880 o         1 SS7     -0.569500
      2 C8          1.4310   -0.3050   -0.0850 c         1 SS7      0.727100
      3 C5          2.1590   -0.1280    1.2110 ca        1 SS7     -0.139600
      4 C4          1.8420   -0.5310    2.4900 ca        1 SS7     -0.064000
      5 C3          2.7500   -0.2140    3.5190 ca        1 SS7     -0.118500
      6 C2          3.9230    0.4810    3.2550 ca        1 SS7     -0.118500
      7 C1          4.2460    0.8950    1.9480 ca        1 SS7     -0.064000
      8 C6          3.3600    0.5850    0.9390 ca        1 SS7     -0.139600
      9 C7          3.4050    0.8780   -0.5330 c         1 SS7      0.727100
     10 O10         4.2790    1.4940   -1.1440 o         1 SS7     -0.569500
     11 N9          2.2090    0.3390   -1.0900 n         1 SS7     -0.514400
     12 C12         1.8650    0.2520   -2.4910 c3        1 SS7      0.124700
     13 C14         2.5020    1.3370   -3.3540 c3        1 SS7     -0.103100
     14 C13         2.1500   -1.1340   -3.1140 c3        1 SS7      0.103400
     15 O15         3.5690   -1.3400   -3.1120 os        1 SS7     -0.339900
     16 C16         3.9560   -2.4570   -3.8470 ca        1 SS7      0.078100
     17 C17         4.0990   -2.3630   -5.2450 ca        1 SS7     -0.065800
     18 C22         3.7440   -1.1250   -5.9770 c3        1 SS7     -0.054300
     19 C18         4.5890   -3.4650   -5.9500 ca        1 SS7     -0.135000
     20 C21         4.3000   -3.6300   -3.1500 ca        1 SS7     -0.065800
     21 C23         4.1650   -3.7070   -1.6780 c3        1 SS7     -0.054300
     22 C20         4.7980   -4.7230   -3.8660 ca        1 SS7     -0.135000
     23 C19         4.9360   -4.6290   -5.2530 ca        1 SS7      0.108100
     24 O24         5.5250   -5.6350   -6.0180 os        1 SS7     -0.369200
     25 C25         5.1430   -6.9470   -5.8510 c         1 SS7      0.639100
     26 O27         4.2900   -7.2320   -5.0130 o         1 SS7     -0.522000
     27 C26         5.8780   -7.8520   -6.7790 c3        1 SS7     -0.151100
     28 H1          0.9140   -1.0820    2.7040 ha        1 SS7      0.159000
     29 H2          2.5180   -0.5270    4.5490 ha        1 SS7      0.143000
     30 H3          4.6180    0.7170    4.0760 ha        1 SS7      0.143000
     31 H4          5.1760    1.4460    1.7420 ha        1 SS7      0.159000
     32 H5          0.7350    0.3680   -2.5350 h1        1 SS7      0.071700
     33 H6          3.6070    1.1810   -3.4250 hc        1 SS7      0.056367
     34 H7          2.3120    2.3510   -2.9300 hc        1 SS7      0.056367
     35 H8          2.0590    1.2810   -4.3770 hc        1 SS7      0.056367
     36 H9          1.6590   -1.9490   -2.5190 h1        1 SS7      0.049700
     37 H10         1.7620   -1.1440   -4.1660 h1        1 SS7      0.049700
     38 H11         3.7280   -0.2450   -5.2850 hc        1 SS7      0.050033
     39 H12         4.4830   -0.9250   -6.7920 hc        1 SS7      0.050033
     40 H13         2.7310   -1.2320   -6.4410 hc        1 SS7      0.050033
     41 H14         4.7180   -3.4190   -7.0400 ha        1 SS7      0.152500
     42 H15         4.0690   -4.7670   -1.3370 hc        1 SS7      0.050033
     43 H16         5.0670   -3.2560   -1.1920 hc        1 SS7      0.050033
     44 H17         3.2670   -3.1350   -1.3370 hc        1 SS7      0.050033
     45 H18         5.0570   -5.6570   -3.3460 ha        1 SS7      0.152500
     46 H19         6.6480   -7.2920   -7.3620 hc        1 SS7      0.078700
     47 H20         5.1440   -8.3170   -7.4820 hc        1 SS7      0.078700
     48 H21         6.3730   -8.6560   -6.1810 hc        1 SS7      0.078700
@<TRIPOS>BOND
     1    1    2 2   
     2    2    3 1   
     3    2   11 1   
     4    3    4 ar  
     5    3    8 ar  
     6    4    5 ar  
     7    4   28 1   
     8    5    6 ar  
     9    5   29 1   
    10    6    7 ar  
    11    6   30 1   
    12    7    8 ar  
    13    7   31 1   
    14    8    9 1   
    15    9   10 2   
    16    9   11 1   
    17   11   12 1   
    18   12   13 1   
    19   12   14 1   
    20   12   32 1   
    21   13   33 1   
    22   13   34 1   
    23   13   35 1   
    24   14   15 1   
    25   14   36 1   
    26   14   37 1   
    27   15   16 1   
    28   16   17 ar  
    29   16   20 ar  
    30   17   18 1   
    31   17   19 ar  
    32   18   38 1   
    33   18   39 1   
    34   18   40 1   
    35   19   23 ar  
    36   19   41 1   
    37   20   21 1   
    38   20   22 ar  
    39   21   42 1   
    40   21   43 1   
    41   21   44 1   
    42   22   23 ar  
    43   22   45 1   
    44   23   24 1   
    45   24   25 1   
    46   25   26 2   
    47   25   27 1   
    48   27   46 1   
    49   27   47 1   
    50   27   48 1   
@<TRIPOS>SUBSTRUCTURE
     1 SS7         1 TEMP              0 ****  ****    0 ROOT
