@<TRIPOS>MOLECULE
SS8
   29    31     1     0     0
SMALL
bcc


@<TRIPOS>ATOM
      1 C1          0.5220   -0.7460    0.0520 c         1 SS8      0.931200
      2 O2          1.7480   -0.7640   -0.2530 o         1 SS8     -0.817300
      3 O3          0.0490   -0.9540    1.1980 o         1 SS8     -0.817300
      4 C4         -0.4640   -0.4460   -1.0690 cc        1 SS8     -0.095900
      5 N5         -0.0190   -0.1970   -2.3730 na        1 SS8     -0.131100
      6 C6         -1.1210    0.0380   -3.1640 cc        1 SS8     -0.243600
      7 C7         -2.2940   -0.0670   -2.3240 cd        1 SS8      0.195000
      8 C8         -1.8800   -0.3710   -1.0060 cd        1 SS8     -0.254300
      9 O9         -3.4360    0.1630   -3.0750 os        1 SS8     -0.342800
     10 C10        -2.9780    0.4160   -4.3760 cd        1 SS8      0.238600
     11 C11        -1.5910    0.3550   -4.4890 cc        1 SS8     -0.173100
     12 C12        -0.7580    0.5070   -5.6410 ce        1 SS8     -0.022200
     13 C13        -1.0330    1.0680   -6.8300 cf        1 SS8     -0.173200
     14 C14        -2.2430    1.7460   -7.2610 ca        1 SS8     -0.028800
     15 C15        -2.9160    2.6560   -6.4330 ca        1 SS8     -0.127500
     16 C16        -4.0420    3.3340   -6.8960 ca        1 SS8     -0.135000
     17 C17        -4.5140    3.1100   -8.1890 ca        1 SS8     -0.144000
     18 C18        -3.8530    2.2060   -9.0200 ca        1 SS8     -0.135000
     19 C19        -2.7230    1.5320   -8.5630 ca        1 SS8     -0.127500
     20 H8         -2.4780   -0.5230   -0.1150 ha        1 SS8      0.167000
     21 H10        -3.7720    0.6070   -5.0900 h4        1 SS8      0.041100
     22 H12         0.2550    0.0770   -5.5030 ha        1 SS8      0.122000
     23 H13        -0.2520    1.0320   -7.6140 ha        1 SS8      0.116000
     24 H15        -2.5480    2.8260   -5.4070 ha        1 SS8      0.140500
     25 H16        -4.5590    4.0460   -6.2370 ha        1 SS8      0.124000
     26 H17        -5.4040    3.6430   -8.5520 ha        1 SS8      0.121000
     27 H18        -4.2230    2.0240  -10.0390 ha        1 SS8      0.124000
     28 H19        -2.2010    0.8230   -9.2220 ha        1 SS8      0.140500
     29 HN5         0.9310   -0.2000   -2.6380 hn        1 SS8      0.310700
@<TRIPOS>BOND
     1    1    2 1   
     2    1    3 1   
     3    1    4 1   
     4    4    5 1   
     5    4    8 2   
     6    5    6 1   
     7    5   29 1   
     8    6    7 2   
     9    6   11 1   
    10    7    8 1   
    11    7    9 1   
    12    8   20 1   
    13    9   10 1   
    14   10   11 2   
    15   10   21 1   
    16   11   12 1   
    17   12   13 2   
    18   12   22 1   
    19   13   14 1   
    20   13   23 1   
    21   14   15 ar  
    22   14   19 ar  
    23   15   16 ar  
    24   15   24 1   
    25   16   17 ar  
    26   16   25 1   
    27   17   18 ar  
    28   17   26 1   
    29   18   19 ar  
    30   18   27 1   
    31   19   28 1   
@<TRIPOS>SUBSTRUCTURE
     1 SS8         1 TEMP              0 ****  ****    0 ROOT
