@<TRIPOS>MOLECULE
SS8
   29    31     1     0     0
SMALL
bcc


@<TRIPOS>ATOM
      1 C1          4.9510    0.5680   -0.0390 c         1 SS8      0.931200
      2 O2          5.1310    1.7490    0.3710 o         1 SS8     -0.817300
      3 O3          5.8560   -0.2720   -0.2760 o         1 SS8     -0.817300
      4 C4          3.5100    0.1270   -0.2630 cc        1 SS8     -0.095900
      5 N5          2.4420    0.9990   -0.0160 na        1 SS8     -0.131100
      6 C6          1.2720    0.3360   -0.3060 cc        1 SS8     -0.243600
      7 C7          1.6210   -0.9970   -0.7470 cd        1 SS8      0.195000
      8 C8          3.0300   -1.1280   -0.7200 cd        1 SS8     -0.254300
      9 O9          0.4730   -1.7100   -1.0520 os        1 SS8     -0.342800
     10 C10        -0.5880   -0.8300   -0.7960 cd        1 SS8      0.238600
     11 C11        -0.1660    0.4180   -0.3430 cc        1 SS8     -0.173100
     12 C12        -0.9310    1.5830   -0.0220 ce        1 SS8     -0.022200
     13 C13        -2.2400    1.7000    0.2540 cf        1 SS8     -0.173200
     14 C14        -3.2440    0.6570    0.3710 ca        1 SS8     -0.028800
     15 C15        -2.9890   -0.5430    1.0500 ca        1 SS8     -0.127500
     16 C16        -3.9920   -1.4990    1.1960 ca        1 SS8     -0.135000
     17 C17        -5.2610   -1.2740    0.6620 ca        1 SS8     -0.144000
     18 C18        -5.5240   -0.0840   -0.0160 ca        1 SS8     -0.135000
     19 C19        -4.5270    0.8780   -0.1570 ca        1 SS8     -0.127500
     20 H8          3.6460   -1.9790   -0.9810 ha        1 SS8      0.167000
     21 H10        -1.5670   -1.2520   -1.0010 h4        1 SS8      0.041100
     22 H12        -0.3250    2.5120   -0.0190 ha        1 SS8      0.122000
     23 H13        -2.6450    2.7160    0.4240 ha        1 SS8      0.116000
     24 H15        -1.9830   -0.7250    1.4630 ha        1 SS8      0.140500
     25 H16        -3.7780   -2.4350    1.7320 ha        1 SS8      0.124000
     26 H17        -6.0490   -2.0310    0.7750 ha        1 SS8      0.121000
     27 H18        -6.5220    0.0970   -0.4400 ha        1 SS8      0.124000
     28 H19        -4.7390    1.8170   -0.6880 ha        1 SS8      0.140500
     29 HN5         2.5540    1.9240    0.3080 hn        1 SS8      0.310700
@<TRIPOS>BOND
     1    1    2 1   
     2    1    3 1   
     3    1    4 1   
     4    4    5 1   
     5    4    8 2   
     6    5    6 1   
     7    5   29 1   
     8    6    7 2   
     9    6   11 1   
    10    7    8 1   
    11    7    9 1   
    12    8   20 1   
    13    9   10 1   
    14   10   11 2   
    15   10   21 1   
    16   11   12 1   
    17   12   13 2   
    18   12   22 1   
    19   13   14 1   
    20   13   23 1   
    21   14   15 ar  
    22   14   19 ar  
    23   15   16 ar  
    24   15   24 1   
    25   16   17 ar  
    26   16   25 1   
    27   17   18 ar  
    28   17   26 1   
    29   18   19 ar  
    30   18   27 1   
    31   19   28 1   
@<TRIPOS>SUBSTRUCTURE
     1 SS8         1 TEMP              0 ****  ****    0 ROOT
