@<TRIPOS>MOLECULE
SS8
   29    31     1     0     0
SMALL
bcc


@<TRIPOS>ATOM
      1 C1          0.5160   -0.7640    0.0490 c         1 SS8      0.931200
      2 O2          1.7400   -0.8070   -0.2630 o         1 SS8     -0.817300
      3 O3          0.0460   -0.9560    1.1990 o         1 SS8     -0.817300
      4 C4         -0.4700   -0.4510   -1.0680 cc        1 SS8     -0.095900
      5 N5         -0.0280   -0.2180   -2.3770 na        1 SS8     -0.131100
      6 C6         -1.1290    0.0320   -3.1630 cc        1 SS8     -0.243600
      7 C7         -2.3000   -0.0450   -2.3160 cd        1 SS8      0.195000
      8 C8         -1.8840   -0.3490   -0.9980 cd        1 SS8     -0.254300
      9 O9         -3.4410    0.2020   -3.0620 os        1 SS8     -0.342800
     10 C10        -2.9850    0.4390   -4.3670 cd        1 SS8      0.238600
     11 C11        -1.6000    0.3510   -4.4870 cc        1 SS8     -0.173100
     12 C12        -0.7710    0.4800   -5.6450 ce        1 SS8     -0.022200
     13 C13        -1.0420    1.0380   -6.8360 cf        1 SS8     -0.173200
     14 C14        -2.2420    1.7360   -7.2640 ca        1 SS8     -0.028800
     15 C15        -2.8930    2.6640   -6.4390 ca        1 SS8     -0.127500
     16 C16        -4.0080    3.3600   -6.9010 ca        1 SS8     -0.135000
     17 C17        -4.4930    3.1350   -8.1890 ca        1 SS8     -0.144000
     18 C18        -3.8530    2.2130   -9.0170 ca        1 SS8     -0.135000
     19 C19        -2.7330    1.5220   -8.5620 ca        1 SS8     -0.127500
     20 H8         -2.4790   -0.4840   -0.1030 ha        1 SS8      0.167000
     21 H10        -3.7800    0.6410   -5.0780 h4        1 SS8      0.041100
     22 H12         0.2350    0.0320   -5.5100 ha        1 SS8      0.122000
     23 H13        -0.2670    0.9820   -7.6230 ha        1 SS8      0.116000
     24 H15        -2.5150    2.8340   -5.4170 ha        1 SS8      0.140500
     25 H16        -4.5080    4.0860   -6.2440 ha        1 SS8      0.124000
     26 H17        -5.3750    3.6820   -8.5500 ha        1 SS8      0.121000
     27 H18        -4.2330    2.0310  -10.0330 ha        1 SS8      0.124000
     28 H19        -2.2290    0.7980   -9.2190 ha        1 SS8      0.140500
     29 HN5         0.9210   -0.2420   -2.6470 hn        1 SS8      0.310700
@<TRIPOS>BOND
     1    1    2 1   
     2    1    3 1   
     3    1    4 1   
     4    4    5 1   
     5    4    8 2   
     6    5    6 1   
     7    5   29 1   
     8    6    7 2   
     9    6   11 1   
    10    7    8 1   
    11    7    9 1   
    12    8   20 1   
    13    9   10 1   
    14   10   11 2   
    15   10   21 1   
    16   11   12 1   
    17   12   13 2   
    18   12   22 1   
    19   13   14 1   
    20   13   23 1   
    21   14   15 ar  
    22   14   19 ar  
    23   15   16 ar  
    24   15   24 1   
    25   16   17 ar  
    26   16   25 1   
    27   17   18 ar  
    28   17   26 1   
    29   18   19 ar  
    30   18   27 1   
    31   19   28 1   
@<TRIPOS>SUBSTRUCTURE
     1 SS8         1 TEMP              0 ****  ****    0 ROOT
