@<TRIPOS>MOLECULE
SS9
   33    32     1     0     0
SMALL
bcc


@<TRIPOS>ATOM
      1 C2          0.0080   -0.0010    0.0120 c3        1 SS9      0.103800
      2 C3          1.5330    0.0010   -0.0960 c3        1 SS9     -0.138400
      3 C4          2.1160   -0.0010    1.3180 c3        1 SS9      0.104800
      4 C6          4.1420   -0.0020    2.7480 c3        1 SS9      0.106800
      5 C7          5.6650    0.0020    2.7710 c3        1 SS9     -0.113400
      6 C8          6.1410   -0.0010    4.2140 c3        1 SS9     -0.077400
      7 C9          7.6570    0.0040    4.2570 c3        1 SS9     -0.071400
      8 C10         8.1580    0.0010    5.6800 c3        1 SS9     -0.005300
      9 N1         -0.6780    0.0010   -1.3110 nz        1 SS9     -0.837600
     10 N5          3.6050    0.0010    1.3410 ny        1 SS9     -0.766000
     11 S11         9.9230    0.0110    5.5720 sh        1 SS9     -0.350900
     12 H1         -0.3400    0.9150    0.5770 hx        1 SS9      0.129700
     13 H2         -0.3380   -0.9200    0.5740 hx        1 SS9      0.129700
     14 H3          1.8810    0.9110   -0.6570 hc        1 SS9      0.093700
     15 H4          1.8830   -0.9070   -0.6610 hc        1 SS9      0.093700
     16 H5          1.7620    0.9130    1.8820 hx        1 SS9      0.122700
     17 H6          1.7650   -0.9190    1.8780 hx        1 SS9      0.122700
     18 H7          3.7470   -0.9230    3.2650 hx        1 SS9      0.113700
     19 H8          3.7430    0.9140    3.2710 hx        1 SS9      0.113700
     20 H9          6.0670    0.9130    2.2530 hc        1 SS9      0.075700
     21 H10         6.0720   -0.9040    2.2470 hc        1 SS9      0.075700
     22 H11         5.7510   -0.9100    4.7440 hc        1 SS9      0.060700
     23 H12         5.7450    0.9020    4.7500 hc        1 SS9      0.060700
     24 H13         8.0530   -0.8980    3.7180 hc        1 SS9      0.067700
     25 H14         8.0470    0.9130    3.7250 hc        1 SS9      0.067700
     26 H15         7.7890    0.8990    6.2320 h1        1 SS9      0.066700
     27 H16         7.7990   -0.9060    6.2240 h1        1 SS9      0.066700
     28 H17        -0.4240    0.8370   -1.8530 hn        1 SS9      0.479467
     29 H18        -1.6990   -0.0000   -1.1670 hn        1 SS9      0.479467
     30 H20         3.9650   -0.8280    0.8490 hn        1 SS9      0.459800
     31 H22        10.2180    0.0050    6.8630 hs        1 SS9      0.226800
     32 H131       -0.4230   -0.8330   -1.8560 hn        1 SS9      0.479467
     33 H52         3.9620    0.8330    0.8530 hn        1 SS9      0.459800
@<TRIPOS>BOND
     1    1    2 1   
     2    1    9 1   
     3    1   12 1   
     4    1   13 1   
     5    2    3 1   
     6    2   14 1   
     7    2   15 1   
     8    3   10 1   
     9    3   16 1   
    10    3   17 1   
    11    4    5 1   
    12    4   10 1   
    13    4   18 1   
    14    4   19 1   
    15    5    6 1   
    16    5   20 1   
    17    5   21 1   
    18    6    7 1   
    19    6   22 1   
    20    6   23 1   
    21    7    8 1   
    22    7   24 1   
    23    7   25 1   
    24    8   11 1   
    25    8   26 1   
    26    8   27 1   
    27    9   28 1   
    28    9   29 1   
    29    9   32 1   
    30   10   30 1   
    31   10   33 1   
    32   11   31 1   
@<TRIPOS>SUBSTRUCTURE
     1 SS9         1 TEMP              0 ****  ****    0 ROOT
