@<TRIPOS>MOLECULE
SS9
   33    32     1     0     0
SMALL
bcc


@<TRIPOS>ATOM
      1 C2          0.0060   -0.0000    0.0160 c3        1 SS9      0.103800
      2 C3          1.5300    0.0000   -0.0940 c3        1 SS9     -0.138400
      3 C4          2.1150    0.0010    1.3200 c3        1 SS9      0.104800
      4 C6          4.1430    0.0030    2.7470 c3        1 SS9      0.106800
      5 C7          5.6660    0.0020    2.7690 c3        1 SS9     -0.113400
      6 C8          6.1430    0.0030    4.2120 c3        1 SS9     -0.077400
      7 C9          7.6590   -0.0000    4.2540 c3        1 SS9     -0.071400
      8 C10         8.1620    0.0020    5.6750 c3        1 SS9     -0.005300
      9 N1         -0.6810   -0.0020   -1.3060 n4        1 SS9     -0.837600
     10 N5          3.6040    0.0010    1.3410 n4        1 SS9     -0.766000
     11 S11         9.9270   -0.0060    5.5660 sh        1 SS9     -0.350900
     12 H1         -0.3410    0.9180    0.5800 hx        1 SS9      0.129700
     13 H2         -0.3410   -0.9170    0.5810 hx        1 SS9      0.129700
     14 H3          1.8790   -0.9090   -0.6560 hc        1 SS9      0.093700
     15 H4          1.8790    0.9090   -0.6570 hc        1 SS9      0.093700
     16 H5          1.7640    0.9180    1.8810 hx        1 SS9      0.122700
     17 H6          1.7640   -0.9140    1.8830 hx        1 SS9      0.122700
     18 H7          3.7470    0.9220    3.2670 hx        1 SS9      0.113700
     19 H8          3.7450   -0.9150    3.2690 hx        1 SS9      0.113700
     20 H9          6.0710    0.9090    2.2470 hc        1 SS9      0.075700
     21 H10         6.0690   -0.9080    2.2490 hc        1 SS9      0.075700
     22 H11         5.7520    0.9100    4.7430 hc        1 SS9      0.060700
     23 H12         5.7490   -0.9010    4.7460 hc        1 SS9      0.060700
     24 H13         8.0500   -0.9080    3.7190 hc        1 SS9      0.067700
     25 H14         8.0530    0.9040    3.7160 hc        1 SS9      0.067700
     26 H15         7.7940   -0.8970    6.2270 h1        1 SS9      0.066700
     27 H16         7.8020    0.9070    6.2220 h1        1 SS9      0.066700
     28 H17        -0.4280    0.8330   -1.8500 hn        1 SS9      0.479467
     29 H18        -0.4270   -0.8370   -1.8490 hn        1 SS9      0.479467
     30 H20         3.9620    0.8310    0.8510 hn        1 SS9      0.459800
     31 H22        10.2230   -0.0020    6.8570 hs        1 SS9      0.226800
     32 H131       -1.7020   -0.0020   -1.1610 hn        1 SS9      0.479467
     33 H52         3.9620   -0.8300    0.8520 hn        1 SS9      0.459800
@<TRIPOS>BOND
     1    1    2 1   
     2    1    9 1   
     3    1   12 1   
     4    1   13 1   
     5    2    3 1   
     6    2   14 1   
     7    2   15 1   
     8    3   10 1   
     9    3   16 1   
    10    3   17 1   
    11    4    5 1   
    12    4   10 1   
    13    4   18 1   
    14    4   19 1   
    15    5    6 1   
    16    5   20 1   
    17    5   21 1   
    18    6    7 1   
    19    6   22 1   
    20    6   23 1   
    21    7    8 1   
    22    7   24 1   
    23    7   25 1   
    24    8   11 1   
    25    8   26 1   
    26    8   27 1   
    27    9   28 1   
    28    9   29 1   
    29    9   32 1   
    30   10   30 1   
    31   10   33 1   
    32   11   31 1   
@<TRIPOS>SUBSTRUCTURE
     1 SS9         1 TEMP              0 ****  ****    0 ROOT
