@<TRIPOS>MOLECULE
SSA
   48    50     1     0     0
SMALL
bcc


@<TRIPOS>ATOM
      1 N10        -2.8880   -1.6830   -2.1420 n3        1 SSA     -0.909800
      2 CA         -2.6970   -0.5370   -3.0050 c3        1 SSA      0.104500
      3 CB         -3.5400    0.7080   -2.6530 c3        1 SSA      0.093400
      4 OG         -4.8960    0.2990   -2.7250 oh        1 SSA     -0.614800
      5 C9         -1.2220   -0.0980   -3.0460 c         1 SSA      0.692100
      6 O9         -0.8790    1.0830   -2.8890 o         1 SSA     -0.559100
      7 N8         -0.2540   -1.0740   -3.2970 n         1 SSA     -0.698300
      8 S1          1.3450   -0.8650   -3.5510 s6        1 SSA      1.703100
      9 O1S         1.9550   -2.1160   -3.5200 o         1 SSA     -0.634800
     10 O2S         1.6390    0.0380   -4.5510 o         1 SSA     -0.634800
     11 O5'         1.9030   -0.1130   -2.1620 os        1 SSA     -0.552500
     12 C5'         2.1790   -0.8280   -0.9820 c3        1 SSA      0.162400
     13 C4'         2.9910    0.0900   -0.0670 c3        1 SSA      0.098100
     14 O4'         2.2030    1.2040    0.3730 os        1 SSA     -0.388600
     15 C3'         3.4680   -0.6660    1.1900 c3        1 SSA      0.085100
     16 O3'         4.8500   -0.5090    1.4110 oh        1 SSA     -0.583800
     17 C2'         2.6420   -0.0730    2.3580 c3        1 SSA      0.078100
     18 O2'         3.4870    0.6500    3.2330 oh        1 SSA     -0.586800
     19 C1'         1.7090    0.9910    1.6990 c3        1 SSA      0.253800
     20 N9          0.3150    0.6040    1.6420 na        1 SSA     -0.294000
     21 C8         -0.5420    0.7280    0.5200 cc        1 SSA      0.423700
     22 N7         -1.8150    0.3970    0.7800 nd        1 SSA     -0.576100
     23 C5         -1.8350    0.0520    2.1400 ca        1 SSA     -0.226200
     24 C6         -2.8820   -0.3750    3.0230 ca        1 SSA      0.748200
     25 N6         -4.1540   -0.5860    2.5390 nh        1 SSA     -0.946500
     26 N1         -2.5800   -0.6160    4.3420 nb        1 SSA     -0.787000
     27 C2         -1.2870   -0.4560    4.7310 ca        1 SSA      0.684900
     28 N3         -0.2030   -0.0740    4.0180 nb        1 SSA     -0.735000
     29 C4         -0.4960    0.1840    2.7080 ca        1 SSA      0.455800
     30 HN11       -3.8210   -2.0320   -2.2600 hn        1 SSA      0.373800
     31 HN12       -2.7560   -1.4280   -1.1810 hn        1 SSA      0.373800
     32 HA         -2.9750   -0.8520   -4.0570 h1        1 SSA      0.093700
     33 HB1        -3.2980    1.0720   -1.6190 h1        1 SSA      0.056700
     34 HB2        -3.3300    1.5250   -3.3920 h1        1 SSA      0.056700
     35 HOG        -5.4290    1.0940   -2.6090 ho        1 SSA      0.413000
     36 HN8        -0.6170   -2.0080   -3.2790 hn        1 SSA      0.361500
     37 H5'1        1.2080   -1.1110   -0.4930 h1        1 SSA      0.052700
     38 H5'2        2.7780   -1.7480   -1.2250 h1        1 SSA      0.052700
     39 H4'         3.8420    0.5520   -0.6410 h1        1 SSA      0.112700
     40 H3'         3.3190   -1.7740    1.0960 h1        1 SSA      0.097700
     41 HO3'        5.0180    0.4330    1.5630 ho        1 SSA      0.422000
     42 H2'         2.0860   -0.8710    2.9120 h1        1 SSA      0.090700
     43 HO2'        3.9950   -0.0040    3.7310 ho        1 SSA      0.425000
     44 H1'         1.7980    1.9900    2.2250 h2        1 SSA      0.122700
     45 H8         -0.1480    1.0750   -0.4520 h5        1 SSA      0.106800
     46 HN61       -4.8960   -0.7430    3.1780 hn        1 SSA      0.438800
     47 HN62       -4.3740   -0.2030    1.6520 hn        1 SSA      0.438800
     48 H2         -1.0980   -0.6680    5.8060 h5        1 SSA      0.054100
@<TRIPOS>BOND
     1    1    2 1   
     2    1   30 1   
     3    1   31 1   
     4    2    3 1   
     5    2    5 1   
     6    2   32 1   
     7    3    4 1   
     8    3   33 1   
     9    3   34 1   
    10    4   35 1   
    11    5    6 2   
    12    5    7 1   
    13    7    8 1   
    14    7   36 1   
    15    8    9 2   
    16    8   10 2   
    17    8   11 1   
    18   11   12 1   
    19   12   13 1   
    20   12   37 1   
    21   12   38 1   
    22   13   14 1   
    23   13   15 1   
    24   13   39 1   
    25   14   19 1   
    26   15   16 1   
    27   15   17 1   
    28   15   40 1   
    29   16   41 1   
    30   17   18 1   
    31   17   19 1   
    32   17   42 1   
    33   18   43 1   
    34   19   20 1   
    35   19   44 1   
    36   20   21 1   
    37   20   29 1   
    38   21   22 2   
    39   21   45 1   
    40   22   23 1   
    41   23   24 ar  
    42   23   29 ar  
    43   24   25 1   
    44   24   26 ar  
    45   25   46 1   
    46   25   47 1   
    47   26   27 ar  
    48   27   28 ar  
    49   27   48 1   
    50   28   29 ar  
@<TRIPOS>SUBSTRUCTURE
     1 SSA         1 TEMP              0 ****  ****    0 ROOT
