@<TRIPOS>MOLECULE
SSA
   48    50     1     0     0
SMALL
bcc


@<TRIPOS>ATOM
      1 N10         0.9820    1.4920   -1.1980 n3        1 SSA     -0.908800
      2 CA          1.1400    0.3120   -0.3750 c3        1 SSA      0.103500
      3 CB         -0.1680   -0.2850    0.1880 c3        1 SSA      0.093400
      4 OG         -0.7650    0.7390    0.9680 oh        1 SSA     -0.614800
      5 C9          1.8700   -0.8110   -1.1330 c         1 SSA      0.692100
      6 O9          1.4260   -1.9670   -1.1920 o         1 SSA     -0.560100
      7 N8          3.0850   -0.5000   -1.7510 n         1 SSA     -0.697300
      8 S1          4.1410   -1.5180   -2.4710 s6        1 SSA      1.702100
      9 O1S         5.0860   -0.7500   -3.1440 o         1 SSA     -0.634300
     10 O2S         4.5260   -2.5760   -1.6770 o         1 SSA     -0.634300
     11 O5'         3.2620   -2.2430   -3.7000 os        1 SSA     -0.550500
     12 C5'         3.0070   -1.5930   -4.9210 c3        1 SSA      0.162400
     13 C4'         2.4880   -2.6430   -5.9040 c3        1 SSA      0.093100
     14 O4'         1.2060   -3.1340   -5.4900 os        1 SSA     -0.385600
     15 C3'         2.3290   -2.0390   -7.3170 c3        1 SSA      0.128100
     16 O3'         2.9450   -2.8390   -8.2940 oh        1 SSA     -0.569800
     17 C2'         0.8040   -1.8770   -7.5130 c3        1 SSA      0.081100
     18 O2'         0.4150   -2.6300   -8.6400 oh        1 SSA     -0.589800
     19 C1'         0.1580   -2.5100   -6.2340 c3        1 SSA      0.216800
     20 N9         -0.5480   -1.5600   -5.4020 na        1 SSA     -0.291000
     21 C8         -0.4280   -1.3670   -4.0050 cc        1 SSA      0.426700
     22 N7         -1.2790   -0.4500   -3.5190 nd        1 SSA     -0.575100
     23 C5         -2.0220   -0.0120   -4.6260 ca        1 SSA     -0.224200
     24 C6         -3.0880    0.9370   -4.7790 ca        1 SSA      0.754200
     25 N6         -3.5180    1.6740   -3.7020 nh        1 SSA     -0.949500
     26 N1         -3.6360    1.1240   -6.0260 nb        1 SSA     -0.789000
     27 C2         -3.1180    0.4050   -7.0570 ca        1 SSA      0.688900
     28 N3         -2.1200   -0.5090   -7.0690 nb        1 SSA     -0.754000
     29 C4         -1.5790   -0.7090   -5.8290 ca        1 SSA      0.448800
     30 HN11        0.6520    2.2490   -0.6290 hn        1 SSA      0.373300
     31 HN12        0.3190    1.3240   -1.9320 hn        1 SSA      0.373300
     32 HA          1.7930    0.5950    0.5060 h1        1 SSA      0.093700
     33 HB1         0.0690   -1.1800    0.8220 h1        1 SSA      0.056700
     34 HB2        -0.8560   -0.5920   -0.6450 h1        1 SSA      0.056700
     35 HOG        -1.5300    0.3430    1.4010 ho        1 SSA      0.414000
     36 HN8         3.2860    0.4810   -1.7600 hn        1 SSA      0.360500
     37 H5'1        2.2310   -0.7970   -4.7540 h1        1 SSA      0.051200
     38 H5'2        3.9570   -1.1380   -5.3160 h1        1 SSA      0.051200
     39 H4'         3.1560   -3.5470   -5.8980 h1        1 SSA      0.116700
     40 H3'         2.8480   -1.0450   -7.4010 h1        1 SSA      0.094700
     41 HO3'        2.3910   -3.6180   -8.4410 ho        1 SSA      0.426000
     42 H2'         0.5380   -0.7950   -7.6410 h1        1 SSA      0.084700
     43 HO2'       -0.4600   -2.3100   -8.9010 ho        1 SSA      0.433000
     44 H1'        -0.5540   -3.3450   -6.5150 h2        1 SSA      0.106700
     45 H8          0.3040   -1.9500   -3.4190 h5        1 SSA      0.106800
     46 HN61       -4.3290    2.2370   -3.7840 hn        1 SSA      0.442800
     47 HN62       -3.2270    1.3880   -2.8000 hn        1 SSA      0.442800
     48 H2         -3.5970    0.6000   -8.0420 h5        1 SSA      0.053100
@<TRIPOS>BOND
     1    1    2 1   
     2    1   30 1   
     3    1   31 1   
     4    2    3 1   
     5    2    5 1   
     6    2   32 1   
     7    3    4 1   
     8    3   33 1   
     9    3   34 1   
    10    4   35 1   
    11    5    6 2   
    12    5    7 1   
    13    7    8 1   
    14    7   36 1   
    15    8    9 2   
    16    8   10 2   
    17    8   11 1   
    18   11   12 1   
    19   12   13 1   
    20   12   37 1   
    21   12   38 1   
    22   13   14 1   
    23   13   15 1   
    24   13   39 1   
    25   14   19 1   
    26   15   16 1   
    27   15   17 1   
    28   15   40 1   
    29   16   41 1   
    30   17   18 1   
    31   17   19 1   
    32   17   42 1   
    33   18   43 1   
    34   19   20 1   
    35   19   44 1   
    36   20   21 1   
    37   20   29 1   
    38   21   22 2   
    39   21   45 1   
    40   22   23 1   
    41   23   24 ar  
    42   23   29 ar  
    43   24   25 1   
    44   24   26 ar  
    45   25   46 1   
    46   25   47 1   
    47   26   27 ar  
    48   27   28 ar  
    49   27   48 1   
    50   28   29 ar  
@<TRIPOS>SUBSTRUCTURE
     1 SSA         1 TEMP              0 ****  ****    0 ROOT
