@<TRIPOS>MOLECULE
SSB
   26    26     1     0     0
SMALL
bcc


@<TRIPOS>ATOM
      1 S1         -0.0300   -0.3260   -0.0570 s4        1 SSB      0.224600
      2 C2          1.6570    0.1830   -0.0060 c3        1 SSB     -0.077100
      3 C3          2.1790    0.0840    1.4160 c3        1 SSB     -0.047700
      4 C4          0.9800    0.1220    2.3650 c3        1 SSB     -0.061400
      5 C5         -0.1950   -0.5410    1.6870 c3        1 SSB     -0.080100
      6 O6         -0.0390   -1.6960   -0.6450 o         1 SSB     -0.502200
      7 C7          3.1710    1.1810    1.7570 c3        1 SSB     -0.070400
      8 C8          4.4620    1.0330    0.9800 c3        1 SSB     -0.080400
      9 C9          5.4320    2.1480    1.3090 c3        1 SSB     -0.079400
     10 C10         6.7210    2.0020    0.5420 c3        1 SSB     -0.093100
     11 H21         2.2890   -0.4310   -0.6930 h1        1 SSB      0.089200
     12 H22         1.7080    1.2400   -0.3680 h1        1 SSB      0.089200
     13 H3          2.6950   -0.9110    1.5370 hc        1 SSB      0.062700
     14 H41         1.2340   -0.3970    3.3230 hc        1 SSB      0.050200
     15 H42         0.7300    1.1850    2.6200 hc        1 SSB      0.050200
     16 H51        -0.2430   -1.6250    1.9530 h1        1 SSB      0.090200
     17 H52        -1.1560   -0.0800    2.0210 h1        1 SSB      0.090200
     18 H71         2.7160    2.1840    1.5450 hc        1 SSB      0.041200
     19 H72         3.3920    1.1410    2.8570 hc        1 SSB      0.041200
     20 H81         4.9330    0.0430    1.2150 hc        1 SSB      0.042700
     21 H82         4.2390    1.0400   -0.1200 hc        1 SSB      0.042700
     22 H91         4.9610    3.1370    1.0700 hc        1 SSB      0.038200
     23 H92         5.6460    2.1430    2.4110 hc        1 SSB      0.038200
     24 H101        6.5300    2.0280   -0.5580 hc        1 SSB      0.033700
     25 H102        7.2190    1.0330    0.7880 hc        1 SSB      0.033700
     26 H103        7.4210    2.8330    0.7990 hc        1 SSB      0.033700
@<TRIPOS>BOND
     1    1    2 1   
     2    1    5 1   
     3    1    6 2   
     4    2    3 1   
     5    2   11 1   
     6    2   12 1   
     7    3    4 1   
     8    3    7 1   
     9    3   13 1   
    10    4    5 1   
    11    4   14 1   
    12    4   15 1   
    13    5   16 1   
    14    5   17 1   
    15    7    8 1   
    16    7   18 1   
    17    7   19 1   
    18    8    9 1   
    19    8   20 1   
    20    8   21 1   
    21    9   10 1   
    22    9   22 1   
    23    9   23 1   
    24   10   24 1   
    25   10   25 1   
    26   10   26 1   
@<TRIPOS>SUBSTRUCTURE
     1 SSB         1 TEMP              0 ****  ****    0 ROOT
