@<TRIPOS>MOLECULE
SSB
   26    26     1     0     0
SMALL
bcc


@<TRIPOS>ATOM
      1 S1          2.3770   -0.5870    0.0890 s4        1 SSB      0.224600
      2 C2          0.6260   -0.7450   -0.0450 c3        1 SSB     -0.077100
      3 C3          0.0160    0.6020   -0.3860 c3        1 SSB     -0.047700
      4 C4          1.0020    1.6910    0.0400 c3        1 SSB     -0.061400
      5 C5          2.4070    1.1640   -0.1270 c3        1 SSB     -0.080100
      6 O6          2.9490   -1.1670   -1.1610 o         1 SSB     -0.502200
      7 C7         -1.3380    0.8170    0.2650 c3        1 SSB     -0.070400
      8 C8         -2.3890   -0.1130   -0.3020 c3        1 SSB     -0.080400
      9 C9         -3.7280    0.0930    0.3730 c3        1 SSB     -0.079400
     10 C10        -4.7790   -0.8270   -0.1920 c3        1 SSB     -0.093100
     11 H21         0.3440   -1.5030   -0.8150 h1        1 SSB      0.089200
     12 H22         0.2390   -1.1120    0.9380 h1        1 SSB      0.089200
     13 H3         -0.1150    0.6610   -1.5040 hc        1 SSB      0.062700
     14 H41         0.8440    2.6120   -0.5770 hc        1 SSB      0.050200
     15 H42         0.8190    1.9730    1.1090 hc        1 SSB      0.050200
     16 H51         3.0900    1.6130    0.6330 h1        1 SSB      0.090200
     17 H52         2.8130    1.4370   -1.1320 h1        1 SSB      0.090200
     18 H71        -1.2560    0.6610    1.3730 hc        1 SSB      0.041200
     19 H72        -1.6550    1.8820    0.1020 hc        1 SSB      0.041200
     20 H81        -2.4940    0.0640   -1.4050 hc        1 SSB      0.042700
     21 H82        -2.0580   -1.1770   -0.1690 hc        1 SSB      0.042700
     22 H91        -3.6230   -0.0880    1.4760 hc        1 SSB      0.038200
     23 H92        -4.0520    1.1600    0.2440 hc        1 SSB      0.038200
     24 H101       -4.9170   -0.6430   -1.2850 hc        1 SSB      0.033700
     25 H102       -4.4850   -1.8950   -0.0520 hc        1 SSB      0.033700
     26 H103       -5.7570   -0.6600    0.3200 hc        1 SSB      0.033700
@<TRIPOS>BOND
     1    1    2 1   
     2    1    5 1   
     3    1    6 2   
     4    2    3 1   
     5    2   11 1   
     6    2   12 1   
     7    3    4 1   
     8    3    7 1   
     9    3   13 1   
    10    4    5 1   
    11    4   14 1   
    12    4   15 1   
    13    5   16 1   
    14    5   17 1   
    15    7    8 1   
    16    7   18 1   
    17    7   19 1   
    18    8    9 1   
    19    8   20 1   
    20    8   21 1   
    21    9   10 1   
    22    9   22 1   
    23    9   23 1   
    24   10   24 1   
    25   10   25 1   
    26   10   26 1   
@<TRIPOS>SUBSTRUCTURE
     1 SSB         1 TEMP              0 ****  ****    0 ROOT
