@<TRIPOS>MOLECULE
SSB
   26    26     1     0     0
SMALL
bcc


@<TRIPOS>ATOM
      1 S1         -0.0120   -0.3770   -0.0630 s4        1 SSB      0.224600
      2 C2          1.6700    0.1490   -0.0090 c3        1 SSB     -0.077100
      3 C3          2.1820    0.0780    1.4190 c3        1 SSB     -0.047700
      4 C4          0.9760    0.1200    2.3580 c3        1 SSB     -0.061400
      5 C5         -0.1880   -0.5640    1.6830 c3        1 SSB     -0.080100
      6 O6         -0.0040   -1.7570   -0.6280 o         1 SSB     -0.502200
      7 C7          3.1620    1.1890    1.7490 c3        1 SSB     -0.070400
      8 C8          4.4590    1.0410    0.9830 c3        1 SSB     -0.080400
      9 C9          5.4170    2.1690    1.3010 c3        1 SSB     -0.079400
     10 C10         6.7130    2.0230    0.5460 c3        1 SSB     -0.093100
     11 H21         2.3120   -0.4710   -0.6800 h1        1 SSB      0.089200
     12 H22         1.7140    1.1990   -0.3880 h1        1 SSB      0.089200
     13 H3          2.7060   -0.9100    1.5600 hc        1 SSB      0.062700
     14 H41         1.2280   -0.3800    3.3270 hc        1 SSB      0.050200
     15 H42         0.7140    1.1850    2.5930 hc        1 SSB      0.050200
     16 H51        -0.2280   -1.6450    1.9670 h1        1 SSB      0.090200
     17 H52        -1.1550   -0.1070    2.0020 h1        1 SSB      0.090200
     18 H71         2.6990    2.1840    1.5170 hc        1 SSB      0.041200
     19 H72         3.3740    1.1700    2.8510 hc        1 SSB      0.041200
     20 H81         4.2440    1.0270   -0.1180 hc        1 SSB      0.042700
     21 H82         4.9380    0.0580    1.2380 hc        1 SSB      0.042700
     22 H91         5.6240    2.1840    2.4040 hc        1 SSB      0.038200
     23 H92         4.9390    3.1500    1.0430 hc        1 SSB      0.038200
     24 H101        7.2170    1.0620    0.8100 hc        1 SSB      0.033700
     25 H102        6.5300    2.0290   -0.5560 hc        1 SSB      0.033700
     26 H103        7.4040    2.8640    0.7940 hc        1 SSB      0.033700
@<TRIPOS>BOND
     1    1    2 1   
     2    1    5 1   
     3    1    6 2   
     4    2    3 1   
     5    2   11 1   
     6    2   12 1   
     7    3    4 1   
     8    3    7 1   
     9    3   13 1   
    10    4    5 1   
    11    4   14 1   
    12    4   15 1   
    13    5   16 1   
    14    5   17 1   
    15    7    8 1   
    16    7   18 1   
    17    7   19 1   
    18    8    9 1   
    19    8   20 1   
    20    8   21 1   
    21    9   10 1   
    22    9   22 1   
    23    9   23 1   
    24   10   24 1   
    25   10   25 1   
    26   10   26 1   
@<TRIPOS>SUBSTRUCTURE
     1 SSB         1 TEMP              0 ****  ****    0 ROOT
