@<TRIPOS>MOLECULE
SSC
   21    21     1     0     0
SMALL
bcc


@<TRIPOS>ATOM
      1 NS          0.5020   -0.5030   -0.5010 n3        1 SSC     -0.801200
      2 C1S        -0.4860   -0.6170   -1.5760 c3        1 SSC      0.045500
      3 CS          0.0470   -0.3230   -3.0040 c         1 SSC      0.904600
      4 O1S         1.0780    0.3960   -3.1530 o         1 SSC     -0.863800
      5 O2S        -0.5910   -0.8250   -3.9780 o         1 SSC     -0.863800
      6 CSS        -1.6820    0.3080   -1.2610 c3        1 SSC     -0.077400
      7 C3S        -1.4460    0.8440    0.1430 c3        1 SSC     -0.099400
      8 C4S        -0.0910    0.2660    0.6120 c3        1 SSC      0.176500
      9 C5S        -0.2730   -0.5790    1.8750 c3        1 SSC     -0.169400
     10 C6S        -0.6990    0.2750    3.0750 c         1 SSC      0.900600
     11 O3S        -1.9020    0.2080    3.4740 o         1 SSC     -0.873800
     12 O4S         0.1690    0.9930    3.6600 o         1 SSC     -0.873800
     13 HNS         1.3020   -0.0060   -0.8570 hn        1 SSC      0.355800
     14 H1S        -0.8440   -1.6860   -1.5700 h1        1 SSC      0.036700
     15 HSS1       -2.6390   -0.2640   -1.3230 hc        1 SSC      0.022200
     16 HSS2       -1.7350    1.1380   -2.0080 hc        1 SSC      0.022200
     17 H3S1       -2.2570    0.5390    0.8510 hc        1 SSC      0.039700
     18 H3S2       -1.4030    1.9610    0.1410 hc        1 SSC      0.039700
     19 H4S         0.5930    1.1200    0.8940 h1        1 SSC      0.034700
     20 H5S1        0.6960   -1.0810    2.1300 hc        1 SSC      0.022700
     21 H5S2       -1.0400   -1.3730    1.6970 hc        1 SSC      0.022700
@<TRIPOS>BOND
     1    1    2 1   
     2    1    8 1   
     3    1   13 1   
     4    2    3 1   
     5    2    6 1   
     6    2   14 1   
     7    3    4 1   
     8    3    5 1   
     9    6    7 1   
    10    6   15 1   
    11    6   16 1   
    12    7    8 1   
    13    7   17 1   
    14    7   18 1   
    15    8    9 1   
    16    8   19 1   
    17    9   10 1   
    18    9   20 1   
    19    9   21 1   
    20   10   11 1   
    21   10   12 1   
@<TRIPOS>SUBSTRUCTURE
     1 SSC         1 TEMP              0 ****  ****    0 ROOT
