@<TRIPOS>MOLECULE
SSC
   21    21     1     0     0
SMALL
bcc


@<TRIPOS>ATOM
      1 NS          0.3160   -0.4100   -0.2980 n7        1 SSC     -0.788200
      2 C1S         1.6160    0.0420    0.2160 c3        1 SSC      0.057500
      3 CS          2.8180   -0.6880   -0.4430 c         1 SSC      0.927600
      4 O1S         3.4900   -1.5240    0.2280 o         1 SSC     -0.864300
      5 O2S         3.1180   -0.3540   -1.6280 o         1 SSC     -0.864300
      6 CSS         1.5700   -0.1090    1.7470 c3        1 SSC     -0.078400
      7 C3S         0.0920   -0.1800    2.1150 c3        1 SSC     -0.086400
      8 C4S        -0.6800   -0.2830    0.7800 c3        1 SSC      0.170500
      9 C5S        -1.6660    0.8770    0.6240 c3        1 SSC     -0.204400
     10 C6S        -2.7830    0.8460    1.6740 c         1 SSC      0.908600
     11 O3S        -2.6820    1.5950    2.6930 o         1 SSC     -0.869300
     12 O4S        -3.7930    0.1070    1.4710 o         1 SSC     -0.869300
     13 HNS         0.0590    0.1460   -1.0900 hn        1 SSC      0.334800
     14 H1S         1.7710    1.1400   -0.0190 h1        1 SSC     -0.007300
     15 HSS1        2.0730    0.7570    2.2400 hc        1 SSC      0.034200
     16 HSS2        2.1130   -1.0410    2.0430 hc        1 SSC      0.034200
     17 H3S1       -0.2450    0.7230    2.6830 hc        1 SSC      0.039700
     18 H3S2       -0.1180   -1.0760    2.7470 hc        1 SSC      0.039700
     19 H4S        -1.2800   -1.2380    0.7660 h1        1 SSC      0.050700
     20 H5S1       -2.1420    0.8270   -0.3890 hc        1 SSC      0.017700
     21 H5S2       -1.1200    1.8510    0.7060 hc        1 SSC      0.017700
@<TRIPOS>BOND
     1    1    2 1   
     2    1    8 1   
     3    1   13 1   
     4    2    3 1   
     5    2    6 1   
     6    2   14 1   
     7    3    4 1   
     8    3    5 1   
     9    6    7 1   
    10    6   15 1   
    11    6   16 1   
    12    7    8 1   
    13    7   17 1   
    14    7   18 1   
    15    8    9 1   
    16    8   19 1   
    17    9   10 1   
    18    9   20 1   
    19    9   21 1   
    20   10   11 1   
    21   10   12 1   
@<TRIPOS>SUBSTRUCTURE
     1 SSC         1 TEMP              0 ****  ****    0 ROOT
