@<TRIPOS>MOLECULE
SSC
   21    21     1     0     0
SMALL
bcc


@<TRIPOS>ATOM
      1 NS          0.2880   -0.3590   -0.3230 n3        1 SSC     -0.788200
      2 C1S         1.6000    0.0680    0.1810 c3        1 SSC      0.057500
      3 CS          2.7850   -0.6360   -0.5360 c         1 SSC      0.927600
      4 O1S         3.4690   -1.5010    0.0840 o         1 SSC     -0.864300
      5 O2S         3.0590   -0.2520   -1.7120 o         1 SSC     -0.864300
      6 CSS         1.5880   -0.1480    1.7040 c3        1 SSC     -0.078400
      7 C3S         0.1190   -0.2310    2.1030 c3        1 SSC     -0.086400
      8 C4S        -0.6840   -0.2760    0.7820 c3        1 SSC      0.170500
      9 C5S        -1.6690    0.8920    0.6980 c3        1 SSC     -0.204400
     10 C6S        -2.7630    0.8180    1.7710 c         1 SSC      0.908600
     11 O3S        -2.6370    1.5240    2.8170 o         1 SSC     -0.869300
     12 O4S        -3.7790    0.0900    1.5590 o         1 SSC     -0.869300
     13 HNS         0.0140    0.2310   -1.0840 hn        1 SSC      0.334800
     14 H1S         1.7530    1.1740   -0.0100 h1        1 SSC     -0.007300
     15 HSS1        2.1050    0.6950    2.2220 hc        1 SSC      0.034200
     16 HSS2        2.1350   -1.0930    1.9480 hc        1 SSC      0.034200
     17 H3S1       -0.0810   -1.1530    2.7000 hc        1 SSC      0.039700
     18 H3S2       -0.2030    0.6470    2.7160 hc        1 SSC      0.039700
     19 H4S        -1.2870   -1.2280    0.7410 h1        1 SSC      0.050700
     20 H5S1       -2.1680    0.8850   -0.3050 hc        1 SSC      0.017700
     21 H5S2       -1.1190    1.8610    0.8080 hc        1 SSC      0.017700
@<TRIPOS>BOND
     1    1    2 1   
     2    1    8 1   
     3    1   13 1   
     4    2    3 1   
     5    2    6 1   
     6    2   14 1   
     7    3    4 1   
     8    3    5 1   
     9    6    7 1   
    10    6   15 1   
    11    6   16 1   
    12    7    8 1   
    13    7   17 1   
    14    7   18 1   
    15    8    9 1   
    16    8   19 1   
    17    9   10 1   
    18    9   20 1   
    19    9   21 1   
    20   10   11 1   
    21   10   12 1   
@<TRIPOS>SUBSTRUCTURE
     1 SSC         1 TEMP              0 ****  ****    0 ROOT
