@<TRIPOS>MOLECULE
SSC
   21    21     1     0     0
SMALL
bcc


@<TRIPOS>ATOM
      1 NS          0.2820   -0.5020   -0.2670 n3        1 SSC     -0.788200
      2 C1S         1.5930    0.0100    0.1540 c3        1 SSC      0.057500
      3 CS          2.7800   -0.7470   -0.5020 c         1 SSC      0.927600
      4 O1S         3.4970   -1.5170    0.2000 o         1 SSC     -0.864800
      5 O2S         3.0210   -0.4990   -1.7200 o         1 SSC     -0.864800
      6 CSS         1.6150   -0.0240    1.6920 c3        1 SSC     -0.078400
      7 C3S         0.1570   -0.0920    2.1300 c3        1 SSC     -0.086400
      8 C4S        -0.6700   -0.3090    0.8420 c3        1 SSC      0.170500
      9 C5S        -1.6850    0.8190    0.6430 c3        1 SSC     -0.204400
     10 C6S        -2.7550    0.8480    1.7410 c         1 SSC      0.908600
     11 O3S        -2.6240    1.6730    2.6960 o         1 SSC     -0.869300
     12 O4S        -3.7590    0.0800    1.6380 o         1 SSC     -0.869300
     13 HNS        -0.0210   -0.0120   -1.0860 hn        1 SSC      0.334800
     14 H1S         1.7150    1.0900   -0.1700 h1        1 SSC     -0.007300
     15 HSS1        2.1210    0.8850    2.0950 hc        1 SSC      0.034200
     16 HSS2        2.1900   -0.9220    2.0330 hc        1 SSC      0.034200
     17 H3S1       -0.1740    0.8450    2.6430 hc        1 SSC      0.039700
     18 H3S2       -0.0080   -0.9420    2.8360 hc        1 SSC      0.039700
     19 H4S        -1.2510   -1.2730    0.9270 h1        1 SSC      0.050700
     20 H5S1       -1.1560    1.8050    0.6270 hc        1 SSC      0.017700
     21 H5S2       -2.2030    0.6830   -0.3410 hc        1 SSC      0.017700
@<TRIPOS>BOND
     1    1    2 1   
     2    1    8 1   
     3    1   13 1   
     4    2    3 1   
     5    2    6 1   
     6    2   14 1   
     7    3    4 1   
     8    3    5 1   
     9    6    7 1   
    10    6   15 1   
    11    6   16 1   
    12    7    8 1   
    13    7   17 1   
    14    7   18 1   
    15    8    9 1   
    16    8   19 1   
    17    9   10 1   
    18    9   20 1   
    19    9   21 1   
    20   10   11 1   
    21   10   12 1   
@<TRIPOS>SUBSTRUCTURE
     1 SSC         1 TEMP              0 ****  ****    0 ROOT
