@<TRIPOS>MOLECULE
SSD
   38    37     1     0     0
SMALL
bcc


@<TRIPOS>ATOM
      1 C1         -4.1870   -0.1530    0.7890 c3        1 SSD      0.090000
      2 C2         -3.2640    0.8710    1.5010 c3        1 SSD      0.014000
      3 C3         -1.8280    0.3730    1.5360 c3        1 SSD     -0.313000
      4 C5         -3.5030   -0.7650   -0.3870 c2        1 SSD     -0.587000
      5 S4         -1.4550   -0.4620    0.0250 ss        1 SSD      0.238000
      6 O2         -3.3590    2.1390    0.8670 oh        1 SSD     -0.357000
      7 O1         -4.5930   -1.1210    1.7570 oh        1 SSD     -0.367000
      8 C6         -3.7680   -0.1450   -1.6990 c3        1 SSD      0.081000
      9 O6         -5.0600   -0.5370   -2.2000 oh        1 SSD     -0.380000
     10 C7          0.3480   -0.4960    0.0100 c3        1 SSD     -0.516000
     11 C8          1.0380    0.7910   -0.3810 c3        1 SSD      0.065000
     12 C9          2.5570    0.6090   -0.6090 c3        1 SSD      0.071000
     13 C10         3.1970    1.9020   -1.1490 c3        1 SSD     -0.044000
     14 O10         3.5630    2.8170   -0.1370 oh        1 SSD     -0.365000
     15 O8          0.5110    1.3220   -1.6010 oh        1 SSD     -0.383000
     16 O9          3.1530    0.2610    0.6050 os        1 SSD     -0.749000
     17 S9          4.6980   -0.4880    0.7140 s6        1 SSD      2.871000
     18 O11         4.8480   -1.1660   -0.4990 o         1 SSD     -1.084000
     19 O12         5.5070    0.6480    0.8580 o         1 SSD     -1.084000
     20 O13         4.5930   -1.2910    1.8490 o         1 SSD     -1.084000
     21 H1         -5.1460    0.3730    0.5120 h1        1 SSD      0.068000
     22 H2         -3.6400    1.0630    2.5460 h1        1 SSD      0.076000
     23 H31        -1.7070   -0.3300    2.3960 h1        1 SSD      0.082000
     24 H32        -1.1240    1.2250    1.6930 h1        1 SSD      0.082000
     25 H5         -3.5550   -1.8650   -0.4060 ha        1 SSD      0.087000
     26 HO2        -2.9620    2.0290   -0.0080 ho        1 SSD      0.210000
     27 HO1        -3.8650   -1.7500    1.8310 ho        1 SSD      0.195000
     28 H61        -3.7510    0.9800   -1.6400 h1        1 SSD      0.025000
     29 H62        -2.9970   -0.4700   -2.4520 h1        1 SSD      0.025000
     30 HO6        -5.1590   -0.1210   -3.0610 ho        1 SSD      0.142000
     31 H71         0.6040   -1.2920   -0.7300 h1        1 SSD      0.082500
     32 H72         0.7400   -0.8100    1.0030 h1        1 SSD      0.082500
     33 H8          0.8910    1.5720    0.4180 h1        1 SSD      0.067000
     34 H9          2.7150   -0.2120   -1.3660 h1        1 SSD      0.078000
     35 H101        2.4710    2.4550   -1.8000 h1        1 SSD      0.069000
     36 H102        4.1140    1.6360   -1.7440 h1        1 SSD      0.069000
     37 H10         4.0170    2.3060    0.5540 ho        1 SSD      0.233000
     38 HO8        -0.4020    0.9980   -1.6560 ho        1 SSD      0.210000
@<TRIPOS>BOND
     1    1    2 1   
     2    1    4 1   
     3    1    7 1   
     4    1   21 1   
     5    2    3 1   
     6    2    6 1   
     7    2   22 1   
     8    3    5 1   
     9    3   23 1   
    10    3   24 1   
    11    4    8 1   
    12    4   25 1   
    13    5   10 1   
    14    6   26 1   
    15    7   27 1   
    16    8    9 1   
    17    8   28 1   
    18    8   29 1   
    19    9   30 1   
    20   10   11 1   
    21   10   31 1   
    22   10   32 1   
    23   11   12 1   
    24   11   15 1   
    25   11   33 1   
    26   12   13 1   
    27   12   16 1   
    28   12   34 1   
    29   13   14 1   
    30   13   35 1   
    31   13   36 1   
    32   14   37 1   
    33   15   38 1   
    34   16   17 1   
    35   17   18 1   
    36   17   19 1   
    37   17   20 1   
@<TRIPOS>SUBSTRUCTURE
     1 SSD         1 TEMP              0 ****  ****    0 ROOT
