@<TRIPOS>MOLECULE
SSE
   38    37     1     0     0
SMALL
bcc


@<TRIPOS>ATOM
      1 C1         31.5880   65.7170    6.7390 c3        1 SSE      0.164000
      2 O1         32.7830   65.2900    6.0510 oh        1 SSE     -0.413000
      3 C2         32.0530   66.8090    7.7480 c3        1 SSE      0.002000
      4 O2         33.3980   66.6470    8.1780 oh        1 SSE     -0.361000
      5 C3         31.0960   66.8990    8.9250 c3        1 SSE     -0.269000
      6 SE4        31.0160   65.3800    9.8580 ss        1 SSE     -0.014000
      7 C5         30.5510   66.1970    5.8510 c2        1 SSE     -0.795000
      8 C6         29.2110   65.6770    5.9100 c3        1 SSE      0.156000
      9 O6         28.4270   66.3590    6.9250 oh        1 SSE     -0.406000
     10 C7         29.8690   65.7230   11.1650 c3        1 SSE     -0.287000
     11 C8         28.5350   66.3470   10.7880 c3        1 SSE      0.032000
     12 O8         27.8590   65.6220    9.7720 oh        1 SSE     -0.357000
     13 C9         27.5760   66.3930   12.0060 c3        1 SSE      0.083000
     14 C10        27.2450   64.9730   12.4910 c3        1 SSE     -0.036000
     15 O10        26.0140   64.9020   13.1800 oh        1 SSE     -0.377000
     16 O9         28.1910   67.1190   13.0250 os        1 SSE     -0.757000
     17 S9         27.3560   68.2750   13.9940 s6        1 SSE      2.880000
     18 O11        26.4200   67.4580   14.6420 o         1 SSE     -1.080333
     19 O12        26.8130   69.1580   13.0650 o         1 SSE     -1.080333
     20 O13        28.3790   68.7710   14.7980 o         1 SSE     -1.080333
     21 H1         31.2770   64.8060    7.3300 h1        1 SSE      0.073000
     22 HO1        32.7740   65.7260    5.1950 ho        1 SSE      0.185000
     23 H2         32.0470   67.8110    7.2290 h1        1 SSE      0.088000
     24 HO2        33.6140   65.7130    8.0740 ho        1 SSE      0.200000
     25 H31        30.0790   67.1150    8.5000 h1        1 SSE      0.111500
     26 H32        31.4010   67.7240    9.6090 h1        1 SSE      0.111500
     27 H5         30.7340   67.1120    5.2900 ha        1 SSE      0.074000
     28 H61        29.1790   64.5770    6.1640 h1        1 SSE     -0.011500
     29 H62        28.6570   65.8210    4.9350 h1        1 SSE     -0.011500
     30 HO6        27.5530   65.9590    6.9360 ho        1 SSE      0.138000
     31 H71        30.3380   66.3820   11.9370 h1        1 SSE      0.113500
     32 H72        29.6990   64.7150   11.6190 h1        1 SSE      0.113500
     33 H8         28.7110   67.4050   10.4390 h1        1 SSE      0.086000
     34 HO8        28.4370   65.6430    8.9900 ho        1 SSE      0.237000
     35 H9         26.6230   66.9030   11.6820 h1        1 SSE      0.088000
     36 H101       28.0680   64.6000   13.1590 h1        1 SSE      0.078000
     37 H102       27.1250   64.2910   11.6070 h1        1 SSE      0.078000
     38 H10        26.0060   65.6160   13.8380 ho        1 SSE      0.241000
@<TRIPOS>BOND
     1    1    2 1   
     2    1    3 1   
     3    1    7 1   
     4    1   21 1   
     5    2   22 1   
     6    3    4 1   
     7    3    5 1   
     8    3   23 1   
     9    4   24 1   
    10    5    6 1   
    11    5   25 1   
    12    5   26 1   
    13    6   10 1   
    14    7    8 1   
    15    7   27 1   
    16    8    9 1   
    17    8   28 1   
    18    8   29 1   
    19    9   30 1   
    20   10   11 1   
    21   10   31 1   
    22   10   32 1   
    23   11   12 1   
    24   11   13 1   
    25   11   33 1   
    26   12   34 1   
    27   13   14 1   
    28   13   16 1   
    29   13   35 1   
    30   14   15 1   
    31   14   36 1   
    32   14   37 1   
    33   15   38 1   
    34   16   17 1   
    35   17   18 1   
    36   17   19 1   
    37   17   20 1   
@<TRIPOS>SUBSTRUCTURE
     1 SSE         1 TEMP              0 ****  ****    0 ROOT
