@<TRIPOS>MOLECULE
SSF
   39    41     1     0     0
SMALL
bcc


@<TRIPOS>ATOM
      1 C1          3.6900   -3.1460   -0.4780 cc        1 SSF     -0.189000
      2 C2          2.4800   -2.5820   -0.1440 cd        1 SSF     -0.053300
      3 C3          3.5360   -0.4000   -0.0420 cd        1 SSF     -0.064300
      4 C4          4.7860   -0.9880   -0.3850 cd        1 SSF     -0.105000
      5 C5          4.8580   -2.3380   -0.6030 cc        1 SSF     -0.135000
      6 C10         3.1230    0.9230    0.2590 cc        1 SSF     -0.020900
      7 C11         1.2730   -0.4280    0.3850 cd        1 SSF     -0.207300
      8 C12         1.7190    0.9090    0.5320 cc        1 SSF     -0.050200
      9 C13         0.9230    2.0660    0.9470 c3        1 SSF     -0.045900
     10 C17        -0.0800   -1.0060    0.5710 c         1 SSF      0.630900
     11 C18        -1.2060   -0.2820   -0.0170 ca        1 SSF     -0.255600
     12 C19        -1.0460    0.4930   -1.1730 ca        1 SSF     -0.065000
     13 C20        -2.4890   -0.4050    0.5450 ca        1 SSF     -0.009000
     14 C21        -2.1270    1.1450   -1.7410 ca        1 SSF     -0.249000
     15 C23        -3.5900    0.2420   -0.0030 ca        1 SSF     -0.204600
     16 C25        -3.4200    1.0590   -1.1550 ca        1 SSF      0.207600
     17 O27        -0.2040   -2.0820    1.1810 o         1 SSF     -0.570100
     18 C28        -4.9500    0.0110    0.6430 c         1 SSF      0.918200
     19 O29        -4.9740   -0.2830    1.8680 o         1 SSF     -0.830800
     20 O30        -5.9900    0.1010   -0.0780 o         1 SSF     -0.830800
     21 N31        -4.4590    1.8290   -1.6650 nh        1 SSF     -0.826200
     22 N34         2.3830   -1.2230    0.0660 na        1 SSF      0.065700
     23 O35         3.9710    1.9960    0.3700 os        1 SSF     -0.309900
     24 C36         3.9970    2.8150   -0.8020 c3        1 SSF      0.112700
     25 H1          3.7570   -4.2290   -0.6420 ha        1 SSF      0.142000
     26 H2          1.5440   -3.1570   -0.0070 h4        1 SSF      0.191000
     27 H4          5.6580   -0.3240   -0.4560 ha        1 SSF      0.146000
     28 H5          5.8080   -2.8210   -0.8690 ha        1 SSF      0.128000
     29 H13        -0.0880    2.0550    0.4650 hc        1 SSF      0.055700
     30 H13A        0.7780    2.0510    2.0580 hc        1 SSF      0.055700
     31 H13B        1.4490    3.0150    0.6750 hc        1 SSF      0.055700
     32 H19        -0.0510    0.5800   -1.6360 ha        1 SSF      0.116000
     33 H20        -2.6400   -1.0270    1.4460 ha        1 SSF      0.168000
     34 H21        -1.9770    1.7400   -2.6530 ha        1 SSF      0.112000
     35 HN31       -4.4260    1.9620   -2.6490 hn        1 SSF      0.408800
     36 HN3A       -5.3680    1.5760   -1.3130 hn        1 SSF      0.408800
     37 H36         4.3950    2.2380   -1.6710 h1        1 SSF      0.033367
     38 H36A        2.9760    3.2030   -1.0330 h1        1 SSF      0.033367
     39 H36B        4.6880    3.6500   -0.5290 h1        1 SSF      0.033367
@<TRIPOS>BOND
     1    1    2 2   
     2    1    5 1   
     3    1   25 1   
     4    2   22 1   
     5    2   26 1   
     6    3    4 1   
     7    3    6 2   
     8    3   22 1   
     9    4    5 2   
    10    4   27 1   
    11    5   28 1   
    12    6    8 1   
    13    6   23 1   
    14    7    8 2   
    15    7   10 1   
    16    7   22 1   
    17    8    9 1   
    18    9   29 1   
    19    9   30 1   
    20    9   31 1   
    21   10   11 1   
    22   10   17 2   
    23   11   12 ar  
    24   11   13 ar  
    25   12   14 ar  
    26   12   32 1   
    27   13   15 ar  
    28   13   33 1   
    29   14   16 ar  
    30   14   34 1   
    31   15   16 ar  
    32   15   18 1   
    33   16   21 1   
    34   18   19 1   
    35   18   20 1   
    36   21   35 1   
    37   21   36 1   
    38   23   24 1   
    39   24   37 1   
    40   24   38 1   
    41   24   39 1   
@<TRIPOS>SUBSTRUCTURE
     1 SSF         1 TEMP              0 ****  ****    0 ROOT
