@<TRIPOS>MOLECULE
SSF
   39    41     1     0     0
SMALL
bcc


@<TRIPOS>ATOM
      1 C1         -0.3510    0.6850    0.1720 cc        1 SSF     -0.189000
      2 C2          0.9820    0.3900   -0.0040 cd        1 SSF     -0.053300
      3 C3          1.2350    0.1440    2.3970 cd        1 SSF     -0.065300
      4 C4         -0.1440    0.4520    2.5740 cd        1 SSF     -0.105000
      5 C5         -0.9210    0.7140    1.4780 cc        1 SSF     -0.135000
      6 C10         2.2970   -0.1510    3.2880 cc        1 SSF     -0.019900
      7 C11         3.1350   -0.2360    1.1540 cd        1 SSF     -0.204300
      8 C12         3.4820   -0.3810    2.5200 cc        1 SSF     -0.054200
      9 C13         4.8120   -0.6530    3.0700 c3        1 SSF     -0.043900
     10 C17         3.9810   -0.3440   -0.0610 c         1 SSF      0.628900
     11 C18         4.8740   -1.4960   -0.1600 ca        1 SSF     -0.258600
     12 C19         4.5880   -2.6980    0.5010 ca        1 SSF     -0.062000
     13 C20         6.0240   -1.4250   -0.9670 ca        1 SSF     -0.008000
     14 C21         5.4120   -3.8000    0.3540 ca        1 SSF     -0.252000
     15 C23         6.8870   -2.5050   -1.1040 ca        1 SSF     -0.207600
     16 C25         6.5720   -3.7380   -0.4680 ca        1 SSF      0.211600
     17 O27         3.8770    0.5190   -0.9490 o         1 SSF     -0.568100
     18 C28         8.1650   -2.3010   -1.9090 c         1 SSF      0.917200
     19 O29         8.1710   -1.3910   -2.7810 o         1 SSF     -0.830800
     20 O30         9.1710   -3.0280   -1.6490 o         1 SSF     -0.830800
     21 N31         7.3150   -4.8880   -0.6950 nh        1 SSF     -0.827200
     22 N34         1.7790    0.1110    1.0850 na        1 SSF      0.065700
     23 O35         2.2020   -0.1080    4.6570 os        1 SSF     -0.309900
     24 C36         2.0030   -1.3960    5.2460 c3        1 SSF      0.112700
     25 H1         -0.9770    0.9070   -0.7010 ha        1 SSF      0.142000
     26 H2          1.4900    0.3760   -0.9870 h4        1 SSF      0.191000
     27 H4         -0.5320    0.4730    3.6010 ha        1 SSF      0.145000
     28 H5         -1.9880    0.9540    1.5830 ha        1 SSF      0.128000
     29 H13         4.7250   -1.1000    4.0920 hc        1 SSF      0.054033
     30 H13A        5.3910    0.3020    3.1550 hc        1 SSF      0.054033
     31 H13B        5.3870   -1.3530    2.4110 hc        1 SSF      0.054033
     32 H19         3.6940   -2.7680    1.1400 ha        1 SSF      0.116000
     33 H20         6.2620   -0.4910   -1.5080 ha        1 SSF      0.170000
     34 H21         5.1570   -4.7360    0.8720 ha        1 SSF      0.112000
     35 HN31        7.3460   -5.5190    0.0720 hn        1 SSF      0.410300
     36 HN3A        8.2080   -4.7230   -1.1310 hn        1 SSF      0.410300
     37 H36         2.8440   -2.0830    4.9820 h1        1 SSF      0.033367
     38 H36A        1.0310   -1.8310    4.9110 h1        1 SSF      0.033367
     39 H36B        1.9890   -1.1880    6.3440 h1        1 SSF      0.033367
@<TRIPOS>BOND
     1    1    2 2   
     2    1    5 1   
     3    1   25 1   
     4    2   22 1   
     5    2   26 1   
     6    3    4 1   
     7    3    6 2   
     8    3   22 1   
     9    4    5 2   
    10    4   27 1   
    11    5   28 1   
    12    6    8 1   
    13    6   23 1   
    14    7    8 2   
    15    7   10 1   
    16    7   22 1   
    17    8    9 1   
    18    9   29 1   
    19    9   30 1   
    20    9   31 1   
    21   10   11 1   
    22   10   17 2   
    23   11   12 ar  
    24   11   13 ar  
    25   12   14 ar  
    26   12   32 1   
    27   13   15 ar  
    28   13   33 1   
    29   14   16 ar  
    30   14   34 1   
    31   15   16 ar  
    32   15   18 1   
    33   16   21 1   
    34   18   19 1   
    35   18   20 1   
    36   21   35 1   
    37   21   36 1   
    38   23   24 1   
    39   24   37 1   
    40   24   38 1   
    41   24   39 1   
@<TRIPOS>SUBSTRUCTURE
     1 SSF         1 TEMP              0 ****  ****    0 ROOT
