@<TRIPOS>MOLECULE
SSF
   40    42     1     0     0
SMALL
bcc


@<TRIPOS>ATOM
      1 C1         -0.4560    0.9870    0.2690 cc        1 SSF     -0.168000
      2 C2          0.7960    0.4730    0.0060 cd        1 SSF     -0.069300
      3 C3          1.1960    0.2670    2.3850 cd        1 SSF     -0.037300
      4 C4         -0.0940    0.8010    2.6550 cd        1 SSF     -0.104000
      5 C5         -0.9070    1.1530    1.6080 cc        1 SSF     -0.119000
      6 C10         2.2640   -0.1700    3.2190 cc        1 SSF     -0.014900
      7 C11         2.9150   -0.4540    1.0350 cd        1 SSF     -0.252300
      8 C12         3.3310   -0.6100    2.3890 cc        1 SSF     -0.042200
      9 C13         4.6270   -1.0900    2.8770 c3        1 SSF     -0.044900
     10 C17         3.6460   -0.7160   -0.2030 c         1 SSF      0.626900
     11 C18         4.7050   -1.7470   -0.1710 ca        1 SSF     -0.210600
     12 C19         4.5000   -2.9780    0.4680 ca        1 SSF     -0.024000
     13 C20         5.9030   -1.5220   -0.8520 ca        1 SSF      0.012000
     14 C21         5.4710   -3.9650    0.4370 ca        1 SSF     -0.222000
     15 C23         6.8930   -2.5050   -0.8970 ca        1 SSF     -0.264600
     16 C25         6.6980   -3.7530   -0.2470 ca        1 SSF      0.216600
     17 O27         3.3860   -0.1160   -1.2600 o         1 SSF     -0.561100
     18 C28         8.1490   -2.2080   -1.6080 c         1 SSF      0.642700
     19 O29         8.9060   -1.2550   -1.4240 o         1 SSF     -0.479000
     20 O30         8.5830   -3.0650   -2.5840 oh        1 SSF     -0.590100
     21 N31         7.6420   -4.7630   -0.3290 nh        1 SSF     -0.847200
     22 N34         1.6250    0.1070    1.0460 na        1 SSF      0.083700
     23 O35         2.2680   -0.0390    4.5840 os        1 SSF     -0.303900
     24 C36         2.1480   -1.2860    5.2740 c3        1 SSF      0.111700
     25 H1         -1.1070    1.2780   -0.5670 ha        1 SSF      0.154000
     26 H2          1.2050    0.3440   -1.0140 h4        1 SSF      0.197000
     27 H4         -0.3870    0.9190    3.7080 ha        1 SSF      0.160000
     28 H5         -1.9090    1.5690    1.7840 ha        1 SSF      0.143000
     29 H13         4.8400   -0.6520    3.8850 hc        1 SSF      0.053033
     30 H13A        5.4510   -0.8050    2.1760 hc        1 SSF      0.053033
     31 H13B        4.6200   -2.2070    2.9730 hc        1 SSF      0.053033
     32 H19         3.5520   -3.1590    1.0010 ha        1 SSF      0.149000
     33 H20         6.0690   -0.5580   -1.3630 ha        1 SSF      0.167000
     34 H21         5.2870   -4.9240    0.9440 ha        1 SSF      0.142000
     35 HN31        7.8890   -3.7050   -2.7980 ho        1 SSF      0.437000
     36 HN3A        8.5720   -4.4930   -0.5580 hn        1 SSF      0.419300
     37 H36         1.1690   -1.7690    5.0400 h1        1 SSF      0.038367
     38 H36A        2.9910   -1.9650    4.9970 h1        1 SSF      0.038367
     39 H36B        2.2040   -0.9980    6.3520 h1        1 SSF      0.038367
     40 H313        7.5610   -5.5000    0.3320 hn        1 SSF      0.419300
@<TRIPOS>BOND
     1    1    2 2   
     2    1    5 1   
     3    1   25 1   
     4    2   22 1   
     5    2   26 1   
     6    3    4 1   
     7    3    6 2   
     8    3   22 1   
     9    4    5 2   
    10    4   27 1   
    11    5   28 1   
    12    6    8 1   
    13    6   23 1   
    14    7    8 2   
    15    7   10 1   
    16    7   22 1   
    17    8    9 1   
    18    9   29 1   
    19    9   30 1   
    20    9   31 1   
    21   10   11 1   
    22   10   17 2   
    23   11   12 ar  
    24   11   13 ar  
    25   12   14 ar  
    26   12   32 1   
    27   13   15 ar  
    28   13   33 1   
    29   14   16 ar  
    30   14   34 1   
    31   15   16 ar  
    32   15   18 1   
    33   16   21 1   
    34   18   19 2   
    35   18   20 1   
    36   20   35 1   
    37   21   36 1   
    38   21   40 1   
    39   23   24 1   
    40   24   37 1   
    41   24   38 1   
    42   24   39 1   
@<TRIPOS>SUBSTRUCTURE
     1 SSF         1 TEMP              0 ****  ****    0 ROOT
