@<TRIPOS>MOLECULE
SSF
   39    41     1     0     0
SMALL
bcc


@<TRIPOS>ATOM
      1 C1         -0.3640    0.6760    0.1950 cc        1 SSF     -0.189000
      2 C2          0.9680    0.3820    0.0090 cd        1 SSF     -0.053300
      3 C3          1.2440    0.1560    2.4100 cd        1 SSF     -0.065300
      4 C4         -0.1340    0.4630    2.5970 cd        1 SSF     -0.105000
      5 C5         -0.9220    0.7140    1.5060 cc        1 SSF     -0.135000
      6 C10         2.3150   -0.1300    3.2920 cc        1 SSF     -0.019900
      7 C11         3.1340   -0.2310    1.1510 cd        1 SSF     -0.204300
      8 C12         3.4930   -0.3640    2.5160 cc        1 SSF     -0.054200
      9 C13         4.8290   -0.6290    3.0550 c3        1 SSF     -0.043900
     10 C17         3.9670   -0.3460   -0.0710 c         1 SSF      0.628900
     11 C18         4.8620   -1.4980   -0.1690 ca        1 SSF     -0.258600
     12 C19         4.5850   -2.6950    0.5050 ca        1 SSF     -0.062000
     13 C20         6.0040   -1.4310   -0.9870 ca        1 SSF     -0.008000
     14 C21         5.4100   -3.7960    0.3580 ca        1 SSF     -0.252000
     15 C23         6.8680   -2.5100   -1.1240 ca        1 SSF     -0.207600
     16 C25         6.5610   -3.7380   -0.4750 ca        1 SSF      0.211600
     17 O27         3.8540    0.5090   -0.9650 o         1 SSF     -0.568100
     18 C28         8.1370   -2.3100   -1.9430 c         1 SSF      0.917200
     19 O29         8.1330   -1.4080   -2.8220 o         1 SSF     -0.830800
     20 O30         9.1470   -3.0340   -1.6870 o         1 SSF     -0.830800
     21 N31         7.3050   -4.8890   -0.7000 nv        1 SSF     -0.827200
     22 N34         1.7760    0.1130    1.0930 na        1 SSF      0.065700
     23 O35         2.2330   -0.0760    4.6620 os        1 SSF     -0.309900
     24 C36         2.0410   -1.3590    5.2630 c3        1 SSF      0.112700
     25 H1         -0.9990    0.8900   -0.6740 ha        1 SSF      0.142000
     26 H2          1.4670    0.3620   -0.9790 h4        1 SSF      0.191000
     27 H4         -0.5120    0.4910    3.6280 ha        1 SSF      0.145000
     28 H5         -1.9880    0.9530    1.6190 ha        1 SSF      0.128000
     29 H13         5.4010   -1.3280    2.3930 hc        1 SSF      0.054033
     30 H13A        5.4050    0.3290    3.1320 hc        1 SSF      0.054033
     31 H13B        4.7520   -1.0730    4.0790 hc        1 SSF      0.054033
     32 H19         3.6970   -2.7610    1.1530 ha        1 SSF      0.116000
     33 H20         6.2340   -0.5000   -1.5380 ha        1 SSF      0.170000
     34 H21         5.1620   -4.7280    0.8860 ha        1 SSF      0.112000
     35 HN31        8.1930   -4.7260   -1.1460 hn        1 SSF      0.410300
     36 HN3A        7.3440   -5.5130    0.0720 hn        1 SSF      0.410300
     37 H36         2.0370   -1.1420    6.3590 h1        1 SSF      0.033367
     38 H36A        1.0670   -1.7980    4.9410 h1        1 SSF      0.033367
     39 H36B        2.8800   -2.0470    4.9970 h1        1 SSF      0.033367
@<TRIPOS>BOND
     1    1    2 2   
     2    1    5 1   
     3    1   25 1   
     4    2   22 1   
     5    2   26 1   
     6    3    4 1   
     7    3    6 2   
     8    3   22 1   
     9    4    5 2   
    10    4   27 1   
    11    5   28 1   
    12    6    8 1   
    13    6   23 1   
    14    7    8 2   
    15    7   10 1   
    16    7   22 1   
    17    8    9 1   
    18    9   29 1   
    19    9   30 1   
    20    9   31 1   
    21   10   11 1   
    22   10   17 2   
    23   11   12 ar  
    24   11   13 ar  
    25   12   14 ar  
    26   12   32 1   
    27   13   15 ar  
    28   13   33 1   
    29   14   16 ar  
    30   14   34 1   
    31   15   16 ar  
    32   15   18 1   
    33   16   21 1   
    34   18   19 1   
    35   18   20 1   
    36   21   35 1   
    37   21   36 1   
    38   23   24 1   
    39   24   37 1   
    40   24   38 1   
    41   24   39 1   
@<TRIPOS>SUBSTRUCTURE
     1 SSF         1 TEMP              0 ****  ****    0 ROOT
