@<TRIPOS>MOLECULE
SSG
   24    24     1     0     0
SMALL
bcc


@<TRIPOS>ATOM
      1 C1         -0.7480   -0.6620   -1.4170 c3        1 SSG      0.195200
      2 S1         -1.3110   -0.4470   -3.0500 sh        1 SSG     -0.349900
      3 C2          0.7660   -0.6620   -1.4170 c3        1 SSG      0.126100
      4 O2          1.2320   -1.8360   -2.1120 oh        1 SSG     -0.578800
      5 C3          1.3290   -0.6620   -0.0450 c3        1 SSG      0.153100
      6 O3          2.7670   -0.4790   -0.1290 oh        1 SSG     -0.581800
      7 C4          0.7530    0.4240    0.8020 c3        1 SSG     -0.053600
      8 C5         -0.7670    0.4200    0.7900 c3        1 SSG      0.098100
      9 O5         -1.3170    0.4160   -0.5650 os        1 SSG     -0.413600
     10 C6         -1.2590    1.6370    1.5070 c3        1 SSG      0.133400
     11 O6         -2.6700    1.6520    1.4940 oh        1 SSG     -0.590800
     12 S4          1.3230    0.2030    2.5000 sh        1 SSG     -0.354900
     13 H1         -1.0620   -1.5240   -1.0860 h2        1 SSG      0.092700
     14 H1S        -2.4530   -0.7280   -3.1110 hs        1 SSG      0.224800
     15 H2          1.0820    0.1320   -1.8890 h1        1 SSG      0.070700
     16 H2O         1.6410   -1.5930   -2.8610 ho        1 SSG      0.418000
     17 H3          1.1430   -1.5240    0.3740 h1        1 SSG      0.057700
     18 H3O         3.1750   -1.1720    0.2460 ho        1 SSG      0.418000
     19 H4          1.0700    1.2860    0.4710 h1        1 SSG      0.117700
     20 H5         -1.0840   -0.3730    1.2620 h1        1 SSG      0.061700
     21 H62        -0.9210    2.4360    1.0610 h1        1 SSG      0.068200
     22 H61        -0.9430    1.6200    2.4310 h1        1 SSG      0.068200
     23 H6         -2.9620    2.3630    1.9370 ho        1 SSG      0.413000
     24 H4S         1.2180   -0.9290    2.8050 hs        1 SSG      0.207800
@<TRIPOS>BOND
     1    1    2 1   
     2    1    3 1   
     3    1    9 1   
     4    1   13 1   
     5    2   14 1   
     6    3    4 1   
     7    3    5 1   
     8    3   15 1   
     9    4   16 1   
    10    5    6 1   
    11    5    7 1   
    12    5   17 1   
    13    6   18 1   
    14    7    8 1   
    15    7   12 1   
    16    7   19 1   
    17    8    9 1   
    18    8   10 1   
    19    8   20 1   
    20   10   11 1   
    21   10   21 1   
    22   10   22 1   
    23   11   23 1   
    24   12   24 1   
@<TRIPOS>SUBSTRUCTURE
     1 SSG         1 TEMP              0 ****  ****    0 ROOT
