@<TRIPOS>MOLECULE
SSG
   24    24     1     0     0
SMALL
bcc


@<TRIPOS>ATOM
      1 C1          0.4500    0.5200   -1.3600 c3        1 SSG      0.202200
      2 S1          1.2050    0.1690   -2.9330 sh        1 SSG     -0.353900
      3 C2         -0.9460   -0.0970   -1.2200 c3        1 SSG      0.080100
      4 O2         -1.8750    0.5090   -2.0990 oh        1 SSG     -0.600800
      5 C3         -1.4890    0.1530    0.2020 c3        1 SSG      0.147100
      6 O3         -2.6900   -0.5780    0.3950 oh        1 SSG     -0.605800
      7 C4         -0.4820   -0.3390    1.2370 c3        1 SSG     -0.003600
      8 C5          0.8880    0.2730    0.9730 c3        1 SSG      0.104100
      9 O5          1.3190   -0.0030   -0.3680 os        1 SSG     -0.417600
     10 C6          1.9690   -0.3460    1.8690 c3        1 SSG      0.137400
     11 O6          3.1920    0.3410    1.7330 oh        1 SSG     -0.589800
     12 S4         -0.9470    0.1230    2.8920 sh        1 SSG     -0.369900
     13 H1          0.3860    1.6390   -1.2890 h2        1 SSG      0.093700
     14 H1S         1.6520   -1.0540   -2.6940 hs        1 SSG      0.227800
     15 H2         -0.8990   -1.2050   -1.4160 h1        1 SSG      0.064700
     16 H2O        -1.5110    0.4250   -2.9930 ho        1 SSG      0.427000
     17 H3         -1.6910    1.2540    0.3350 h1        1 SSG      0.070700
     18 H3O        -3.2870   -0.3190   -0.3200 ho        1 SSG      0.431000
     19 H4         -0.4180   -1.4560    1.1720 h1        1 SSG      0.095700
     20 H5          0.8550    1.3900    1.1190 h1        1 SSG      0.078700
     21 H62         2.0950   -1.4330    1.6180 h1        1 SSG      0.067700
     22 H61         1.6750   -0.2250    2.9470 h1        1 SSG      0.067700
     23 H6          3.4570    0.2720    0.8070 ho        1 SSG      0.411000
     24 H4S        -2.2020   -0.3100    2.8730 hs        1 SSG      0.234800
@<TRIPOS>BOND
     1    1    2 1   
     2    1    3 1   
     3    1    9 1   
     4    1   13 1   
     5    2   14 1   
     6    3    4 1   
     7    3    5 1   
     8    3   15 1   
     9    4   16 1   
    10    5    6 1   
    11    5    7 1   
    12    5   17 1   
    13    6   18 1   
    14    7    8 1   
    15    7   12 1   
    16    7   19 1   
    17    8    9 1   
    18    8   10 1   
    19    8   20 1   
    20   10   11 1   
    21   10   21 1   
    22   10   22 1   
    23   11   23 1   
    24   12   24 1   
@<TRIPOS>SUBSTRUCTURE
     1 SSG         1 TEMP              0 ****  ****    0 ROOT
