@<TRIPOS>MOLECULE
SSH
   23    22     1     0     0
SMALL
bcc


@<TRIPOS>ATOM
      1 O2          0.0980    0.0780   -0.1430 o         1 SSH     -0.830800
      2 C1          1.3330   -0.1100    0.0120 c         1 SSH      0.898600
      3 O1          2.1730   -0.2780   -0.9190 o         1 SSH     -0.830800
      4 C2          1.8960   -0.1590    1.4580 c3        1 SSH      0.005100
      5 C3          1.7920    1.2150    2.1090 c3        1 SSH     -0.110400
      6 C4          2.6820    1.3580    3.3370 c3        1 SSH      0.156100
      7 O4          2.5030    0.2920    4.2660 oh        1 SSH     -0.639800
      8 C5          2.3590    2.6580    4.0980 c3        1 SSH      0.145100
      9 O5          3.0000    3.7120    3.3920 oh        1 SSH     -0.598800
     10 C6          2.8800    2.5940    5.5370 c3        1 SSH      0.094400
     11 O6          2.5860    3.8520    6.1360 oh        1 SSH     -0.625800
     12 OT          3.2400   -0.6140    1.4840 oh        1 SSH     -0.661800
     13 H2C1        1.3080   -0.9100    2.0560 h1        1 SSH      0.034700
     14 H3C1        0.7180    1.3840    2.3770 hc        1 SSH      0.058200
     15 H3C2        2.0940    2.0050    1.3740 hc        1 SSH      0.058200
     16 H4          3.7620    1.3750    3.0140 h1        1 SSH      0.054700
     17 HA          2.6360   -0.5220    3.7620 ho        1 SSH      0.430000
     18 H5          1.2480    2.8370    4.1140 h1        1 SSH      0.048700
     19 HB          2.8150    4.5170    3.8900 ho        1 SSH      0.404000
     20 H6C1        2.3650    1.7680    6.0930 h1        1 SSH      0.042200
     21 H6C2        3.9870    2.4200    5.5400 h1        1 SSH      0.042200
     22 H6          2.9150    3.8070    7.0390 ho        1 SSH      0.393000
     23 HT          3.5690   -0.5760    0.5700 ho        1 SSH      0.433000
@<TRIPOS>BOND
     1    1    2 1   
     2    2    3 1   
     3    2    4 1   
     4    4    5 1   
     5    4   12 1   
     6    4   13 1   
     7    5    6 1   
     8    5   14 1   
     9    5   15 1   
    10    6    7 1   
    11    6    8 1   
    12    6   16 1   
    13    7   17 1   
    14    8    9 1   
    15    8   10 1   
    16    8   18 1   
    17    9   19 1   
    18   10   11 1   
    19   10   20 1   
    20   10   21 1   
    21   11   22 1   
    22   12   23 1   
@<TRIPOS>SUBSTRUCTURE
     1 SSH         1 TEMP              0 ****  ****    0 ROOT
