@<TRIPOS>MOLECULE
SSH
   23    22     1     0     0
SMALL
bcc


@<TRIPOS>ATOM
      1 O2          0.1020    0.0520   -0.1340 o         1 SSH     -0.830800
      2 C1          1.3360   -0.1360    0.0240 c         1 SSH      0.898600
      3 O1          2.1770   -0.3120   -0.9040 o         1 SSH     -0.830800
      4 C2          1.8970   -0.1730    1.4710 c3        1 SSH      0.005100
      5 C3          1.7930    1.2070    2.1100 c3        1 SSH     -0.110400
      6 C4          2.6810    1.3600    3.3380 c3        1 SSH      0.156100
      7 O4          2.5000    0.3030    4.2770 oh        1 SSH     -0.639800
      8 C5          2.3580    2.6670    4.0880 c3        1 SSH      0.145100
      9 O5          2.9990    3.7140    3.3720 oh        1 SSH     -0.598800
     10 C6          2.8790    2.6160    5.5270 c3        1 SSH      0.094400
     11 O6          2.5850    3.8780    6.1140 oh        1 SSH     -0.625800
     12 OT          3.2400   -0.6280    1.5030 oh        1 SSH     -0.661800
     13 H2C1        1.3070   -0.9180    2.0750 h1        1 SSH      0.034700
     14 H3C1        2.0970    1.9910    1.3690 hc        1 SSH      0.058200
     15 H3C2        0.7190    1.3790    2.3750 hc        1 SSH      0.058200
     16 H4          3.7610    1.3730    3.0160 h1        1 SSH      0.054700
     17 HA          2.6330   -0.5160    3.7800 ho        1 SSH      0.430000
     18 H5          1.2480    2.8450    4.1020 h1        1 SSH      0.048700
     19 HB          2.8140    4.5240    3.8630 ho        1 SSH      0.404000
     20 H6C1        2.3650    1.7940    6.0910 h1        1 SSH      0.042200
     21 H6C2        3.9870    2.4420    5.5310 h1        1 SSH      0.042200
     22 H6          2.9140    3.8410    7.0180 ho        1 SSH      0.393000
     23 HT          3.5710   -0.5990    0.5890 ho        1 SSH      0.433000
@<TRIPOS>BOND
     1    1    2 1   
     2    2    3 1   
     3    2    4 1   
     4    4    5 1   
     5    4   12 1   
     6    4   13 1   
     7    5    6 1   
     8    5   14 1   
     9    5   15 1   
    10    6    7 1   
    11    6    8 1   
    12    6   16 1   
    13    7   17 1   
    14    8    9 1   
    15    8   10 1   
    16    8   18 1   
    17    9   19 1   
    18   10   11 1   
    19   10   20 1   
    20   10   21 1   
    21   11   22 1   
    22   12   23 1   
@<TRIPOS>SUBSTRUCTURE
     1 SSH         1 TEMP              0 ****  ****    0 ROOT
