@<TRIPOS>MOLECULE
SSH
   23    22     1     0     0
SMALL
bcc


@<TRIPOS>ATOM
      1 O2         -2.1380    1.9510   -0.1490 o         1 SSH     -0.829800
      2 C1         -2.5520    0.7670    0.0110 c         1 SSH      0.893600
      3 O1         -3.7070    0.3570   -0.2900 o         1 SSH     -0.829800
      4 C2         -1.5780   -0.2690    0.6270 c3        1 SSH      0.010100
      5 C3         -0.3360   -0.4440   -0.2450 c3        1 SSH     -0.121400
      6 C4          0.8600    0.3220    0.3050 c3        1 SSH      0.141100
      7 O4          0.7740    1.7200    0.1070 oh        1 SSH     -0.646800
      8 C5          2.1620   -0.1410   -0.3760 c3        1 SSH      0.088100
      9 O5          2.4040   -1.5290   -0.1890 oh        1 SSH     -0.617800
     10 C6          3.3570    0.6470    0.1660 c3        1 SSH      0.108400
     11 O6          4.5750    0.2170   -0.4120 oh        1 SSH     -0.617800
     12 OT         -2.1940   -1.5340    0.8000 oh        1 SSH     -0.642800
     13 H2C1       -1.2860    0.0780    1.6570 h1        1 SSH      0.036700
     14 H3C1       -0.5550   -0.0820   -1.2830 hc        1 SSH      0.056700
     15 H3C2       -0.0750   -1.5330   -0.3050 hc        1 SSH      0.056700
     16 H4          0.9550    0.1340    1.4160 h1        1 SSH      0.019700
     17 HA         -0.1720    1.9540    0.0240 ho        1 SSH      0.474000
     18 H5          2.0870   -0.0120   -1.4910 h1        1 SSH      0.086700
     19 HB          2.1150   -1.7570    0.7020 ho        1 SSH      0.401000
     20 H6C1        3.4190    0.5320    1.2810 h1        1 SSH      0.051200
     21 H6C2        3.2540    1.7320   -0.0980 h1        1 SSH      0.051200
     22 H6          4.5370   -0.7470   -0.4660 ho        1 SSH      0.405000
     23 HT         -3.0540   -1.4960    0.3500 ho        1 SSH      0.427000
@<TRIPOS>BOND
     1    1    2 1   
     2    2    3 1   
     3    2    4 1   
     4    4    5 1   
     5    4   12 1   
     6    4   13 1   
     7    5    6 1   
     8    5   14 1   
     9    5   15 1   
    10    6    7 1   
    11    6    8 1   
    12    6   16 1   
    13    7   17 1   
    14    8    9 1   
    15    8   10 1   
    16    8   18 1   
    17    9   19 1   
    18   10   11 1   
    19   10   20 1   
    20   10   21 1   
    21   11   22 1   
    22   12   23 1   
@<TRIPOS>SUBSTRUCTURE
     1 SSH         1 TEMP              0 ****  ****    0 ROOT
