@<TRIPOS>MOLECULE
SSI
   36    37     1     0     0
SMALL
bcc


@<TRIPOS>ATOM
      1 P          -4.6340    0.4500    1.6110 p5        1 SSI      1.345600
      2 N1          5.9080   -0.5270   -1.4810 n         1 SSI     -0.506400
      3 C2          5.0300    0.1250   -2.3480 cc        1 SSI      0.401800
      4 N3          3.7430    0.3260   -2.1680 nd        1 SSI     -0.581300
      5 C4          3.2080   -0.1650   -0.9840 cd        1 SSI      0.127600
      6 C5          4.0570   -0.8610   -0.0200 cc        1 SSI     -0.367300
      7 C6          5.4480   -1.0600   -0.2490 c         1 SSI      0.715700
      8 O6          6.2930   -1.6370    0.4870 o         1 SSI     -0.763500
      9 N7          3.2280   -1.2280    1.0510 nh        1 SSI     -0.163600
     10 C8          1.9380   -0.8270    0.8450 c1        1 SSI     -0.121900
     11 C9          1.9010   -0.1510   -0.4400 cf        1 SSI     -0.342300
     12 C1'         0.7000    0.4180   -1.0820 c3        1 SSI      0.276000
     13 O1P        -5.0020   -0.8080    2.3120 o         1 SSI     -0.879000
     14 O2P        -5.4660    0.9960    0.5110 o         1 SSI     -0.879000
     15 C3'        -1.5640    2.3510   -1.8070 c3        1 SSI      0.137400
     16 O3'        -1.1410    3.6190   -1.3450 oh        1 SSI     -0.630800
     17 O3P        -4.6960    1.5120    2.8780 oh        1 SSI     -0.800400
     18 C4'        -1.5630    1.2420   -0.7290 c3        1 SSI      0.145500
     19 N4'        -0.2310    1.0570   -0.1660 n3        1 SSI     -0.838200
     20 C5'        -2.6250    1.5920    0.3270 c3        1 SSI     -0.059400
     21 C6'        -2.9830    0.4440    1.2240 c3        1 SSI     -0.342600
     22 H8         -4.9560    1.0650    3.6750 ho        1 SSI      0.414000
     23 H1'         1.0080    1.2020   -1.8350 h1        1 SSI      0.002700
     24 H1'A        0.1900   -0.4080   -1.6730 h1        1 SSI      0.002700
     25 H3'        -2.6120    2.5110   -2.1780 h1        1 SSI      0.025200
     26 H3'A       -0.9080    2.0480   -2.6690 h1        1 SSI      0.025200
     27 HO3'       -0.4370    3.4730   -0.7010 ho        1 SSI      0.421000
     28 H4'        -1.9150    0.3040   -1.2650 h1        1 SSI      0.015700
     29 HN4'       -0.2820    0.5540    0.7020 hn        1 SSI      0.396800
     30 H5'        -2.2520    2.4720    0.9180 hc        1 SSI      0.058700
     31 H5'A       -3.5550    1.9220   -0.2180 hc        1 SSI      0.058700
     32 H6'        -2.3650    0.4780    2.1550 hc        1 SSI      0.068700
     33 H6'A       -2.7330   -0.5280    0.7320 hc        1 SSI      0.068700
     34 HN7         3.5700   -1.7090    1.8370 hn        1 SSI      0.268700
     35 HN1         6.8640   -0.6160   -1.7150 hn        1 SSI      0.295500
     36 H2          5.4860    0.5070   -3.2820 h5        1 SSI      0.001800
@<TRIPOS>BOND
     1    1   13 1   
     2    1   14 1   
     3    1   17 1   
     4    1   21 1   
     5    2    3 1   
     6    2    7 1   
     7    2   35 1   
     8    3    4 2   
     9    3   36 1   
    10    4    5 1   
    11    5    6 2   
    12    5   11 1   
    13    6    7 1   
    14    6    9 1   
    15    7    8 2   
    16    9   10 2   
    17    9   34 1   
    18   10   11 2   
    19   11   12 1   
    20   12   19 1   
    21   12   23 1   
    22   12   24 1   
    23   15   16 1   
    24   15   18 1   
    25   15   25 1   
    26   15   26 1   
    27   16   27 1   
    28   17   22 1   
    29   18   19 1   
    30   18   20 1   
    31   18   28 1   
    32   19   29 1   
    33   20   21 1   
    34   20   30 1   
    35   20   31 1   
    36   21   32 1   
    37   21   33 1   
@<TRIPOS>SUBSTRUCTURE
     1 SSI         1 TEMP              0 ****  ****    0 ROOT
