@<TRIPOS>MOLECULE
SSI
   37    38     1     0     0
SMALL
bcc


@<TRIPOS>ATOM
      1 P           0.4410   -1.6780    0.3000 p5        1 SSI      1.368600
      2 N1          0.3070   -6.5870    1.5060 n         1 SSI     -0.482400
      3 C2         -0.1820   -5.4060    0.9330 cc        1 SSI      0.481800
      4 N3         -0.3080   -5.1700   -0.3580 nd        1 SSI     -0.586100
      5 C4          0.1610   -6.1560   -1.2030 cd        1 SSI      0.147400
      6 C5          0.6750   -7.4020   -0.7100 cc        1 SSI     -0.250900
      7 C6          0.7620   -7.6580    0.7200 c         1 SSI      0.720100
      8 O6          1.1870   -8.7090    1.2490 o         1 SSI     -0.684500
      9 N7          1.0870   -8.1720   -1.7910 na        1 SSI     -0.149100
     10 C8          0.8740   -7.4360   -2.9490 cc        1 SSI     -0.122300
     11 C9          0.3020   -6.1880   -2.6350 cd        1 SSI     -0.163300
     12 C1'        -0.0560   -5.1160   -3.5940 c3        1 SSI      0.258100
     13 O1P         1.5900   -2.5070   -0.5460 oh        1 SSI     -0.799400
     14 O2P         0.2160   -2.6270    1.4320 o         1 SSI     -0.882000
     15 C3'        -1.5040   -2.4550   -4.3390 c3        1 SSI      0.135400
     16 O3'        -0.7000   -1.5700   -5.0950 oh        1 SSI     -0.621800
     17 O3P         0.9010   -0.2880    0.4980 o         1 SSI     -0.882000
     18 C4'        -0.8820   -2.8860   -2.9900 c3        1 SSI      0.150500
     19 N4'         0.2690   -3.7570   -3.2130 n3        1 SSI     -0.843200
     20 C5'        -0.5310   -1.6220   -2.1740 c3        1 SSI     -0.042400
     21 C6'        -0.9120   -1.7180   -0.7250 c3        1 SSI     -0.347600
     22 H1'         0.5010   -5.3130   -4.5600 h1        1 SSI      0.032700
     23 H1'A       -1.1590   -5.2150   -3.8270 h1        1 SSI      0.032700
     24 H3'        -2.4590   -1.8970   -4.1460 h1        1 SSI      0.023700
     25 H3'A       -1.7290   -3.3550   -4.9750 h1        1 SSI      0.023700
     26 HO3'        0.2220   -1.7450   -4.8700 ho        1 SSI      0.419000
     27 H4'        -1.7060   -3.4410   -2.4440 h1        1 SSI      0.037700
     28 HN4'        0.8980   -3.7180   -2.4300 hn        1 SSI      0.415800
     29 H5'         0.5670   -1.3930   -2.2600 hc        1 SSI      0.051700
     30 H5'A       -1.0670   -0.7580   -2.6560 hc        1 SSI      0.051700
     31 H6'        -1.5830   -0.8620   -0.4640 hc        1 SSI      0.069700
     32 H6'A       -1.4990   -2.6460   -0.5190 hc        1 SSI      0.069700
     33 HN7         1.5050   -9.0620   -1.7210 hn        1 SSI      0.303700
     34 HN1         0.4130   -6.6440    2.4930 hn        1 SSI      0.333500
     35 H2         -0.4420   -4.5630    1.6370 h5        1 SSI      0.147800
     36 H4'2        1.8550   -3.2960   -0.0890 ho        1 SSI      0.421000
     37 H8          1.1410   -7.8370   -3.9280 h4        1 SSI      0.161000
@<TRIPOS>BOND
     1    1   13 1   
     2    1   14 1   
     3    1   17 1   
     4    1   21 1   
     5    2    3 1   
     6    2    7 1   
     7    2   34 1   
     8    3    4 2   
     9    3   35 1   
    10    4    5 1   
    11    5    6 2   
    12    5   11 1   
    13    6    7 1   
    14    6    9 1   
    15    7    8 2   
    16    9   10 1   
    17    9   33 1   
    18   10   11 2   
    19   10   37 1   
    20   11   12 1   
    21   12   19 1   
    22   12   22 1   
    23   12   23 1   
    24   13   36 1   
    25   15   16 1   
    26   15   18 1   
    27   15   24 1   
    28   15   25 1   
    29   16   26 1   
    30   18   19 1   
    31   18   20 1   
    32   18   27 1   
    33   19   28 1   
    34   20   21 1   
    35   20   29 1   
    36   20   30 1   
    37   21   31 1   
    38   21   32 1   
@<TRIPOS>SUBSTRUCTURE
     1 SSI         1 TEMP              0 ****  ****    0 ROOT
