@<TRIPOS>MOLECULE
SSI
   37    38     1     0     0
SMALL
bcc


@<TRIPOS>ATOM
      1 P           0.4230   -1.6850    0.3130 p5        1 SSI      1.368600
      2 N1          0.1310   -6.5870    1.5190 n         1 SSI     -0.482400
      3 C2         -0.3090   -5.3970    0.9270 cc        1 SSI      0.481800
      4 N3         -0.3800   -5.1610   -0.3690 nd        1 SSI     -0.586100
      5 C4          0.0990   -6.1590   -1.1940 cd        1 SSI      0.147400
      6 C5          0.5670   -7.4150   -0.6790 cc        1 SSI     -0.250900
      7 C6          0.5920   -7.6700    0.7530 c         1 SSI      0.720100
      8 O6          0.9730   -8.7290    1.2990 o         1 SSI     -0.684500
      9 N7          1.0020   -8.1970   -1.7420 na        1 SSI     -0.149100
     10 C8          0.8520   -7.4580   -2.9090 cc        1 SSI     -0.122300
     11 C9          0.2960   -6.1970   -2.6190 cd        1 SSI     -0.163300
     12 C1'        -0.0010   -5.1190   -3.5930 c3        1 SSI      0.258100
     13 O1P         1.5850   -2.5420   -0.4870 oh        1 SSI     -0.799400
     14 O2P         0.1340   -2.6270    1.4370 o         1 SSI     -0.882000
     15 C3'        -1.3560   -2.4270   -4.3980 c3        1 SSI      0.135400
     16 O3'        -0.5030   -1.5620   -5.1220 oh        1 SSI     -0.621800
     17 O3P         0.9080   -0.3060    0.5270 o         1 SSI     -0.882000
     18 C4'        -0.7980   -2.8690   -3.0240 c3        1 SSI      0.150500
     19 N4'         0.3400   -3.7680   -3.2010 n3        1 SSI     -0.843200
     20 C5'        -0.4500   -1.6120   -2.1960 c3        1 SSI     -0.042400
     21 C6'        -0.8890   -1.6960   -0.7630 c3        1 SSI     -0.347600
     22 H1'         0.5880   -5.3310   -4.5360 h1        1 SSI      0.032700
     23 H1'A       -1.0960   -5.1940   -3.8670 h1        1 SSI      0.032700
     24 H3'        -2.3050   -1.8470   -4.2420 h1        1 SSI      0.023700
     25 H3'A       -1.5770   -3.3220   -5.0410 h1        1 SSI      0.023700
     26 HO3'        0.4050   -1.7580   -4.8610 ho        1 SSI      0.419000
     27 H4'        -1.6550   -3.4040   -2.5100 h1        1 SSI      0.037700
     28 HN4'        1.8140   -3.3360   -0.0190 ho        1 SSI      0.421000
     29 H5'         0.6560   -1.4090   -2.2400 hc        1 SSI      0.051700
     30 H5'A       -0.9460   -0.7370   -2.7000 hc        1 SSI      0.051700
     31 H6'        -1.5040   -2.6110   -0.5800 hc        1 SSI      0.069700
     32 H6'A       -1.5500   -0.8250   -0.5290 hc        1 SSI      0.069700
     33 HN7         1.3980   -9.0950   -1.6560 hn        1 SSI      0.303700
     34 HN1         0.1980   -6.6440    2.5100 hn        1 SSI      0.333500
     35 H2         -0.5770   -4.5470    1.6180 h5        1 SSI      0.147800
     36 H4'2        0.9390   -3.7410   -2.3940 hn        1 SSI      0.415800
     37 H8          1.1470   -7.8670   -3.8760 h4        1 SSI      0.161000
@<TRIPOS>BOND
     1    1   13 1   
     2    1   14 1   
     3    1   17 1   
     4    1   21 1   
     5    2    3 1   
     6    2    7 1   
     7    2   34 1   
     8    3    4 2   
     9    3   35 1   
    10    4    5 1   
    11    5    6 2   
    12    5   11 1   
    13    6    7 1   
    14    6    9 1   
    15    7    8 2   
    16    9   10 1   
    17    9   33 1   
    18   10   11 2   
    19   10   37 1   
    20   11   12 1   
    21   12   19 1   
    22   12   22 1   
    23   12   23 1   
    24   13   28 1   
    25   15   16 1   
    26   15   18 1   
    27   15   24 1   
    28   15   25 1   
    29   16   26 1   
    30   18   19 1   
    31   18   20 1   
    32   18   27 1   
    33   19   36 1   
    34   20   21 1   
    35   20   29 1   
    36   20   30 1   
    37   21   31 1   
    38   21   32 1   
@<TRIPOS>SUBSTRUCTURE
     1 SSI         1 TEMP              0 ****  ****    0 ROOT
