@<TRIPOS>MOLECULE
SSI
   37    37     1     0     0
SMALL
bcc


@<TRIPOS>ATOM
      1 P           3.1220   -1.0210   -1.2470 p4        1 SSI      1.493300
      2 N1          0.3330   -9.4460   -0.4300 ns        1 SSI     -0.493400
      3 C2         -0.8940   -8.8230   -0.1910 cc        1 SSI      0.437800
      4 N3         -1.1560   -7.5360   -0.2660 nd        1 SSI     -0.564100
      5 C4         -0.0890   -6.7250   -0.6200 cd        1 SSI      0.117400
      6 C5          1.2180   -7.2750   -0.8880 cc        1 SSI     -0.254900
      7 C6          1.4720   -8.6990   -0.7970 c         1 SSI      0.728100
      8 O6          2.5540   -9.2850   -1.0060 o         1 SSI     -0.668500
      9 N7          2.0740   -6.2330   -1.2180 na        1 SSI     -0.124100
     10 C8          1.3610   -5.0480   -1.1670 cc        1 SSI     -0.081300
     11 C9          0.0200   -5.3060   -0.8020 cd        1 SSI     -0.184300
     12 C1'        -1.0550   -4.3070   -0.5870 c3        1 SSI      0.253100
     13 O1P         2.0870   -2.0250   -1.6050 o         1 SSI     -0.807500
     14 O2P         4.4190   -1.5140   -0.7640 o         1 SSI     -0.807500
     15 C3'        -0.6630   -3.6480   -3.6180 c3        1 SSI      0.104400
     16 O3'         0.5430   -3.0560   -4.0440 oh        1 SSI     -0.633800
     17 O3P         2.8280    0.4100   -1.3830 o         1 SSI     -0.856300
     18 C4'        -1.4060   -2.8420   -2.5280 c3        1 SSI      0.153500
     19 N4'        -0.9040   -2.9970   -1.1730 n7        1 SSI     -0.842200
     20 C5'        -1.4170   -1.3640   -2.9520 c3        1 SSI     -0.076400
     21 C6'        -2.4260   -0.5550   -2.1830 c3        1 SSI     -0.080100
     22 H1'        -1.1300   -4.1350    0.5310 h1        1 SSI      0.048700
     23 H1'A       -2.0330   -4.7600   -0.9210 h1        1 SSI      0.048700
     24 H3'        -0.4590   -4.6920   -3.2510 h1        1 SSI      0.027700
     25 H3'A       -1.2990   -3.7010   -4.5420 h1        1 SSI      0.027700
     26 HO3'        1.0330   -2.7730   -3.2540 ho        1 SSI      0.454000
     27 H4'        -2.4740   -3.2170   -2.5290 h1        1 SSI      0.035700
     28 HN4'       -3.4510   -0.9840   -2.2970 hc        1 SSI      0.025367
     29 H5'        -0.3890   -0.9300   -2.8180 hc        1 SSI      0.056200
     30 H5'A       -1.6540   -1.3270   -4.0480 hc        1 SSI      0.056200
     31 H6'        -2.1720   -0.5370   -1.0960 hc        1 SSI      0.025367
     32 H6'A       -2.4400    0.4970   -2.5590 hc        1 SSI      0.025367
     33 HN7         3.0320   -6.3350   -1.4380 hn        1 SSI      0.316700
     34 HN1         0.4180  -10.4310   -0.3430 hn        1 SSI      0.324500
     35 H2         -1.7240   -9.5030    0.0910 h5        1 SSI      0.036800
     36 H4'2        0.0420   -2.6550   -1.1030 hn        1 SSI      0.419800
     37 H8          1.8320   -4.0750   -1.3990 h4        1 SSI      0.257000
@<TRIPOS>BOND
     1    1   13 1   
     2    1   14 1   
     3    1   17 2   
     4    2    3 1   
     5    2    7 1   
     6    2   34 1   
     7    3    4 2   
     8    3   35 1   
     9    4    5 1   
    10    5    6 2   
    11    5   11 1   
    12    6    7 1   
    13    6    9 1   
    14    7    8 2   
    15    9   10 1   
    16    9   33 1   
    17   10   11 2   
    18   10   37 1   
    19   11   12 1   
    20   12   19 1   
    21   12   22 1   
    22   12   23 1   
    23   15   16 1   
    24   15   18 1   
    25   15   24 1   
    26   15   25 1   
    27   16   26 1   
    28   18   19 1   
    29   18   20 1   
    30   18   27 1   
    31   19   36 1   
    32   20   21 1   
    33   20   29 1   
    34   20   30 1   
    35   21   28 1   
    36   21   31 1   
    37   21   32 1   
@<TRIPOS>SUBSTRUCTURE
     1 SSI         1 TEMP              0 ****  ****    0 ROOT
