@<TRIPOS>MOLECULE
SSL
   66    68     1     0     0
SMALL
bcc


@<TRIPOS>ATOM
      1 OR          0.0000    0.0000    0.0000 oh        1 SSL     -0.479300
      2 ND          1.4470    0.0000    0.0000 n3        1 SSL     -0.273100
      3 CE          1.9710    0.0000    1.3740 c3        1 SSL      0.114200
      4 CE1         1.5450    1.3420    2.0250 c3        1 SSL     -0.019600
      5 CE2         1.4330   -1.1210    2.2870 c3        1 SSL     -0.019600
      6 CF          3.5220   -0.0100    1.3430 c3        1 SSL     -0.079400
      7 CB          4.1500   -1.0760    0.4220 c3        1 SSL      0.342600
      8 OR2         5.5540   -0.8170    0.2260 os        1 SSL     -0.422600
      9 CG          6.3580   -1.1180    1.3640 c3        1 SSL      0.197900
     10 C2          6.1420   -2.5660    1.8130 c3        1 SSL     -0.183300
     11 N1          6.8320   -2.7890    3.0690 nu        1 SSL     -0.091100
     12 CB1         7.3500   -4.0110    3.4430 cc        1 SSL      0.370900
     13 CB6         6.4980   -5.1300    3.5740 cc        1 SSL     -0.235600
     14 CB5         6.9970   -6.3770    3.9500 cd        1 SSL     -0.116600
     15 CB4         8.3590   -6.5360    4.2050 cd        1 SSL      0.389900
     16 NA1         8.8590   -7.7870    4.5820 ne        1 SSL     -0.416400
     17 NA2         8.8550   -7.9580    5.8200 n1        1 SSL      0.587700
     18 NA3         8.8640   -8.1300    6.9480 n1        1 SSL     -0.544000
     19 CB3         9.2220   -5.4470    4.0830 cd        1 SSL     -0.107600
     20 CB2         8.7240   -4.2010    3.7070 cc        1 SSL     -0.517700
     21 NN1         9.9050   -3.5350    3.3570 no        1 SSL      0.991100
     22 ON1        11.1120   -4.0350    3.5070 o         1 SSL     -0.494000
     23 ON2         9.9540   -2.2860    2.9920 o         1 SSL     -0.494000
     24 CA          4.6410   -2.8000    2.0090 c3        1 SSL      0.197900
     25 OR1         3.9090   -2.4190    0.8470 os        1 SSL     -0.422600
     26 C1          6.7030   -3.5410    0.7680 c3        1 SSL      0.262400
     27 O2          8.0810   -3.2380    0.7090 os        1 SSL     -0.434200
     28 PA          8.6710   -4.1980   -0.5260 p5        1 SSL      0.779800
     29 O1A         7.8320   -4.0550   -1.7820 o         1 SSL     -0.668000
     30 O2A        10.2960   -3.8910   -0.4890 o         1 SSL     -0.668000
     31 O3A         8.5890   -5.5550    0.4080 os        1 SSL     -0.505800
     32 PB          9.2940   -7.1500   -0.0920 p5        1 SSL      0.891900
     33 O1B         8.8770   -8.0650    1.1000 o         1 SSL     -0.712167
     34 O2B        10.6100   -6.7650   -0.3510 o         1 SSL     -0.712167
     35 O3B         8.7010   -7.3880   -1.3570 o         1 SSL     -0.712167
     36 CR1         3.5220   -0.9110   -0.9750 c3        1 SSL     -0.079400
     37 CC          1.9720   -0.9250   -1.0140 c3        1 SSL      0.114200
     38 CC1         1.4150   -2.3620   -1.2310 c3        1 SSL     -0.019600
     39 CC2         1.8600   -0.1820   -2.3820 c3        1 SSL     -0.019600
     40 HOR        -0.3730   -0.4930    0.7120 ho        1 SSL      0.378000
     41 H1CE        2.1300    2.1590    1.6200 hc        1 SSL      0.012033
     42 H2CE        0.5130    1.6620    1.9510 hc        1 SSL      0.012033
     43 H3CE        2.1300    1.4470    2.9310 hc        1 SSL      0.012033
     44 H4CE        1.7570   -1.0040    3.3140 hc        1 SSL      0.012033
     45 H5CE        0.3940   -1.1080    1.9780 hc        1 SSL      0.012033
     46 H6CE        1.5350   -1.9680    1.6200 hc        1 SSL      0.012033
     47 HACF        3.8150   -0.0570    2.3850 hc        1 SSL      0.050700
     48 HBCF        4.1300    0.7200    0.8230 hc        1 SSL      0.050700
     49 HACG        5.9550   -0.4240    2.0920 h1        1 SSL      0.008700
     50 HBCG        7.2480   -0.7400    0.8770 h1        1 SSL      0.008700
     51 HN1         6.5260   -1.9390    3.4990 hn        1 SSL      0.108700
     52 HB6         5.4910   -4.8430    3.8520 ha        1 SSL      0.067000
     53 HB5         6.2980   -7.1070    4.3420 ha        1 SSL      0.061000
     54 HB3        10.2600   -5.6950    4.2710 ha        1 SSL      0.160000
     55 H1CA        4.5730   -3.8810    2.0140 h1        1 SSL      0.008700
     56 H2CA        3.9840   -2.2900    2.7030 h1        1 SSL      0.008700
     57 H11         6.0630   -3.2160   -0.0430 h1        1 SSL      0.026700
     58 H12         6.6340   -4.4650    1.3290 h1        1 SSL      0.026700
     59 HACR        3.8070    0.0990   -1.2410 hc        1 SSL      0.050700
     60 HBCR        3.8280   -1.7200   -1.6270 hc        1 SSL      0.050700
     61 H1CC        1.2560   -2.6670   -0.2030 hc        1 SSL      0.012033
     62 H2CC        0.3490   -2.2820   -1.4110 hc        1 SSL      0.012033
     63 H3CC        2.0010   -3.0790   -1.7930 hc        1 SSL      0.012033
     64 H4CC        0.8190    0.0610   -2.2060 hc        1 SSL      0.012033
     65 H5CC        2.3800    0.7680   -2.3740 hc        1 SSL      0.012033
     66 H6CC        1.7420   -0.8490   -3.2270 hc        1 SSL      0.012033
@<TRIPOS>BOND
     1    1    2 1   
     2    1   40 1   
     3    2    3 1   
     4    2   37 1   
     5    3    4 1   
     6    3    5 1   
     7    3    6 1   
     8    4   41 1   
     9    4   42 1   
    10    4   43 1   
    11    5   44 1   
    12    5   45 1   
    13    5   46 1   
    14    6    7 1   
    15    6   47 1   
    16    6   48 1   
    17    7    8 1   
    18    7   25 1   
    19    7   36 1   
    20    8    9 1   
    21    9   10 1   
    22    9   49 1   
    23    9   50 1   
    24   10   11 1   
    25   10   24 1   
    26   10   26 1   
    27   11   12 2   
    28   11   51 1   
    29   12   13 1   
    30   12   20 1   
    31   13   14 2   
    32   13   52 1   
    33   14   15 1   
    34   14   53 1   
    35   15   16 2   
    36   15   19 1   
    37   16   17 1   
    38   17   18 3   
    39   19   20 2   
    40   19   54 1   
    41   20   21 1   
    42   21   22 1   
    43   21   23 1   
    44   24   25 1   
    45   24   55 1   
    46   24   56 1   
    47   26   27 1   
    48   26   57 1   
    49   26   58 1   
    50   27   28 1   
    51   28   29 1   
    52   28   30 1   
    53   28   31 1   
    54   31   32 1   
    55   32   33 1   
    56   32   34 1   
    57   32   35 1   
    58   36   37 1   
    59   36   59 1   
    60   36   60 1   
    61   37   38 1   
    62   37   39 1   
    63   38   61 1   
    64   38   62 1   
    65   38   63 1   
    66   39   64 1   
    67   39   65 1   
    68   39   66 1   
@<TRIPOS>SUBSTRUCTURE
     1 SSL         1 TEMP              0 ****  ****    0 ROOT
