@<TRIPOS>MOLECULE
SSL
   66    68     1     0     0
SMALL
bcc


@<TRIPOS>ATOM
      1 OR          0.4200   -1.3900    3.5860 oh        1 SSL     -0.427300
      2 ND          0.4510   -1.7360    2.2830 n3        1 SSL     -0.492100
      3 CE          0.5250   -0.4970    1.4450 c3        1 SSL      0.183700
      4 CE1        -0.8050    0.2700    1.6100 c3        1 SSL     -0.102600
      5 CE2         1.6480    0.4770    1.8240 c3        1 SSL     -0.102600
      6 CF          0.6480   -0.8560   -0.0440 c3        1 SSL     -0.088900
      7 CB          1.7580   -1.8630   -0.3590 c3        1 SSL      0.344600
      8 OR2         1.5980   -2.4050   -1.6670 os        1 SSL     -0.434600
      9 CG          1.6790   -1.4540   -2.7190 c3        1 SSL      0.103400
     10 C2          2.9450   -0.5390   -2.6790 c3        1 SSL     -0.027300
     11 N1          2.5140    0.7040   -3.3370 nh        1 SSL     -0.360100
     12 CB1         3.2480    1.8820   -3.3450 cc        1 SSL      0.406900
     13 CB6         4.5890    1.9780   -2.8970 cc        1 SSL     -0.263600
     14 CB5         5.3060    3.1530   -2.9310 cd        1 SSL     -0.140600
     15 CB4         4.6790    4.3610   -3.3370 cd        1 SSL      0.370900
     16 NA1         5.3260    5.6330   -3.2880 ne        1 SSL     -0.432400
     17 NA2         6.5090    5.7860   -3.6700 n1        1 SSL      0.139700
     18 NA3         7.5500    6.1690   -3.9220 n1        1 SSL     -0.118000
     19 CB3         3.3520    4.3270   -3.7590 cd        1 SSL     -0.153600
     20 CB2         2.6310    3.1090   -3.7700 cc        1 SSL     -0.339700
     21 NN1         1.2470    3.1870   -4.2530 no        1 SSL      0.308100
     22 ON1         0.6810    4.2640   -4.2400 o         1 SSL     -0.281500
     23 ON2         0.6490    2.2250   -4.6690 o         1 SSL     -0.281500
     24 CA          3.3750   -0.2850   -1.2160 c3        1 SSL      0.103400
     25 OR1         3.0660   -1.3450   -0.3160 os        1 SSL     -0.434600
     26 C1          4.1130   -1.3210   -3.3880 c3        1 SSL      0.147400
     27 O2          4.2140   -0.9830   -4.7200 os        1 SSL     -0.596200
     28 PA          5.7850   -1.0660   -5.3790 p5        1 SSL      1.574800
     29 O1A         5.9830   -2.5240   -5.5820 o         1 SSL     -0.904500
     30 O2A         5.6880   -0.1750   -6.5630 o         1 SSL     -0.904500
     31 O3A         6.6520   -0.4740   -4.1970 os        1 SSL     -0.829800
     32 PB          7.5360    0.0860   -2.8090 p5        1 SSL      1.482900
     33 O1B         6.4640   -0.1330   -1.7530 o         1 SSL     -0.950833
     34 O2B         7.7260    1.5660   -3.0330 o         1 SSL     -0.950833
     35 O3B         8.7760   -0.7380   -2.7020 o         1 SSL     -0.950833
     36 CR1         1.6990   -3.0750    0.5810 c3        1 SSL     -0.088900
     37 CC          1.5600   -2.7190    2.0710 c3        1 SSL      0.183700
     38 CC1         2.9300   -2.2890    2.6150 c3        1 SSL     -0.102600
     39 CC2         1.1770   -4.0260    2.8020 c3        1 SSL     -0.102600
     40 HOR        -0.4900   -1.6010    3.8590 ho        1 SSL      0.391000
     41 H1CE       -1.6780   -0.3840    1.3770 hc        1 SSL      0.039283
     42 H2CE       -0.9040    0.6490    2.6550 hc        1 SSL      0.039283
     43 H3CE       -0.8110    1.1360    0.9070 hc        1 SSL      0.039283
     44 H4CE        1.4560    1.4700    1.3510 hc        1 SSL      0.039283
     45 H5CE        1.7000    0.6070    2.9310 hc        1 SSL      0.039283
     46 H6CE        2.6340    0.1040    1.4490 hc        1 SSL      0.039283
     47 HACF        0.8350    0.0910   -0.6160 hc        1 SSL      0.064200
     48 HBCF       -0.3180   -1.2950   -0.4050 hc        1 SSL      0.064200
     49 HACG        0.7250   -0.8570   -2.7100 h1        1 SSL      0.076450
     50 HBCG        1.7130   -2.0910   -3.6460 h1        1 SSL      0.076450
     51 HN1         2.1440    0.4970   -4.2510 hn        1 SSL      0.280700
     52 HB6         5.1720    1.0520   -2.5850 ha        1 SSL      0.280000
     53 HB5         6.4050    3.0670   -2.7110 ha        1 SSL      0.258000
     54 HB3         2.8440    5.2480   -4.0900 ha        1 SSL      0.134000
     55 H1CA        4.5200   -0.2330   -1.1400 h1        1 SSL      0.076450
     56 H2CA        2.9130    0.6570   -0.8130 h1        1 SSL      0.076450
     57 H11         3.8580   -2.4160   -3.2730 h1        1 SSL      0.066200
     58 H12         5.0950   -1.1100   -2.8510 h1        1 SSL      0.066200
     59 HACR        0.8320   -3.7070    0.2580 hc        1 SSL      0.064200
     60 HBCR        2.6430   -3.6660    0.4470 hc        1 SSL      0.064200
     61 H1CC        3.4720   -1.6620    1.8630 hc        1 SSL      0.039283
     62 H2CC        2.8200   -1.7150    3.5650 hc        1 SSL      0.039283
     63 H3CC        3.5540   -3.1930    2.8140 hc        1 SSL      0.039283
     64 H4CC        1.1650   -3.8590    3.9050 hc        1 SSL      0.039283
     65 H5CC        0.1730   -4.3880    2.4790 hc        1 SSL      0.039283
     66 H6CC        1.9330   -4.8100    2.5600 hc        1 SSL      0.039283
@<TRIPOS>BOND
     1    1    2 1   
     2    1   40 1   
     3    2    3 1   
     4    2   37 1   
     5    3    4 1   
     6    3    5 1   
     7    3    6 1   
     8    4   41 1   
     9    4   42 1   
    10    4   43 1   
    11    5   44 1   
    12    5   45 1   
    13    5   46 1   
    14    6    7 1   
    15    6   47 1   
    16    6   48 1   
    17    7    8 1   
    18    7   25 1   
    19    7   36 1   
    20    8    9 1   
    21    9   10 1   
    22    9   49 1   
    23    9   50 1   
    24   10   11 1   
    25   10   24 1   
    26   10   26 1   
    27   11   12 2   
    28   11   51 1   
    29   12   13 1   
    30   12   20 1   
    31   13   14 2   
    32   13   52 1   
    33   14   15 1   
    34   14   53 1   
    35   15   16 2   
    36   15   19 1   
    37   16   17 1   
    38   17   18 3   
    39   19   20 2   
    40   19   54 1   
    41   20   21 1   
    42   21   22 1   
    43   21   23 1   
    44   24   25 1   
    45   24   55 1   
    46   24   56 1   
    47   26   27 1   
    48   26   57 1   
    49   26   58 1   
    50   27   28 1   
    51   28   29 1   
    52   28   30 1   
    53   28   31 1   
    54   31   32 1   
    55   32   33 1   
    56   32   34 1   
    57   32   35 1   
    58   36   37 1   
    59   36   59 1   
    60   36   60 1   
    61   37   38 1   
    62   37   39 1   
    63   38   61 1   
    64   38   62 1   
    65   38   63 1   
    66   39   64 1   
    67   39   65 1   
    68   39   66 1   
@<TRIPOS>SUBSTRUCTURE
     1 SSL         1 TEMP              0 ****  ****    0 ROOT
