@<TRIPOS>MOLECULE
SSM
   32    31     1     0     0
SMALL
bcc


@<TRIPOS>ATOM
      1 C2         -0.3540   -0.8760   -0.2810 c3        1 SSM     -0.192100
      2 C           1.0320   -0.4830    0.0830 c         1 SSM      0.575100
      3 O           1.6390   -0.6230    1.1260 o         1 SSM     -0.387100
      4 N           1.8230    0.2010   -1.0630 n4        1 SSM     -0.705800
      5 CA          3.2700    0.5140   -0.8030 c3        1 SSM      0.067500
      6 CB          3.4480    1.5670    0.3140 c3        1 SSM     -0.055400
      7 CG          3.6160    2.9590   -0.2430 c3        1 SSM     -0.120100
      8 SD          5.2660    3.2800   -0.8340 s4        1 SSM      0.359600
      9 OD1         5.6820    1.8720   -1.2090 o         1 SSM     -0.641200
     10 CE          4.9340    4.0680   -2.3210 c3        1 SSM     -0.156800
     11 C3          4.0660   -0.7720   -0.5240 c         1 SSM      0.522100
     12 O3          3.5590   -1.8640   -0.3020 o         1 SSM     -0.392100
     13 N2          5.5500   -0.6700   -0.5900 n4        1 SSM     -0.636800
     14 C1          6.2490   -1.9330   -0.2460 c3        1 SSM      0.082100
     15 H2         -1.0000   -0.7720    0.6370 hc        1 SSM      0.135033
     16 H2A        -0.3560   -1.9610   -0.5800 hc        1 SSM      0.135033
     17 H2B        -0.7990   -0.2670   -1.1050 hc        1 SSM      0.135033
     18 HN          1.3520    1.0920   -1.2720 hn        1 SSM      0.473300
     19 HA          3.6880    0.9520   -1.7730 hx        1 SSM      0.157700
     20 HB          4.3470    1.3010    0.9320 hc        1 SSM      0.096200
     21 HBA         2.5750    1.5460    1.0250 hc        1 SSM      0.096200
     22 HG          3.4340    3.6940    0.5910 h1        1 SSM      0.116200
     23 HGA         2.8380    3.1790   -1.0140 h1        1 SSM      0.116200
     24 HE          4.2520    4.9440   -2.1850 h1        1 SSM      0.122700
     25 HEA         4.5070    3.4270   -3.1270 h1        1 SSM      0.122700
     26 HEB         5.8960    4.4790   -2.7310 h1        1 SSM      0.122700
     27 HN2         5.8620    0.1000    0.0340 hn        1 SSM      0.500300
     28 H1          5.9380   -2.7460   -0.9570 hx        1 SSM      0.126033
     29 H1A         5.9870   -2.2400    0.8030 hx        1 SSM      0.126033
     30 H1B         7.3580   -1.7540   -0.3290 hx        1 SSM      0.126033
     31 H21         1.7520   -0.4070   -1.8880 hn        1 SSM      0.473300
     32 H22         5.8160   -0.3550   -1.5440 hn        1 SSM      0.500300
@<TRIPOS>BOND
     1    1    2 1   
     2    1   15 1   
     3    1   16 1   
     4    1   17 1   
     5    2    3 2   
     6    2    4 1   
     7    4    5 1   
     8    4   18 1   
     9    4   31 1   
    10    5    6 1   
    11    5   11 1   
    12    5   19 1   
    13    6    7 1   
    14    6   20 1   
    15    6   21 1   
    16    7    8 1   
    17    7   22 1   
    18    7   23 1   
    19    8    9 2   
    20    8   10 1   
    21   10   24 1   
    22   10   25 1   
    23   10   26 1   
    24   11   12 2   
    25   11   13 1   
    26   13   14 1   
    27   13   27 1   
    28   13   32 1   
    29   14   28 1   
    30   14   29 1   
    31   14   30 1   
@<TRIPOS>SUBSTRUCTURE
     1 SSM         1 TEMP              0 ****  ****    0 ROOT
