@<TRIPOS>MOLECULE
SSM
   30    29     1     0     0
SMALL
bcc


@<TRIPOS>ATOM
      1 C2          1.6450    3.7050    0.1640 c3        1 SSM     -0.181100
      2 C           0.9410    2.3860   -0.0600 c         1 SSM      0.658100
      3 O           0.2190    2.2140   -1.0600 o         1 SSM     -0.604100
      4 N           1.0810    1.4310    0.9510 n         1 SSM     -0.524900
      5 CA          0.8520    0.0150    0.7810 c3        1 SSM      0.040700
      6 CB         -0.3160   -0.3720   -0.1330 c3        1 SSM     -0.060400
      7 CG         -1.6250    0.2040    0.3430 c3        1 SSM     -0.085100
      8 SD         -2.9570   -0.5450   -0.5300 s4        1 SSM      0.265600
      9 OD1        -2.8330   -2.0090   -0.2570 o         1 SSM     -0.516200
     10 CE         -4.2740    0.0050    0.4620 c3        1 SSM     -0.127800
     11 C3          2.1350   -0.7290    0.3100 c         1 SSM      0.619100
     12 O3          3.1520   -0.1040   -0.0550 o         1 SSM     -0.617100
     13 N2          2.1270   -2.1030    0.3850 n         1 SSM     -0.564900
     14 C1          3.2170   -2.9050   -0.0770 c3        1 SSM      0.075300
     15 H2          1.3270    4.4220   -0.6310 hc        1 SSM      0.069367
     16 H2A         1.3900    4.1330    1.1630 hc        1 SSM      0.069367
     17 H2B         2.7510    3.5580    0.0990 hc        1 SSM      0.069367
     18 HN          1.8500    1.6080    1.5670 hn        1 SSM      0.300500
     19 HA          0.6180   -0.3730    1.8240 h1        1 SSM      0.070700
     20 HB         -0.1020   -0.0290   -1.1810 hc        1 SSM      0.075200
     21 HBA        -0.4070   -1.4930   -0.1420 hc        1 SSM      0.075200
     22 HG         -1.7170    0.0750    1.4490 h1        1 SSM      0.090700
     23 HGA        -1.6460    1.3060    0.1380 h1        1 SSM      0.090700
     24 HE         -4.2290    1.1090    0.6060 h1        1 SSM      0.084700
     25 HEA        -5.2340   -0.2400   -0.0500 h1        1 SSM      0.084700
     26 HEB        -4.3080   -0.4720    1.4680 h1        1 SSM      0.084700
     27 HN2         1.2790   -2.5710    0.6010 hn        1 SSM      0.316500
     28 H1          4.1260   -2.2670   -0.2390 h1        1 SSM      0.046367
     29 H1A         3.4500   -3.6920    0.6900 h1        1 SSM      0.046367
     30 H1B         2.9540   -3.4130   -1.0450 h1        1 SSM      0.046367
@<TRIPOS>BOND
     1    1    2 1   
     2    1   15 1   
     3    1   16 1   
     4    1   17 1   
     5    2    3 2   
     6    2    4 1   
     7    4    5 1   
     8    4   18 1   
     9    5    6 1   
    10    5   11 1   
    11    5   19 1   
    12    6    7 1   
    13    6   20 1   
    14    6   21 1   
    15    7    8 1   
    16    7   22 1   
    17    7   23 1   
    18    8    9 2   
    19    8   10 1   
    20   10   24 1   
    21   10   25 1   
    22   10   26 1   
    23   11   12 2   
    24   11   13 1   
    25   13   14 1   
    26   13   27 1   
    27   14   28 1   
    28   14   29 1   
    29   14   30 1   
@<TRIPOS>SUBSTRUCTURE
     1 SSM         1 TEMP              0 ****  ****    0 ROOT
