@<TRIPOS>MOLECULE
SSM
   30    29     1     0     0
SMALL
bcc


@<TRIPOS>ATOM
      1 C2         -3.9030    0.4490    1.3710 c3        1 SSM     -0.173100
      2 C          -2.3900    0.4490    1.3710 c         1 SSM      0.660100
      3 O          -1.7830    0.4490    2.4230 o         1 SSM     -0.621100
      4 N          -1.6810    0.4540    0.1420 n         1 SSM     -0.562900
      5 CA         -0.2610    0.4630    0.1420 c3        1 SSM      0.040700
      6 CB          0.2490   -0.4230   -0.9730 c3        1 SSM     -0.071400
      7 CG          0.8840   -1.6630   -0.3810 c3        1 SSM     -0.093100
      8 SD          1.4700   -2.7070   -1.6890 s4        1 SSM      0.247600
      9 OD1         1.3360   -2.2900   -3.0570 o         1 SSM     -0.510200
     10 CE          2.2250   -4.2660   -1.3080 c3        1 SSM     -0.124800
     11 C3          0.2340    1.8760   -0.0700 c         1 SSM      0.640100
     12 O3         -0.1430    2.5130   -1.0330 o         1 SSM     -0.621100
     13 N2          1.1280    2.4620    0.8630 n         1 SSM     -0.562900
     14 C1          1.5760    3.8000    0.6750 c3        1 SSM      0.076300
     15 H2         -4.2280   -0.2890    0.8210 hc        1 SSM      0.068033
     16 H2A        -4.2280    1.2940    1.0070 hc        1 SSM      0.068033
     17 H2B        -4.2280    0.3420    2.2850 hc        1 SSM      0.068033
     18 HN         -2.1370    0.4840   -0.6470 hn        1 SSM      0.330500
     19 HA          0.0670    0.1280    0.9990 h1        1 SSM      0.095700
     20 HB         -0.4960   -0.6820   -1.5490 hc        1 SSM      0.067200
     21 HBA         0.9120    0.0630   -1.4970 hc        1 SSM      0.067200
     22 HG          0.2220   -2.1460    0.1490 h1        1 SSM      0.094700
     23 HGA         1.6320   -1.4040    0.1890 h1        1 SSM      0.094700
     24 HE          2.8320   -4.5180   -2.0290 h1        1 SSM      0.087033
     25 HEA         1.5330   -4.9470   -1.2100 h1        1 SSM      0.087033
     26 HEB         2.7260   -4.1890   -0.4730 h1        1 SSM      0.087033
     27 HN2         1.4170    1.9810    1.5820 hn        1 SSM      0.319500
     28 H1          2.0350    3.8730   -0.1830 h1        1 SSM      0.047033
     29 H1A         2.1910    4.0410    1.3940 h1        1 SSM      0.047033
     30 H1B         0.8100    4.4050    0.6870 h1        1 SSM      0.047033
@<TRIPOS>BOND
     1    1    2 1   
     2    1   15 1   
     3    1   16 1   
     4    1   17 1   
     5    2    3 2   
     6    2    4 1   
     7    4    5 1   
     8    4   18 1   
     9    5    6 1   
    10    5   11 1   
    11    5   19 1   
    12    6    7 1   
    13    6   20 1   
    14    6   21 1   
    15    7    8 1   
    16    7   22 1   
    17    7   23 1   
    18    8    9 2   
    19    8   10 1   
    20   10   24 1   
    21   10   25 1   
    22   10   26 1   
    23   11   12 2   
    24   11   13 1   
    25   13   14 1   
    26   13   27 1   
    27   14   28 1   
    28   14   29 1   
    29   14   30 1   
@<TRIPOS>SUBSTRUCTURE
     1 SSM         1 TEMP              0 ****  ****    0 ROOT
