@<TRIPOS>MOLECULE
SSM
   32    31     1     0     0
SMALL
bcc


@<TRIPOS>ATOM
      1 C2         -0.3590   -0.8390   -0.1960 c3        1 SSM     -0.192100
      2 C           1.0430   -0.4730    0.1330 c         1 SSM      0.575100
      3 O           1.6820   -0.6500    1.1500 o         1 SSM     -0.387100
      4 N           1.8060    0.2320   -1.0200 ny        1 SSM     -0.705800
      5 CA          3.2640    0.5210   -0.7980 c3        1 SSM      0.067500
      6 CB          3.4910    1.5400    0.3400 c3        1 SSM     -0.055400
      7 CG          3.6590    2.9450   -0.1830 c3        1 SSM     -0.120100
      8 SD          5.2930    3.2630   -0.8190 s4        1 SSM      0.359600
      9 OD1         5.6780    1.8610   -1.2450 o         1 SSM     -0.641200
     10 CE          4.9230    4.0960   -2.2710 c3        1 SSM     -0.156800
     11 C3          4.0520   -0.7820   -0.5810 c         1 SSM      0.522100
     12 O3          3.5390   -1.8730   -0.3730 o         1 SSM     -0.392100
     13 N2          5.5350   -0.6950   -0.6920 ny        1 SSM     -0.636800
     14 C1          6.2280   -1.9760   -0.4070 c3        1 SSM      0.082100
     15 H2         -0.3870   -1.9180   -0.5150 hc        1 SSM      0.134700
     16 H2A        -0.9750   -0.7430    0.7430 hc        1 SSM      0.134700
     17 H2B        -0.8200   -0.2070   -0.9950 hc        1 SSM      0.134700
     18 HN          1.3390    1.1340   -1.1890 hn        1 SSM      0.473300
     19 HA          3.6560    0.9800   -1.7690 hx        1 SSM      0.157700
     20 HB          2.6420    1.5100    1.0790 hc        1 SSM      0.096200
     21 HBA         4.4070    1.2460    0.9220 hc        1 SSM      0.096200
     22 HG          2.8600    3.1950   -0.9220 h1        1 SSM      0.116200
     23 HGA         3.5130    3.6590    0.6760 h1        1 SSM      0.116200
     24 HE          5.8770    4.5070   -2.7020 h1        1 SSM      0.122700
     25 HEA         4.2570    4.9760   -2.0890 h1        1 SSM      0.122700
     26 HEB         4.4620    3.4830   -3.0800 h1        1 SSM      0.122700
     27 HN2         5.8760    0.0530   -0.0580 hn        1 SSM      0.500300
     28 H1          5.9960   -2.3090    0.6420 hx        1 SSM      0.126033
     29 H1A         5.8840   -2.7650   -1.1290 hx        1 SSM      0.126033
     30 H1B         7.3360   -1.8080   -0.5210 hx        1 SSM      0.126033
     31 H21         1.7000   -0.3520   -1.8580 hn        1 SSM      0.473300
     32 H22         5.7740   -0.3580   -1.6460 hn        1 SSM      0.500300
@<TRIPOS>BOND
     1    1    2 1   
     2    1   15 1   
     3    1   16 1   
     4    1   17 1   
     5    2    3 2   
     6    2    4 1   
     7    4    5 1   
     8    4   18 1   
     9    4   31 1   
    10    5    6 1   
    11    5   11 1   
    12    5   19 1   
    13    6    7 1   
    14    6   20 1   
    15    6   21 1   
    16    7    8 1   
    17    7   22 1   
    18    7   23 1   
    19    8    9 2   
    20    8   10 1   
    21   10   24 1   
    22   10   25 1   
    23   10   26 1   
    24   11   12 2   
    25   11   13 1   
    26   13   14 1   
    27   13   27 1   
    28   13   32 1   
    29   14   28 1   
    30   14   29 1   
    31   14   30 1   
@<TRIPOS>SUBSTRUCTURE
     1 SSM         1 TEMP              0 ****  ****    0 ROOT
