@<TRIPOS>MOLECULE
SSM
   32    31     1     0     0
SMALL
bcc


@<TRIPOS>ATOM
      1 C2         -0.3420   -0.8620   -0.1360 c3        1 SSM     -0.192100
      2 C           1.0580   -0.4750    0.1750 c         1 SSM      0.575100
      3 O           1.7030   -0.6190    1.1940 o         1 SSM     -0.387100
      4 N           1.8080    0.2060   -0.9990 n4        1 SSM     -0.705800
      5 CA          3.2650    0.5140   -0.7930 c3        1 SSM      0.067500
      6 CB          3.4870    1.5670    0.3170 c3        1 SSM     -0.055400
      7 CG          3.6390    2.9580   -0.2450 c3        1 SSM     -0.120100
      8 SD          5.2670    3.2740   -0.8970 s4        1 SSM      0.359600
      9 OD1         5.6640    1.8650   -1.2870 o         1 SSM     -0.641200
     10 CE          4.8830    4.0640   -2.3700 c3        1 SSM     -0.156800
     11 C3          4.0660   -0.7740   -0.5440 c         1 SSM      0.522100
     12 O3          3.5650   -1.8650   -0.3050 o         1 SSM     -0.392100
     13 N2          5.5480   -0.6760   -0.6650 n4        1 SSM     -0.636800
     14 C1          6.2550   -1.9420   -0.3490 c3        1 SSM      0.082100
     15 H2         -0.9570   -0.7390    0.8010 hc        1 SSM      0.134700
     16 H2A        -0.3630   -1.9520   -0.4180 hc        1 SSM      0.134700
     17 H2B        -0.8110   -0.2620   -0.9540 hc        1 SSM      0.134700
     18 HN          1.3330    1.0990   -1.1910 hn        1 SSM      0.473800
     19 HA          3.6480    0.9510   -1.7780 hx        1 SSM      0.157700
     20 HB          2.6420    1.5480    1.0600 hc        1 SSM      0.096200
     21 HBA         4.4080    1.2970    0.9020 hc        1 SSM      0.096200
     22 HG          3.4900    3.6930    0.5960 h1        1 SSM      0.116200
     23 HGA         2.8340    3.1810   -0.9870 h1        1 SSM      0.116200
     24 HE          4.2090    4.9420   -2.2080 h1        1 SSM      0.122700
     25 HEA         5.8300    4.4720   -2.8160 h1        1 SSM      0.122700
     26 HEB         4.4230    3.4250   -3.1590 h1        1 SSM      0.122700
     27 HN2         5.7790   -0.3620   -1.6280 hn        1 SSM      0.500300
     28 H1          7.3600   -1.7670   -0.4730 hx        1 SSM      0.126033
     29 H1A         6.0310   -2.2490    0.7090 hx        1 SSM      0.126033
     30 H1B         5.9150   -2.7540   -1.0480 hx        1 SSM      0.126033
     31 H21         1.7040   -0.4020   -1.8210 hn        1 SSM      0.473800
     32 H22         5.8850    0.0910   -0.0530 hn        1 SSM      0.500300
@<TRIPOS>BOND
     1    1    2 1   
     2    1   15 1   
     3    1   16 1   
     4    1   17 1   
     5    2    3 2   
     6    2    4 1   
     7    4    5 1   
     8    4   18 1   
     9    4   31 1   
    10    5    6 1   
    11    5   11 1   
    12    5   19 1   
    13    6    7 1   
    14    6   20 1   
    15    6   21 1   
    16    7    8 1   
    17    7   22 1   
    18    7   23 1   
    19    8    9 2   
    20    8   10 1   
    21   10   24 1   
    22   10   25 1   
    23   10   26 1   
    24   11   12 2   
    25   11   13 1   
    26   13   14 1   
    27   13   27 1   
    28   13   32 1   
    29   14   28 1   
    30   14   29 1   
    31   14   30 1   
@<TRIPOS>SUBSTRUCTURE
     1 SSM         1 TEMP              0 ****  ****    0 ROOT
