@<TRIPOS>MOLECULE
SSN
   12    11     1     0     0
SMALL
bcc


@<TRIPOS>ATOM
      1 C1         -0.0160    0.1870   -0.0130 c         1 SSN      0.910600
      2 O1          1.0780    0.8210    0.0340 o         1 SSN     -0.845300
      3 C2         -0.7690   -0.0740    1.3080 c3        1 SSN     -0.196400
      4 O2         -0.5510   -0.2300   -1.0790 o         1 SSN     -0.845300
      5 C3          0.1870   -0.2640    2.4610 c3        1 SSN     -0.192400
      6 C4         -0.4250    0.0830    3.7720 c         1 SSN      0.572900
      7 O4         -0.2170   -0.5290    4.8270 o         1 SSN     -0.593100
      8 H2         -1.4220   -0.9730    1.1870 hc        1 SSN      0.025200
      9 H2A        -1.4310    0.8110    1.4880 hc        1 SSN      0.025200
     10 H3          1.0730    0.4190    2.2940 hc        1 SSN      0.082700
     11 H3A         0.5780   -1.3140    2.4750 hc        1 SSN      0.082700
     12 H4         -1.1030    0.9700    3.7650 h4        1 SSN     -0.027800
@<TRIPOS>BOND
     1    1    2 1   
     2    1    3 1   
     3    1    4 1   
     4    3    5 1   
     5    3    8 1   
     6    3    9 1   
     7    5    6 1   
     8    5   10 1   
     9    5   11 1   
    10    6    7 2   
    11    6   12 1   
@<TRIPOS>SUBSTRUCTURE
     1 SSN         1 TEMP              0 ****  ****    0 ROOT
