@<TRIPOS>MOLECULE
SSN
   12    11     1     0     0
SMALL
bcc


@<TRIPOS>ATOM
      1 C1         -0.0240    0.1900   -0.0140 c         1 SSN      0.910600
      2 O1          1.1150    0.7400    0.0260 o         1 SSN     -0.845300
      3 C2         -0.7790   -0.0290    1.3130 c3        1 SSN     -0.196400
      4 O2         -0.6010   -0.1730   -1.0770 o         1 SSN     -0.845300
      5 C3          0.1740   -0.3020    2.4530 c3        1 SSN     -0.192400
      6 C4         -0.3960    0.0750    3.7750 c         1 SSN      0.572900
      7 O4         -0.2220   -0.5620    4.8210 o         1 SSN     -0.593100
      8 H2         -1.4990   -0.8750    1.1910 hc        1 SSN      0.025200
      9 H2A        -1.3710    0.9010    1.5110 hc        1 SSN      0.025200
     10 H3          1.1060    0.3140    2.2820 hc        1 SSN      0.082700
     11 H3A         0.4850   -1.3790    2.4510 hc        1 SSN      0.082700
     12 H4         -1.0060    1.0100    3.7850 h4        1 SSN     -0.027800
@<TRIPOS>BOND
     1    1    2 1   
     2    1    3 1   
     3    1    4 1   
     4    3    5 1   
     5    3    8 1   
     6    3    9 1   
     7    5    6 1   
     8    5   10 1   
     9    5   11 1   
    10    6    7 2   
    11    6   12 1   
@<TRIPOS>SUBSTRUCTURE
     1 SSN         1 TEMP              0 ****  ****    0 ROOT
