@<TRIPOS>MOLECULE
SSN
   12    11     1     0     0
SMALL
bcc


@<TRIPOS>ATOM
      1 C1          1.5600    0.0100    0.1630 c         1 SSN      0.910600
      2 O1          1.6420   -1.0700    0.8170 o         1 SSN     -0.845300
      3 C2          0.1760    0.6770    0.0200 c3        1 SSN     -0.196400
      4 O2          2.5450    0.5970   -0.3650 o         1 SSN     -0.845300
      5 C3         -0.9290   -0.3500   -0.0400 c3        1 SSN     -0.192400
      6 C4         -2.2360    0.1910    0.4240 c         1 SSN      0.572900
      7 O4         -3.3300   -0.0930   -0.0780 o         1 SSN     -0.593100
      8 H2          0.0420    1.3470    0.9080 hc        1 SSN      0.025200
      9 H2A         0.1700    1.3150   -0.8960 hc        1 SSN      0.025200
     10 H3         -1.0200   -0.7650   -1.0770 hc        1 SSN      0.082700
     11 H3A        -0.6430   -1.2090    0.6380 hc        1 SSN      0.082700
     12 H4         -2.1840    0.8880    1.2940 h4        1 SSN     -0.027800
@<TRIPOS>BOND
     1    1    2 1   
     2    1    3 1   
     3    1    4 1   
     4    3    5 1   
     5    3    8 1   
     6    3    9 1   
     7    5    6 1   
     8    5   10 1   
     9    5   11 1   
    10    6    7 2   
    11    6   12 1   
@<TRIPOS>SUBSTRUCTURE
     1 SSN         1 TEMP              0 ****  ****    0 ROOT
