@<TRIPOS>MOLECULE
SSO
   38    37     1     0     0
SMALL
bcc


@<TRIPOS>ATOM
      1 C1          4.3710   -0.0490   -0.1810 c3        1 SSO      0.101000
      2 O1          5.5550    0.0840   -0.9770 oh        1 SSO     -0.356000
      3 C2          3.6310    1.3130   -0.1660 c3        1 SSO     -0.002000
      4 O2          4.4370    2.3020    0.4770 oh        1 SSO     -0.370000
      5 C3          2.2740    1.1670    0.4900 c3        1 SSO     -0.307000
      6 S4          1.5720   -0.3430   -0.0920 ss        1 SSO      0.252000
      7 C5          3.4710   -1.0980   -0.7180 c2        1 SSO     -0.537000
      8 C6          3.5440   -2.4400   -0.1100 c3        1 SSO      0.082000
      9 O6          4.6240   -3.2120   -0.6690 oh        1 SSO     -0.374000
     10 C7         -0.1790   -0.1790    0.2880 c3        1 SSO     -0.512000
     11 C8         -0.9720    0.7520   -0.6020 c3        1 SSO      0.064000
     12 O8         -0.7860    0.4440   -1.9860 oh        1 SSO     -0.382000
     13 C9         -2.4940    0.6730   -0.3390 c3        1 SSO      0.071000
     14 C10        -3.2790    1.5180   -1.3600 c3        1 SSO     -0.044000
     15 O10        -3.3950    2.8790   -0.9980 oh        1 SSO     -0.365000
     16 O9         -2.7510    1.1380    0.9530 os        1 SSO     -0.750000
     17 S9         -4.1960    0.7830    1.8140 s6        1 SSO      2.871000
     18 O11        -4.9690    1.8980    1.4610 o         1 SSO     -1.084000
     19 O12        -4.6370   -0.4310    1.2790 o         1 SSO     -1.084000
     20 O13        -3.7820    0.7440    3.1450 o         1 SSO     -1.084000
     21 H1          4.6960   -0.2810    0.8760 h1        1 SSO      0.029000
     22 HO1         5.9660    0.9180   -0.7200 ho        1 SSO      0.160000
     23 H2          3.5300    1.6950   -1.2190 h1        1 SSO      0.113000
     24 HO2         4.4800    2.0610    1.4080 ho        1 SSO      0.181000
     25 H31         1.6180    2.0340    0.2430 h1        1 SSO      0.076000
     26 H32         2.3840    1.1420    1.6020 h1        1 SSO      0.076000
     27 H5          3.3950   -1.1030   -1.8150 ha        1 SSO      0.092000
     28 H61         3.7010   -2.3850    1.0040 h1        1 SSO      0.024500
     29 H62         2.5890   -3.0060   -0.3030 h1        1 SSO      0.024500
     30 HO6         4.5700   -4.0840   -0.2670 ho        1 SSO      0.138000
     31 H71        -0.3180    0.1510    1.3420 h1        1 SSO      0.083000
     32 H72        -0.5840   -1.2140    0.1930 h1        1 SSO      0.083000
     33 H8         -0.6430    1.8190   -0.4440 h1        1 SSO      0.066000
     34 HO8         0.1000    0.0530   -2.0500 ho        1 SSO      0.214000
     35 H9         -2.8250   -0.4010   -0.4340 h1        1 SSO      0.079000
     36 H101       -4.3120    1.0870   -1.4780 h1        1 SSO      0.069000
     37 H102       -2.7560    1.5190   -2.3520 h1        1 SSO      0.069000
     38 H10        -3.6470    2.9000   -0.0600 ho        1 SSO      0.233000
@<TRIPOS>BOND
     1    1    2 1   
     2    1    3 1   
     3    1    7 1   
     4    1   21 1   
     5    2   22 1   
     6    3    4 1   
     7    3    5 1   
     8    3   23 1   
     9    4   24 1   
    10    5    6 1   
    11    5   25 1   
    12    5   26 1   
    13    6   10 1   
    14    7    8 1   
    15    7   27 1   
    16    8    9 1   
    17    8   28 1   
    18    8   29 1   
    19    9   30 1   
    20   10   11 1   
    21   10   31 1   
    22   10   32 1   
    23   11   12 1   
    24   11   13 1   
    25   11   33 1   
    26   12   34 1   
    27   13   14 1   
    28   13   16 1   
    29   13   35 1   
    30   14   15 1   
    31   14   36 1   
    32   14   37 1   
    33   15   38 1   
    34   16   17 1   
    35   17   18 1   
    36   17   19 1   
    37   17   20 1   
@<TRIPOS>SUBSTRUCTURE
     1 SSO         1 TEMP              0 ****  ****    0 ROOT
