@<TRIPOS>MOLECULE
SSP
   22    21     1     0     0
SMALL
bcc


@<TRIPOS>ATOM
      1 S1          3.4240   -1.0720    2.9780 ss        1 SSP     -0.182100
      2 S2          4.3570   -0.7760    1.1170 ss        1 SSP     -0.182100
      3 CA1        -0.4830   -1.5280    3.7760 c3        1 SSP     -0.091100
      4 CB1         1.0160   -1.4770    3.9340 c3        1 SSP     -0.073400
      5 CG1         1.6860   -1.1230    2.6300 c3        1 SSP     -0.012300
      6 CA2         5.5760    2.6630   -0.5560 c3        1 SSP     -0.091100
      7 CB2         5.3560    1.1930   -0.2980 c3        1 SSP     -0.073400
      8 CG2         4.5600    0.9790    0.9650 c3        1 SSP     -0.012300
      9 HA11       -0.7740   -2.2940    3.0170 hc        1 SSP      0.037033
     10 HA12       -0.9620   -1.7940    4.7490 hc        1 SSP      0.037033
     11 HA13       -0.8800   -0.5370    3.4450 hc        1 SSP      0.037033
     12 HB11        1.3900   -2.4740    4.2930 hc        1 SSP      0.056200
     13 HB12        1.2860   -0.7180    4.7170 hc        1 SSP      0.056200
     14 HG11        1.4600   -1.8880    1.8490 h1        1 SSP      0.067200
     15 HG12        1.3290   -0.1340    2.2580 h1        1 SSP      0.067200
     16 HA21        6.1330    3.1330    0.2890 hc        1 SSP      0.037033
     17 HA22        6.1680    2.8020   -1.4920 hc        1 SSP      0.037033
     18 HA23        4.6000    3.1930   -0.6720 hc        1 SSP      0.037033
     19 HB21        6.3480    0.6730   -0.2120 hc        1 SSP      0.056200
     20 HB22        4.8140    0.7350   -1.1690 hc        1 SSP      0.056200
     21 HG21        5.1010    1.3930    1.8490 h1        1 SSP      0.067200
     22 HG22        3.5680    1.4860    0.8980 h1        1 SSP      0.067200
@<TRIPOS>BOND
     1    1    2 1   
     2    1    5 1   
     3    2    8 1   
     4    3    4 1   
     5    3    9 1   
     6    3   10 1   
     7    3   11 1   
     8    4    5 1   
     9    4   12 1   
    10    4   13 1   
    11    5   14 1   
    12    5   15 1   
    13    6    7 1   
    14    6   16 1   
    15    6   17 1   
    16    6   18 1   
    17    7    8 1   
    18    7   19 1   
    19    7   20 1   
    20    8   21 1   
    21    8   22 1   
@<TRIPOS>SUBSTRUCTURE
     1 SSP         1 TEMP              0 ****  ****    0 ROOT
