@<TRIPOS>MOLECULE
SSP
   22    21     1     0     0
SMALL
bcc


@<TRIPOS>ATOM
      1 S1         -0.0210   -0.1510    0.2370 ss        1 SSP     -0.182100
      2 S2          2.0790   -0.2300    0.1540 ss        1 SSP     -0.182100
      3 CA1        -2.3890    0.1620    3.4620 c3        1 SSP     -0.091100
      4 CB1        -1.9140    0.1190    2.0310 c3        1 SSP     -0.073400
      5 CG1        -0.4210   -0.0860    1.9640 c3        1 SSP     -0.012300
      6 CA2         4.4540   -3.4500   -0.1680 c3        1 SSP     -0.091100
      7 CB2         3.9760   -2.0200   -0.1220 c3        1 SSP     -0.073400
      8 CG2         2.4830   -1.9550    0.0860 c3        1 SSP     -0.012300
      9 HA11       -1.8980    0.9980    4.0160 hc        1 SSP      0.037033
     10 HA12       -2.1520   -0.7950    3.9870 hc        1 SSP      0.037033
     11 HA13       -3.4950    0.3180    3.4940 hc        1 SSP      0.037033
     12 HB11       -2.4360   -0.7130    1.4870 hc        1 SSP      0.056200
     13 HB12       -2.1870    1.0790    1.5150 hc        1 SSP      0.056200
     14 HG11        0.1170    0.7540    2.4650 h1        1 SSP      0.067200
     15 HG12       -0.1290   -1.0360    2.4720 h1        1 SSP      0.067200
     16 HA21        5.5590   -3.4790   -0.3260 hc        1 SSP      0.037033
     17 HA22        3.9620   -4.0030   -1.0040 hc        1 SSP      0.037033
     18 HA23        4.2190   -3.9760    0.7880 hc        1 SSP      0.037033
     19 HB21        4.4980   -1.4750    0.7100 hc        1 SSP      0.056200
     20 HB22        4.2460   -1.5020   -1.0810 hc        1 SSP      0.056200
     21 HG21        2.1940   -2.4650    1.0360 h1        1 SSP      0.067200
     22 HG22        1.9440   -2.4570   -0.7530 h1        1 SSP      0.067200
@<TRIPOS>BOND
     1    1    2 1   
     2    1    5 1   
     3    2    8 1   
     4    3    4 1   
     5    3    9 1   
     6    3   10 1   
     7    3   11 1   
     8    4    5 1   
     9    4   12 1   
    10    4   13 1   
    11    5   14 1   
    12    5   15 1   
    13    6    7 1   
    14    6   16 1   
    15    6   17 1   
    16    6   18 1   
    17    7    8 1   
    18    7   19 1   
    19    7   20 1   
    20    8   21 1   
    21    8   22 1   
@<TRIPOS>SUBSTRUCTURE
     1 SSP         1 TEMP              0 ****  ****    0 ROOT
