@<TRIPOS>MOLECULE
SSP
   22    21     1     0     0
SMALL
bcc


@<TRIPOS>ATOM
      1 S1         -0.0180   -0.1500    0.2320 ss        1 SSP     -0.182100
      2 S2          2.0820   -0.2280    0.1550 ss        1 SSP     -0.182100
      3 CA1        -2.3970    0.1590    3.4500 c3        1 SSP     -0.091100
      4 CB1        -1.9190    0.1110    2.0210 c3        1 SSP     -0.073400
      5 CG1        -0.4240   -0.0850    1.9570 c3        1 SSP     -0.012300
      6 CA2         4.4600   -3.4460   -0.1560 c3        1 SSP     -0.091100
      7 CB2         3.9820   -2.0160   -0.1070 c3        1 SSP     -0.073400
      8 CG2         2.4870   -1.9530    0.0890 c3        1 SSP     -0.012300
      9 HA11       -1.9130    1.0020    4.0000 hc        1 SSP      0.037033
     10 HA12       -2.1540   -0.7930    3.9810 hc        1 SSP      0.037033
     11 HA13       -3.5040    0.3070    3.4790 hc        1 SSP      0.037033
     12 HB11       -2.4340   -0.7280    1.4800 hc        1 SSP      0.056200
     13 HB12       -2.1970    1.0650    1.4980 hc        1 SSP      0.056200
     14 HG11        0.1080    0.7580    2.4580 h1        1 SSP      0.067200
     15 HG12       -0.1280   -1.0320    2.4680 h1        1 SSP      0.067200
     16 HA21        5.5660   -3.4750   -0.3040 hc        1 SSP      0.037033
     17 HA22        3.9750   -3.9950   -1.0000 hc        1 SSP      0.037033
     18 HA23        4.2160   -3.9780    0.7950 hc        1 SSP      0.037033
     19 HB21        4.4960   -1.4760    0.7330 hc        1 SSP      0.056200
     20 HB22        4.2600   -1.4930   -1.0610 hc        1 SSP      0.056200
     21 HG21        2.1900   -2.4640    1.0360 h1        1 SSP      0.067200
     22 HG22        1.9550   -2.4530   -0.7550 h1        1 SSP      0.067200
@<TRIPOS>BOND
     1    1    2 1   
     2    1    5 1   
     3    2    8 1   
     4    3    4 1   
     5    3    9 1   
     6    3   10 1   
     7    3   11 1   
     8    4    5 1   
     9    4   12 1   
    10    4   13 1   
    11    5   14 1   
    12    5   15 1   
    13    6    7 1   
    14    6   16 1   
    15    6   17 1   
    16    6   18 1   
    17    7    8 1   
    18    7   19 1   
    19    7   20 1   
    20    8   21 1   
    21    8   22 1   
@<TRIPOS>SUBSTRUCTURE
     1 SSP         1 TEMP              0 ****  ****    0 ROOT
