@<TRIPOS>MOLECULE
SSP
   22    21     1     0     0
SMALL
bcc


@<TRIPOS>ATOM
      1 S1         -1.0250    0.0270   -0.0010 ss        1 SSP     -0.182100
      2 S2          1.0250    0.0270   -0.0010 ss        1 SSP     -0.182100
      3 CA1        -3.6330    0.0740    3.0970 c3        1 SSP     -0.091100
      4 CB1        -3.1280    0.0810    1.6710 c3        1 SSP     -0.073400
      5 CG1        -1.6160    0.0270    1.6710 c3        1 SSP     -0.012300
      6 CA2         3.6330   -0.0980   -3.0970 c3        1 SSP     -0.091100
      7 CB2         3.1280   -0.0120   -1.6730 c3        1 SSP     -0.073400
      8 CG2         1.6160   -0.0650   -1.6700 c3        1 SSP     -0.012300
      9 HA11       -4.6080    0.1110    3.0980 hc        1 SSP      0.037033
     10 HA12       -3.3370   -0.7420    3.5430 hc        1 SSP      0.037033
     11 HA13       -3.2780    0.8500    3.5720 hc        1 SSP      0.037033
     12 HB11       -3.4810   -0.6960    1.1970 hc        1 SSP      0.056200
     13 HB12       -3.4240    0.8970    1.2250 hc        1 SSP      0.056200
     14 HG11       -1.2620    0.8060    2.1410 h1        1 SSP      0.067200
     15 HG12       -1.3190   -0.7870    2.1210 h1        1 SSP      0.067200
     16 HA21        3.2780    0.6510   -3.6130 hc        1 SSP      0.037033
     17 HA22        4.6080   -0.0620   -3.0990 hc        1 SSP      0.037033
     18 HA23        3.3370   -0.9380   -3.4970 hc        1 SSP      0.037033
     19 HB21        3.4810   -0.7620   -1.1570 hc        1 SSP      0.056200
     20 HB22        3.4250    0.8270   -1.2730 hc        1 SSP      0.056200
     21 HG21        1.2630    0.6870   -2.1820 h1        1 SSP      0.067200
     22 HG22        1.3190   -0.9030   -2.0740 h1        1 SSP      0.067200
@<TRIPOS>BOND
     1    1    2 1   
     2    1    5 1   
     3    2    8 1   
     4    3    4 1   
     5    3    9 1   
     6    3   10 1   
     7    3   11 1   
     8    4    5 1   
     9    4   12 1   
    10    4   13 1   
    11    5   14 1   
    12    5   15 1   
    13    6    7 1   
    14    6   16 1   
    15    6   17 1   
    16    6   18 1   
    17    7    8 1   
    18    7   19 1   
    19    7   20 1   
    20    8   21 1   
    21    8   22 1   
@<TRIPOS>SUBSTRUCTURE
     1 SSP         1 TEMP              0 ****  ****    0 ROOT
