@<TRIPOS>MOLECULE
SSR
   62    66     1     0     0
SMALL
bcc


@<TRIPOS>ATOM
      1 C1          3.9470    2.3400    0.9600 ca        1 SSR     -0.136000
      2 C2          3.6820    1.0070    0.7190 ca        1 SSR     -0.106000
      3 C3          2.4520    0.6750    0.1300 ca        1 SSR     -0.069200
      4 C4          1.4800    1.6850   -0.2150 ca        1 SSR     -0.025800
      5 C5          1.7880    3.0400   -0.0200 ca        1 SSR     -0.121300
      6 C6          3.0110    3.3380    0.5950 ca        1 SSR      0.108100
      7 N9          1.9320   -0.5850   -0.2250 na        1 SSR     -0.006500
      8 C10         0.6600   -0.3950   -0.7860 cc        1 SSR      0.020700
      9 C11         0.3460    0.9730   -0.7630 cd        1 SSR     -0.205400
     10 C12         0.8770    4.1110   -0.4800 c3        1 SSR     -0.054800
     11 O16         3.4220    4.6240    0.8820 oh        1 SSR     -0.503100
     12 C17        -0.9240    1.5210   -1.2740 c         1 SSR      0.707300
     13 N18        -1.8030    2.1350   -0.3900 n         1 SSR     -0.464800
     14 C19        -3.0950    2.5930   -0.8540 c3        1 SSR      0.051500
     15 C20        -4.2780    2.0010   -0.0540 c3        1 SSR      0.129300
     16 N21        -4.1260    2.0520    1.3860 n3        1 SSR     -0.793200
     17 C22        -2.8370    1.5430    1.8100 c3        1 SSR      0.129300
     18 C23        -1.6210    2.1140    1.0420 c3        1 SSR      0.051500
     19 O32        -1.2160    1.4450   -2.4880 o         1 SSR     -0.619100
     20 C35         2.6590   -1.7970   -0.1650 ca        1 SSR     -0.002200
     21 C36         3.0830   -2.3040    1.0820 ca        1 SSR     -0.130500
     22 C37         3.8080   -3.4910    1.1390 ca        1 SSR     -0.121500
     23 C38         4.1150   -4.1910   -0.0270 ca        1 SSR     -0.123000
     24 C39         3.7000   -3.6940   -1.2620 ca        1 SSR     -0.121500
     25 C40         2.9820   -2.5040   -1.3420 ca        1 SSR     -0.130500
     26 C46        -0.1910   -1.4850   -1.3330 c3        1 SSR     -0.001900
     27 C47        -1.1440   -2.0570   -0.3340 ca        1 SSR     -0.060300
     28 C50        -2.5300   -2.0350   -0.5580 ca        1 SSR     -0.093300
     29 C51        -3.3760   -2.6440    0.4000 ca        1 SSR      0.119900
     30 C52        -2.8490   -3.2490    1.5550 ca        1 SSR     -0.161000
     31 C53        -1.4730   -3.2540    1.7530 ca        1 SSR     -0.112000
     32 C54        -0.6290   -2.6660    0.8160 ca        1 SSR     -0.139000
     33 C58        -3.1200   -1.4030   -1.7620 c3        1 SSR     -0.068800
     34 F62        -4.7200   -2.6510    0.2160 f         1 SSR     -0.140900
     35 H1          4.8920    2.6540    1.4280 ha        1 SSR      0.152000
     36 H2          4.4100    0.2250    0.9790 ha        1 SSR      0.144000
     37 H12         0.2270    4.4650    0.3610 hc        1 SSR      0.049033
     38 H12A        1.4510    4.9850   -0.8800 hc        1 SSR      0.049033
     39 H12B        0.2170    3.7410   -1.3050 hc        1 SSR      0.049033
     40 HO16        2.6870    5.2280    0.7060 ho        1 SSR      0.420000
     41 H19        -3.1150    3.7170   -0.7650 h1        1 SSR      0.059700
     42 H19A       -3.2260    2.3250   -1.9410 h1        1 SSR      0.059700
     43 H20        -5.2100    2.5580   -0.3440 h1        1 SSR      0.062450
     44 H20A       -4.4090    0.9200   -0.3450 h1        1 SSR      0.062450
     45 HN21       -4.2390    2.9980    1.7060 hn        1 SSR      0.348800
     46 H22        -2.6940    1.7700    2.9020 h1        1 SSR      0.062450
     47 H22A       -2.8580    0.4240    1.6840 h1        1 SSR      0.062450
     48 H23        -0.7140    1.5070    1.3130 h1        1 SSR      0.059700
     49 H23A       -1.4420    3.1760    1.3810 h1        1 SSR      0.059700
     50 H36         2.8490   -1.7600    2.0110 ha        1 SSR      0.149000
     51 H37         4.1360   -3.8780    2.1150 ha        1 SSR      0.140500
     52 H38         4.6850   -5.1310    0.0270 ha        1 SSR      0.140000
     53 H39         3.9460   -4.2410   -2.1850 ha        1 SSR      0.140500
     54 H40         2.6750   -2.1180   -2.3270 ha        1 SSR      0.149000
     55 H46        -0.7420   -1.0520   -2.2160 hc        1 SSR      0.085200
     56 H46A        0.4530   -2.3250   -1.7220 hc        1 SSR      0.085200
     57 H52        -3.5300   -3.7110    2.2830 ha        1 SSR      0.149000
     58 H53        -1.0530   -3.7270    2.6530 ha        1 SSR      0.137000
     59 H54         0.4620   -2.6820    0.9790 ha        1 SSR      0.140000
     60 H58        -2.8140   -1.9620   -2.6830 hc        1 SSR      0.058033
     61 H58A       -4.2370   -1.4000   -1.7120 hc        1 SSR      0.058033
     62 H58B       -2.7730   -0.3410   -1.8630 hc        1 SSR      0.058033
@<TRIPOS>BOND
     1    1    2 ar  
     2    1    6 ar  
     3    1   35 1   
     4    2    3 ar  
     5    2   36 1   
     6    3    4 ar  
     7    3    7 1   
     8    4    5 ar  
     9    4    9 1   
    10    5    6 ar  
    11    5   10 1   
    12    6   11 1   
    13    7    8 1   
    14    7   20 1   
    15    8    9 2   
    16    8   26 1   
    17    9   12 1   
    18   10   37 1   
    19   10   38 1   
    20   10   39 1   
    21   11   40 1   
    22   12   13 1   
    23   12   19 2   
    24   13   14 1   
    25   13   18 1   
    26   14   15 1   
    27   14   41 1   
    28   14   42 1   
    29   15   16 1   
    30   15   43 1   
    31   15   44 1   
    32   16   17 1   
    33   16   45 1   
    34   17   18 1   
    35   17   46 1   
    36   17   47 1   
    37   18   48 1   
    38   18   49 1   
    39   20   21 ar  
    40   20   25 ar  
    41   21   22 ar  
    42   21   50 1   
    43   22   23 ar  
    44   22   51 1   
    45   23   24 ar  
    46   23   52 1   
    47   24   25 ar  
    48   24   53 1   
    49   25   54 1   
    50   26   27 1   
    51   26   55 1   
    52   26   56 1   
    53   27   28 ar  
    54   27   32 ar  
    55   28   29 ar  
    56   28   33 1   
    57   29   30 ar  
    58   29   34 1   
    59   30   31 ar  
    60   30   57 1   
    61   31   32 ar  
    62   31   58 1   
    63   32   59 1   
    64   33   60 1   
    65   33   61 1   
    66   33   62 1   
@<TRIPOS>SUBSTRUCTURE
     1 SSR         1 TEMP              0 ****  ****    0 ROOT
