@<TRIPOS>MOLECULE
SSR
   62    66     1     0     0
SMALL
bcc


@<TRIPOS>ATOM
      1 C1          0.0290   -0.0130   -0.0440 ca        1 SSR     -0.188000
      2 C2          1.4110    0.0630   -0.0430 ca        1 SSR     -0.104000
      3 C3          2.0660    0.0810    1.1960 ca        1 SSR     -0.065200
      4 C4          1.3330    0.0380    2.4410 ca        1 SSR     -0.033800
      5 C5         -0.0630   -0.0790    2.4240 ca        1 SSR     -0.058300
      6 C6         -0.6900   -0.0870    1.1680 ca        1 SSR      0.098100
      7 N9          3.4430    0.1330    1.4900 na        1 SSR     -0.010500
      8 C10         3.5960    0.1090    2.8870 cc        1 SSR      0.022700
      9 C11         2.3300    0.0850    3.4900 cd        1 SSR     -0.202400
     10 C12        -0.8560   -0.2120    3.6650 c3        1 SSR     -0.046800
     11 O16        -2.0690   -0.1740    1.1690 oh        1 SSR     -0.499100
     12 C17         2.1220    0.0430    4.9490 c         1 SSR      0.707300
     13 N18         1.4760    1.1040    5.5750 n         1 SSR     -0.460800
     14 C19         1.3490    1.1220    7.0170 c3        1 SSR      0.049500
     15 C20         2.0050    2.3600    7.6720 c3        1 SSR      0.127800
     16 N21         1.6820    3.6260    7.0440 n7        1 SSR     -0.793200
     17 C22         1.8570    3.5750    5.6060 c3        1 SSR      0.127800
     18 C23         1.2030    2.3570    4.9110 c3        1 SSR      0.049500
     19 O32         2.5100   -0.9360    5.6240 o         1 SSR     -0.619100
     20 C35         4.4710    0.0390    0.5250 ca        1 SSR     -0.001200
     21 C36         4.6330    1.0620   -0.4340 ca        1 SSR     -0.130500
     22 C37         5.6410    0.9640   -1.3900 ca        1 SSR     -0.121500
     23 C38         6.4980   -0.1350   -1.4070 ca        1 SSR     -0.124000
     24 C39         6.3420   -1.1490   -0.4640 ca        1 SSR     -0.121500
     25 C40         5.3370   -1.0750    0.4960 ca        1 SSR     -0.130500
     26 C46         4.9070    0.0910    3.5880 c3        1 SSR     -0.001900
     27 C47         5.4120    1.4500    3.9460 ca        1 SSR     -0.060300
     28 C50         5.6750    1.8000    5.2810 ca        1 SSR     -0.093300
     29 C51         6.2050    3.0840    5.5470 ca        1 SSR      0.120900
     30 C52         6.4570    3.9970    4.5080 ca        1 SSR     -0.161000
     31 C53         6.1850    3.6280    3.1960 ca        1 SSR     -0.112000
     32 C54         5.6700    2.3650    2.9170 ca        1 SSR     -0.139000
     33 C58         5.4180    0.8630    6.4000 c3        1 SSR     -0.068800
     34 F62         6.4820    3.4560    6.8220 f         1 SSR     -0.139900
     35 H1         -0.5180   -0.0270   -0.9980 ha        1 SSR      0.134000
     36 H2          1.9800    0.1030   -0.9830 ha        1 SSR      0.142000
     37 H12        -1.0820    0.8000    4.0890 hc        1 SSR      0.052700
     38 H12A       -1.8270   -0.7280    3.4580 hc        1 SSR      0.052700
     39 H12B       -0.2920   -0.8000    4.4310 hc        1 SSR      0.052700
     40 HO16       -2.3590   -0.2690    0.2510 ho        1 SSR      0.416000
     41 H19         0.2490    1.1130    7.2630 h1        1 SSR      0.061700
     42 H19A        1.8150    0.1950    7.4540 h1        1 SSR      0.061700
     43 H20         1.6880    2.3940    8.7500 h1        1 SSR      0.061950
     44 H20A        3.1250    2.2390    7.6380 h1        1 SSR      0.061950
     45 HN21        0.7340    3.8800    7.2620 hn        1 SSR      0.348800
     46 H22         2.9640    3.5660    5.4000 h1        1 SSR      0.061950
     47 H22A        1.4230    4.5070    5.1510 h1        1 SSR      0.061950
     48 H23         1.5570    2.3210    3.8440 h1        1 SSR      0.061700
     49 H23A        0.0830    2.5030    4.9010 h1        1 SSR      0.061700
     50 H36         3.9620    1.9350   -0.4330 ha        1 SSR      0.149000
     51 H37         5.7590    1.7660   -2.1350 ha        1 SSR      0.140000
     52 H38         7.2940   -0.2020   -2.1640 ha        1 SSR      0.139000
     53 H39         7.0140   -2.0210   -0.4770 ha        1 SSR      0.140000
     54 H40         5.2170   -1.8920    1.2250 ha        1 SSR      0.149000
     55 H46         5.6850   -0.4130    2.9470 hc        1 SSR      0.085200
     56 H46A        4.7720   -0.5470    4.5080 hc        1 SSR      0.085200
     57 H52         6.8660    4.9900    4.7460 ha        1 SSR      0.149000
     58 H53         6.3800    4.3360    2.3770 ha        1 SSR      0.137000
     59 H54         5.4640    2.0780    1.8730 ha        1 SSR      0.140000
     60 H58         5.5830    1.3600    7.3880 hc        1 SSR      0.058700
     61 H58A        6.1050   -0.0180    6.3330 hc        1 SSR      0.058700
     62 H58B        4.3610    0.4890    6.3720 hc        1 SSR      0.058700
@<TRIPOS>BOND
     1    1    2 ar  
     2    1    6 ar  
     3    1   35 1   
     4    2    3 ar  
     5    2   36 1   
     6    3    4 ar  
     7    3    7 1   
     8    4    5 ar  
     9    4    9 1   
    10    5    6 ar  
    11    5   10 1   
    12    6   11 1   
    13    7    8 1   
    14    7   20 1   
    15    8    9 2   
    16    8   26 1   
    17    9   12 1   
    18   10   37 1   
    19   10   38 1   
    20   10   39 1   
    21   11   40 1   
    22   12   13 1   
    23   12   19 2   
    24   13   14 1   
    25   13   18 1   
    26   14   15 1   
    27   14   41 1   
    28   14   42 1   
    29   15   16 1   
    30   15   43 1   
    31   15   44 1   
    32   16   17 1   
    33   16   45 1   
    34   17   18 1   
    35   17   46 1   
    36   17   47 1   
    37   18   48 1   
    38   18   49 1   
    39   20   21 ar  
    40   20   25 ar  
    41   21   22 ar  
    42   21   50 1   
    43   22   23 ar  
    44   22   51 1   
    45   23   24 ar  
    46   23   52 1   
    47   24   25 ar  
    48   24   53 1   
    49   25   54 1   
    50   26   27 1   
    51   26   55 1   
    52   26   56 1   
    53   27   28 ar  
    54   27   32 ar  
    55   28   29 ar  
    56   28   33 1   
    57   29   30 ar  
    58   29   34 1   
    59   30   31 ar  
    60   30   57 1   
    61   31   32 ar  
    62   31   58 1   
    63   32   59 1   
    64   33   60 1   
    65   33   61 1   
    66   33   62 1   
@<TRIPOS>SUBSTRUCTURE
     1 SSR         1 TEMP              0 ****  ****    0 ROOT
