@<TRIPOS>MOLECULE
SSR
   62    66     1     0     0
SMALL
bcc


@<TRIPOS>ATOM
      1 C1          0.0270   -0.0120   -0.0430 ca        1 SSR     -0.188000
      2 C2          1.4090    0.0660   -0.0440 ca        1 SSR     -0.104000
      3 C3          2.0650    0.0840    1.1940 ca        1 SSR     -0.065200
      4 C4          1.3340    0.0380    2.4400 ca        1 SSR     -0.033800
      5 C5         -0.0620   -0.0800    2.4250 ca        1 SSR     -0.058300
      6 C6         -0.6910   -0.0880    1.1690 ca        1 SSR      0.098100
      7 N9          3.4420    0.1370    1.4880 na        1 SSR     -0.010500
      8 C10         3.5970    0.1120    2.8840 cc        1 SSR      0.022700
      9 C11         2.3310    0.0850    3.4880 cd        1 SSR     -0.202400
     10 C12        -0.8540   -0.2160    3.6660 c3        1 SSR     -0.046800
     11 O16        -2.0690   -0.1760    1.1710 oh        1 SSR     -0.499100
     12 C17         2.1250    0.0420    4.9470 c         1 SSR      0.707300
     13 N18         1.4780    1.1000    5.5750 n         1 SSR     -0.460800
     14 C19         1.3530    1.1170    7.0170 c3        1 SSR      0.049500
     15 C20         2.0080    2.3550    7.6730 c3        1 SSR      0.127800
     16 N21         1.6830    3.6210    7.0470 n3        1 SSR     -0.793200
     17 C22         1.8560    3.5720    5.6090 c3        1 SSR      0.127800
     18 C23         1.2030    2.3540    4.9130 c3        1 SSR      0.049500
     19 O32         2.5150   -0.9380    5.6210 o         1 SSR     -0.619100
     20 C35         4.4700    0.0450    0.5210 ca        1 SSR     -0.001200
     21 C36         4.6290    1.0690   -0.4370 ca        1 SSR     -0.130500
     22 C37         5.6360    0.9740   -1.3940 ca        1 SSR     -0.121500
     23 C38         6.4950   -0.1230   -1.4140 ca        1 SSR     -0.124000
     24 C39         6.3420   -1.1390   -0.4710 ca        1 SSR     -0.121500
     25 C40         5.3370   -1.0680    0.4900 ca        1 SSR     -0.130500
     26 C46         4.9090    0.0930    3.5840 c3        1 SSR     -0.001900
     27 C47         5.4120    1.4540    3.9430 ca        1 SSR     -0.060300
     28 C50         5.6760    1.8010    5.2780 ca        1 SSR     -0.093300
     29 C51         6.2050    3.0870    5.5460 ca        1 SSR      0.120900
     30 C52         6.4550    4.0010    4.5070 ca        1 SSR     -0.161000
     31 C53         6.1810    3.6320    3.1950 ca        1 SSR     -0.112000
     32 C54         5.6680    2.3700    2.9150 ca        1 SSR     -0.139000
     33 C58         5.4220    0.8630    6.3960 c3        1 SSR     -0.068800
     34 F62         6.4830    3.4570    6.8210 f         1 SSR     -0.139900
     35 H1         -0.5210   -0.0250   -0.9970 ha        1 SSR      0.134000
     36 H2          1.9770    0.1080   -0.9840 ha        1 SSR      0.142000
     37 H12        -1.0810    0.7950    4.0910 hc        1 SSR      0.052700
     38 H12A       -0.2880   -0.8040    4.4310 hc        1 SSR      0.052700
     39 H12B       -1.8250   -0.7330    3.4590 hc        1 SSR      0.052700
     40 HO16       -2.3600   -0.2710    0.2530 ho        1 SSR      0.416000
     41 H19         1.8210    0.1900    7.4520 h1        1 SSR      0.061700
     42 H19A        0.2530    1.1070    7.2650 h1        1 SSR      0.061700
     43 H20         3.1280    2.2360    7.6370 h1        1 SSR      0.061950
     44 H20A        1.6920    2.3880    8.7510 h1        1 SSR      0.061950
     45 HN21        0.7350    3.8740    7.2660 hn        1 SSR      0.348800
     46 H22         1.4210    4.5050    5.1550 h1        1 SSR      0.061950
     47 H22A        2.9630    3.5640    5.4020 h1        1 SSR      0.061950
     48 H23         1.5560    2.3200    3.8450 h1        1 SSR      0.061700
     49 H23A        0.0830    2.4990    4.9040 h1        1 SSR      0.061700
     50 H36         3.9570    1.9410   -0.4340 ha        1 SSR      0.149000
     51 H37         5.7520    1.7770   -2.1390 ha        1 SSR      0.140000
     52 H38         7.2900   -0.1890   -2.1710 ha        1 SSR      0.139000
     53 H39         7.0150   -2.0100   -0.4860 ha        1 SSR      0.140000
     54 H40         5.2200   -1.8860    1.2180 ha        1 SSR      0.149000
     55 H46         5.6870   -0.4080    2.9410 hc        1 SSR      0.085200
     56 H46A        4.7750   -0.5450    4.5030 hc        1 SSR      0.085200
     57 H52         6.8630    4.9940    4.7460 ha        1 SSR      0.149000
     58 H53         6.3750    4.3420    2.3770 ha        1 SSR      0.137000
     59 H54         5.4610    2.0830    1.8710 ha        1 SSR      0.140000
     60 H58         4.3640    0.4880    6.3690 hc        1 SSR      0.058700
     61 H58A        6.1090   -0.0170    6.3270 hc        1 SSR      0.058700
     62 H58B        5.5870    1.3590    7.3850 hc        1 SSR      0.058700
@<TRIPOS>BOND
     1    1    2 ar  
     2    1    6 ar  
     3    1   35 1   
     4    2    3 ar  
     5    2   36 1   
     6    3    4 ar  
     7    3    7 1   
     8    4    5 ar  
     9    4    9 1   
    10    5    6 ar  
    11    5   10 1   
    12    6   11 1   
    13    7    8 1   
    14    7   20 1   
    15    8    9 2   
    16    8   26 1   
    17    9   12 1   
    18   10   37 1   
    19   10   38 1   
    20   10   39 1   
    21   11   40 1   
    22   12   13 1   
    23   12   19 2   
    24   13   14 1   
    25   13   18 1   
    26   14   15 1   
    27   14   41 1   
    28   14   42 1   
    29   15   16 1   
    30   15   43 1   
    31   15   44 1   
    32   16   17 1   
    33   16   45 1   
    34   17   18 1   
    35   17   46 1   
    36   17   47 1   
    37   18   48 1   
    38   18   49 1   
    39   20   21 ar  
    40   20   25 ar  
    41   21   22 ar  
    42   21   50 1   
    43   22   23 ar  
    44   22   51 1   
    45   23   24 ar  
    46   23   52 1   
    47   24   25 ar  
    48   24   53 1   
    49   25   54 1   
    50   26   27 1   
    51   26   55 1   
    52   26   56 1   
    53   27   28 ar  
    54   27   32 ar  
    55   28   29 ar  
    56   28   33 1   
    57   29   30 ar  
    58   29   34 1   
    59   30   31 ar  
    60   30   57 1   
    61   31   32 ar  
    62   31   58 1   
    63   32   59 1   
    64   33   60 1   
    65   33   61 1   
    66   33   62 1   
@<TRIPOS>SUBSTRUCTURE
     1 SSR         1 TEMP              0 ****  ****    0 ROOT
