@<TRIPOS>MOLECULE
SSR
   62    66     1     0     0
SMALL
bcc


@<TRIPOS>ATOM
      1 C1          0.0250   -0.0160   -0.0390 ca        1 SSR     -0.188000
      2 C2          1.4070    0.0610   -0.0410 ca        1 SSR     -0.104000
      3 C3          2.0640    0.0800    1.1970 ca        1 SSR     -0.065200
      4 C4          1.3330    0.0360    2.4430 ca        1 SSR     -0.033800
      5 C5         -0.0630   -0.0820    2.4290 ca        1 SSR     -0.058300
      6 C6         -0.6920   -0.0910    1.1740 ca        1 SSR      0.098100
      7 N9          3.4410    0.1330    1.4900 na        1 SSR     -0.010500
      8 C10         3.5960    0.1090    2.8860 cc        1 SSR      0.022700
      9 C11         2.3310    0.0840    3.4910 cd        1 SSR     -0.202400
     10 C12        -0.8540   -0.2170    3.6700 c3        1 SSR     -0.046800
     11 O16        -2.0710   -0.1790    1.1760 oh        1 SSR     -0.499100
     12 C17         2.1260    0.0410    4.9500 c         1 SSR      0.707300
     13 N18         1.4800    1.1000    5.5770 n         1 SSR     -0.460800
     14 C19         1.3550    1.1190    7.0200 c3        1 SSR      0.049500
     15 C20         2.0110    2.3570    7.6740 c3        1 SSR      0.127800
     16 N21         1.6850    3.6230    7.0470 n3        1 SSR     -0.793200
     17 C22         1.8570    3.5720    5.6090 c3        1 SSR      0.127800
     18 C23         1.2040    2.3530    4.9150 c3        1 SSR      0.049500
     19 O32         2.5160   -0.9380    5.6240 o         1 SSR     -0.619100
     20 C35         4.4690    0.0420    0.5230 ca        1 SSR     -0.001200
     21 C36         4.6270    1.0650   -0.4360 ca        1 SSR     -0.130500
     22 C37         5.6330    0.9700   -1.3930 ca        1 SSR     -0.121500
     23 C38         6.4930   -0.1270   -1.4120 ca        1 SSR     -0.124000
     24 C39         6.3410   -1.1420   -0.4690 ca        1 SSR     -0.121500
     25 C40         5.3360   -1.0710    0.4920 ca        1 SSR     -0.130500
     26 C46         4.9090    0.0920    3.5860 c3        1 SSR     -0.001900
     27 C47         5.4120    1.4520    3.9430 ca        1 SSR     -0.060300
     28 C50         5.6760    1.8010    5.2780 ca        1 SSR     -0.093300
     29 C51         6.2060    3.0860    5.5450 ca        1 SSR      0.120900
     30 C52         6.4540    4.0000    4.5060 ca        1 SSR     -0.161000
     31 C53         6.1800    3.6310    3.1940 ca        1 SSR     -0.112000
     32 C54         5.6670    2.3680    2.9150 ca        1 SSR     -0.139000
     33 C58         5.4230    0.8630    6.3970 c3        1 SSR     -0.068800
     34 F62         6.4840    3.4570    6.8200 f         1 SSR     -0.139900
     35 H1         -0.5230   -0.0300   -0.9930 ha        1 SSR      0.134000
     36 H2          1.9750    0.1030   -0.9810 ha        1 SSR      0.142000
     37 H12        -1.0800    0.7940    4.0950 hc        1 SSR      0.052700
     38 H12A       -1.8250   -0.7340    3.4650 hc        1 SSR      0.052700
     39 H12B       -0.2880   -0.8050    4.4360 hc        1 SSR      0.052700
     40 HO16       -2.3620   -0.2740    0.2580 ho        1 SSR      0.416000
     41 H19         1.8230    0.1910    7.4550 h1        1 SSR      0.061700
     42 H19A        0.2550    1.1080    7.2690 h1        1 SSR      0.061700
     43 H20         1.6960    2.3910    8.7520 h1        1 SSR      0.061950
     44 H20A        3.1310    2.2370    7.6380 h1        1 SSR      0.061950
     45 HN21        0.7370    3.8760    7.2670 hn        1 SSR      0.348800
     46 H22         2.9640    3.5640    5.4010 h1        1 SSR      0.061950
     47 H22A        1.4220    4.5040    5.1550 h1        1 SSR      0.061950
     48 H23         1.5560    2.3190    3.8470 h1        1 SSR      0.061700
     49 H23A        0.0840    2.4980    4.9070 h1        1 SSR      0.061700
     50 H36         3.9540    1.9370   -0.4330 ha        1 SSR      0.149000
     51 H37         5.7490    1.7720   -2.1380 ha        1 SSR      0.140000
     52 H38         7.2880   -0.1920   -2.1700 ha        1 SSR      0.139000
     53 H39         7.0140   -2.0120   -0.4830 ha        1 SSR      0.140000
     54 H40         5.2200   -1.8880    1.2210 ha        1 SSR      0.149000
     55 H46         4.7750   -0.5460    4.5050 hc        1 SSR      0.085200
     56 H46A        5.6860   -0.4100    2.9430 hc        1 SSR      0.085200
     57 H52         6.8620    4.9930    4.7440 ha        1 SSR      0.149000
     58 H53         6.3730    4.3400    2.3760 ha        1 SSR      0.137000
     59 H54         5.4600    2.0810    1.8710 ha        1 SSR      0.140000
     60 H58         6.1110   -0.0180    6.3280 hc        1 SSR      0.058700
     61 H58A        5.5900    1.3590    7.3860 hc        1 SSR      0.058700
     62 H58B        4.3660    0.4880    6.3710 hc        1 SSR      0.058700
@<TRIPOS>BOND
     1    1    2 ar  
     2    1    6 ar  
     3    1   35 1   
     4    2    3 ar  
     5    2   36 1   
     6    3    4 ar  
     7    3    7 1   
     8    4    5 ar  
     9    4    9 1   
    10    5    6 ar  
    11    5   10 1   
    12    6   11 1   
    13    7    8 1   
    14    7   20 1   
    15    8    9 2   
    16    8   26 1   
    17    9   12 1   
    18   10   37 1   
    19   10   38 1   
    20   10   39 1   
    21   11   40 1   
    22   12   13 1   
    23   12   19 2   
    24   13   14 1   
    25   13   18 1   
    26   14   15 1   
    27   14   41 1   
    28   14   42 1   
    29   15   16 1   
    30   15   43 1   
    31   15   44 1   
    32   16   17 1   
    33   16   45 1   
    34   17   18 1   
    35   17   46 1   
    36   17   47 1   
    37   18   48 1   
    38   18   49 1   
    39   20   21 ar  
    40   20   25 ar  
    41   21   22 ar  
    42   21   50 1   
    43   22   23 ar  
    44   22   51 1   
    45   23   24 ar  
    46   23   52 1   
    47   24   25 ar  
    48   24   53 1   
    49   25   54 1   
    50   26   27 1   
    51   26   55 1   
    52   26   56 1   
    53   27   28 ar  
    54   27   32 ar  
    55   28   29 ar  
    56   28   33 1   
    57   29   30 ar  
    58   29   34 1   
    59   30   31 ar  
    60   30   57 1   
    61   31   32 ar  
    62   31   58 1   
    63   32   59 1   
    64   33   60 1   
    65   33   61 1   
    66   33   62 1   
@<TRIPOS>SUBSTRUCTURE
     1 SSR         1 TEMP              0 ****  ****    0 ROOT
