@<TRIPOS>MOLECULE
SSS
   45    42     1     0     0
SMALL
bcc


@<TRIPOS>ATOM
      1 PA         -1.8050   -0.1380    6.5550 p3        1 SSS      2.520000
      2 O1A        -3.0720    0.4350    5.9650 os        1 SSS     -1.252000
      3 O2A        -0.7440    0.9340    6.6030 o         1 SSS     -1.248500
      4 O3A        -2.0820   -0.6370    7.9560 o         1 SSS     -1.248500
      5 O5'        -1.2960   -1.3520    5.6470 os        1 SSS     -0.733000
      6 C5'        -0.8300   -1.0680    4.3370 c3        1 SSS      0.071000
      7 C4'        -0.8090   -2.3650    3.5080 c3        1 SSS     -0.052000
      8 O4'        -1.3550   -2.0930    2.0560 os        1 SSS     -0.303000
      9 C1'        -0.1300   -2.1350    1.1440 c3        1 SSS      0.124000
     10 N9         -0.1090   -0.9790    0.2820 n3        1 SSS     -0.150000
     11 C4          0.3620   -0.9400   -0.9780 c1        1 SSS      0.008000
     12 O6          0.8010   -0.0290   -3.7380 o         1 SSS     -0.464000
     13 N3          1.1490   -1.8990   -1.6980 n2        1 SSS     -0.286000
     14 C6          0.3570    0.7560   -2.9280 c1        1 SSS      0.377000
     15 N6          0.1150    2.1320   -3.3110 n2        1 SSS     -0.283000
     16 C61         0.0180    2.4830   -4.6970 c3        1 SSS     -0.039000
     17 C62         1.2430    2.0100   -5.4180 c2        1 SSS      0.315000
     18 C63        -0.0980    3.9930   -4.8310 c3        1 SSS     -0.195000
     19 C64        -0.2640    4.3630   -6.3110 c2        1 SSS      0.324000
     20 O65         2.3820    2.3700   -5.0250 o         1 SSS     -0.605000
     21 O66         1.1310    1.2920   -6.4460 o         1 SSS     -0.605000
     22 O67        -1.4030    4.2910   -6.8550 o         1 SSS     -0.619500
     23 O68         0.7200    4.8110   -6.9640 o         1 SSS     -0.619500
     24 C5          0.1180    0.3100   -1.4840 c2        1 SSS     -0.187000
     25 N7         -0.5000    1.0260   -0.5330 n2        1 SSS     -0.133000
     26 C8         -0.6440    0.2330    0.5660 c1        1 SSS     -0.096000
     27 C2'         0.9080   -2.1180    1.9610 c3        1 SSS     -0.010000
     28 O2'         1.3440   -0.7530    2.1830 oh        1 SSS     -0.322000
     29 C3'         0.4000   -2.7690    3.3440 c3        1 SSS      0.010000
     30 O3'         0.4330   -4.2340    3.2530 oh        1 SSS     -0.407000
     31 H5'1       -1.4290   -0.4170    3.9110 h1        1 SSS      0.050500
     32 H5'2        0.0740   -0.6970    4.3860 h1        1 SSS      0.050500
     33 H4'        -1.3400   -3.0570    3.9450 h1        1 SSS      0.096000
     34 H1'        -0.1300   -2.9560    0.6120 h2        1 SSS      0.097000
     35 H3N1        1.1860   -2.7740   -1.4110 hn        1 SSS      0.177500
     36 H3N2        1.5910   -1.6500   -2.4590 hn        1 SSS      0.177500
     37 H6          0.0590    2.7790   -2.6720 hn        1 SSS      0.233000
     38 H61        -0.7730    2.0590   -5.0850 h1        1 SSS      0.138000
     39 H631       -0.8750    4.3070   -4.3270 hc        1 SSS      0.068000
     40 H632        0.7120    4.4150   -4.4790 hc        1 SSS      0.068000
     41 H8         -1.0600    0.4930    1.4110 DU        1 SSS      0.197000
     42 H2'         1.6400   -2.6490    1.5880 h1        1 SSS      0.128000
     43 HA          2.2080   -0.7470    2.3820 ho        1 SSS      0.201000
     44 H3'         0.9590   -2.4650    4.0850 h1        1 SSS      0.123000
     45 HB          0.8370   -4.5670    3.9710 ho        1 SSS      0.307000
@<TRIPOS>BOND
     1    1    3 1   
     2    1    4 1   
     3    1    5 1   
     4    5    6 1   
     5    6    7 1   
     6    6   31 1   
     7    6   32 1   
     8    7    8 1   
     9    7   29 1   
    10    7   33 1   
    11    8    9 1   
    12    9   10 1   
    13    9   27 1   
    14    9   34 1   
    15   10   11 1   
    16   10   26 1   
    17   11   24 1   
    18   12   14 1   
    19   13   35 1   
    20   13   36 1   
    21   14   24 1   
    22   15   16 1   
    23   15   37 1   
    24   16   17 1   
    25   16   18 1   
    26   16   38 1   
    27   17   20 1   
    28   17   21 1   
    29   18   19 1   
    30   18   39 1   
    31   18   40 1   
    32   19   22 1   
    33   19   23 1   
    34   24   25 1   
    35   25   26 1   
    36   27   28 1   
    37   27   29 1   
    38   27   42 1   
    39   28   43 1   
    40   29   30 1   
    41   29   44 1   
    42   30   45 1   
@<TRIPOS>SUBSTRUCTURE
     1 SSS         1 TEMP              0 ****  ****    0 ROOT
