@<TRIPOS>MOLECULE
SSS
   46    46     1     0     0
SMALL
bcc


@<TRIPOS>ATOM
      1 PA        113.6830  -26.2890 -124.5310 p5        1 SSS      1.907000
      2 O1A       113.6880  -27.7620 -124.3900 o         1 SSS     -0.847500
      3 O2A       113.0520  -25.8870 -125.9750 oh        1 SSS     -0.836000
      4 O3A       114.8600  -25.4450 -124.2430 o         1 SSS     -0.847500
      5 O5'       112.4090  -25.6980 -123.6430 os        1 SSS     -0.758000
      6 C5'       111.3460  -26.5670 -123.4020 c3        1 SSS      0.035000
      7 C4'       110.0010  -25.9840 -123.8410 c3        1 SSS     -0.065000
      8 O4'       110.0300  -25.7400 -125.2630 os        1 SSS     -0.260000
      9 C1'       109.4030  -24.5240 -125.5870 c2        1 SSS     -0.283000
     10 N9        108.0540  -24.6980 -126.0760 n3        1 SSS     -0.114000
     11 C4        107.8430  -25.4110 -127.2740 c2        1 SSS      0.188000
     12 O6        106.3730  -26.3130 -129.7660 o         1 SSS     -0.441000
     13 N3        108.7360  -26.2580 -127.8680 n3        1 SSS     -0.308000
     14 N6       -288.4090   82.8130  325.3580 n3        1 SSS     -0.204000
     15 C61      -289.5610   82.6400  325.9580 c2        1 SSS      0.107000
     16 C62      -290.0520   83.7330  326.9890 c2        1 SSS      0.343000
     17 C63      -290.4250   81.4570  325.7330 c3        1 SSS     -0.265000
     18 C64      -290.1140   80.5770  324.5060 c2        1 SSS      0.329000
     19 O65      -289.3100   84.7410  327.0960 o         1 SSS     -0.501500
     20 O66      -291.1110   83.4780  327.5950 o         1 SSS     -0.501500
     21 O67      -288.9110   80.4790  324.1030 o         1 SSS     -0.564500
     22 O68      -291.0790   79.9750  323.9740 o         1 SSS     -0.564500
     23 C5        106.4900  -25.1480 -127.7100 c2        1 SSS     -0.400000
     24 N7        105.9500  -24.2850 -126.7090 n3        1 SSS     -0.242000
     25 C8        106.8830  -24.0210 -125.7380 c1        1 SSS     -0.081000
     26 C2'       109.5300  -23.6340 -124.3490 c3        1 SSS      0.024000
     27 O2'       110.7200  -22.8700 -124.4110 oh        1 SSS     -0.347000
     28 C3'       109.6190  -24.6480 -123.1680 c3        1 SSS     -0.022000
     29 O3'       110.5040  -24.2410 -122.1500 oh        1 SSS     -0.353000
     30 H5'1      109.2050  -26.7520 -123.6440 h1        1 SSS      0.051000
     31 H5'2      111.5190  -27.5450 -123.9320 h1        1 SSS      0.067000
     32 H4'       111.2800  -26.7460 -122.2890 h1        1 SSS      0.067000
     33 H1'       112.1260  -25.6530 -125.9510 ho        1 SSS      0.259000
     34 H3N1      109.6850  -26.1810 -127.5560 hn        1 SSS      0.231500
     35 H3N2      108.5670  -26.4360 -128.8320 hn        1 SSS      0.231500
     36 H6        104.7880  -25.2650 -129.0160 h4        1 SSS      0.030000
     37 H61      -287.8850   83.6430  325.5520 hn        1 SSS      0.268000
     38 H631     -291.4890   81.8160  325.6820 hc        1 SSS      0.143000
     39 H632     -290.3470   80.8100  326.6490 hc        1 SSS      0.143000
     40 H8        105.0350  -23.9380 -126.7460 hn        1 SSS      0.217000
     41 H2'       108.7070  -22.8920 -124.2040 h1        1 SSS      0.104000
     42 HA        111.3900  -23.4410 -124.8160 ho        1 SSS      0.221000
     43 H3'       108.6230  -24.7340 -122.6590 h1        1 SSS      0.081000
     44 HB        111.3730  -24.1200 -122.5650 ho        1 SSS      0.237000
     45 C6        105.8480  -25.5960 -128.8830 c2        1 SSS      0.254000
     46 H62      -288.0630   82.1320  324.6890 hn        1 SSS      0.268000
@<TRIPOS>BOND
     1    1    2 1   
     2    1    3 1   
     3    1    4 1   
     4    1    5 1   
     5    3   33 1   
     6    5    6 1   
     7    6    7 1   
     8    6   31 1   
     9    6   32 1   
    10    7    8 1   
    11    7   28 1   
    12    7   30 1   
    13    8    9 1   
    14    9   10 1   
    15    9   26 1   
    16   10   11 1   
    17   10   25 1   
    18   11   13 1   
    19   11   23 1   
    20   12   45 1   
    21   13   34 1   
    22   13   35 1   
    23   14   15 1   
    24   14   37 1   
    25   14   46 1   
    26   15   16 1   
    27   15   17 1   
    28   16   19 1   
    29   16   20 1   
    30   17   18 1   
    31   17   38 1   
    32   17   39 1   
    33   18   21 1   
    34   18   22 1   
    35   23   24 1   
    36   23   45 1   
    37   24   25 1   
    38   24   40 1   
    39   26   27 1   
    40   26   28 1   
    41   26   41 1   
    42   27   42 1   
    43   28   29 1   
    44   28   43 1   
    45   29   44 1   
    46   36   45 1   
@<TRIPOS>SUBSTRUCTURE
     1 SSS         1 TEMP              0 ****  ****    0 ROOT
