@<TRIPOS>MOLECULE
SSS
   45    46     1     0     0
SMALL
bcc


@<TRIPOS>ATOM
      1 PA         -0.2440   -6.1080    1.6280 p5        1 SSS      1.333900
      2 O1A         0.5450   -4.8910    1.1890 o         1 SSS     -0.935833
      3 O2A        -0.4300   -6.2330    3.1140 o         1 SSS     -0.935833
      4 O3A         0.0130   -7.3750    0.8650 o         1 SSS     -0.935833
      5 O5'        -1.8230   -5.6270    1.0880 os        1 SSS     -0.566200
      6 C5'        -2.3010   -4.4810    1.6700 c3        1 SSS      0.236400
      7 C4'        -2.2410   -3.3010    0.6720 c3        1 SSS      0.065100
      8 O4'        -3.4600   -2.5240    0.7820 os        1 SSS     -0.443600
      9 C1'        -3.1680   -1.1640    0.4170 c3        1 SSS      0.221800
     10 N9         -4.1460   -0.2810    1.0070 na        1 SSS     -0.225900
     11 C4         -4.1570    1.1290    0.9040 cc        1 SSS      0.038000
     12 O6         -4.9790    3.8650    1.3070 o         1 SSS     -0.703100
     13 N3         -3.1190    1.8880    0.3520 nh        1 SSS     -0.793200
     14 N6         -7.1700    3.2580    1.7410 n         1 SSS     -0.475900
     15 C61        -7.6800    4.5930    2.0200 c3        1 SSS     -0.010300
     16 C62        -7.9220    4.8040    3.5540 c         1 SSS      0.894600
     17 C63        -9.0250    4.8690    1.3310 c3        1 SSS     -0.166400
     18 C64        -9.0030    5.3230   -0.1280 c         1 SSS      0.905600
     19 O65        -7.6230    5.9270    4.0580 o         1 SSS     -0.871300
     20 O66        -8.4350    3.8680    4.2380 o         1 SSS     -0.871300
     21 O67        -8.1830    6.2020   -0.5270 o         1 SSS     -0.885800
     22 O68        -9.9030    4.8590   -0.9040 o         1 SSS     -0.885800
     23 C5         -5.4350    1.5510    1.3930 cd        1 SSS      0.206800
     24 N7         -6.1850    0.4280    1.7590 nd        1 SSS     -0.653000
     25 C8         -5.4080   -0.6420    1.5180 cc        1 SSS      0.382400
     26 C2'        -1.6670   -0.9130    0.7770 c3        1 SSS      0.093100
     27 O2'        -1.4710   -0.1390    1.9400 oh        1 SSS     -0.607800
     28 C3'        -1.0650   -2.3330    0.9060 c3        1 SSS      0.129100
     29 O3'        -0.0730   -2.4770   -0.0830 oh        1 SSS     -0.673800
     30 H5'1       -3.3860   -4.6240    1.9500 h1        1 SSS      0.004700
     31 H5'2       -1.7160   -4.2250    2.5970 h1        1 SSS      0.004700
     32 H4'        -2.1990   -3.7030   -0.3770 h1        1 SSS      0.063700
     33 H1'        -3.2720   -1.0850   -0.7100 h2        1 SSS      0.048700
     34 H3N1       -2.2380    1.6760    0.7830 hn        1 SSS      0.400800
     35 H3N2       -3.3450    2.8670    0.4320 hn        1 SSS      0.400800
     36 H6         -7.7560    2.5230    2.0710 hn        1 SSS      0.316500
     37 H61        -6.9260    5.3490    1.6570 h1        1 SSS      0.096700
     38 H631       -9.5080    5.7050    1.9060 hc        1 SSS      0.027700
     39 H632       -9.6930    3.9730    1.4180 hc        1 SSS      0.027700
     40 H8         -5.6570   -1.6920    1.6960 h5        1 SSS      0.064100
     41 H2'        -1.1660   -0.3290   -0.0410 h1        1 SSS      0.087700
     42 HA         -1.8490   -0.6330    2.6790 ho        1 SSS      0.411000
     43 H3'        -0.6140   -2.4890    1.9240 h1        1 SSS      0.075700
     44 HB          0.3580   -3.3470    0.0990 ho        1 SSS      0.504000
     45 C6         -5.8560    2.9780    1.5000 c         1 SSS      0.599600
@<TRIPOS>BOND
     1    1    2 1   
     2    1    3 1   
     3    1    4 1   
     4    1    5 1   
     5    5    6 1   
     6    6    7 1   
     7    6   30 1   
     8    6   31 1   
     9    7    8 1   
    10    7   28 1   
    11    7   32 1   
    12    8    9 1   
    13    9   10 1   
    14    9   26 1   
    15    9   33 1   
    16   10   11 1   
    17   10   25 1   
    18   11   13 1   
    19   11   23 2   
    20   12   45 2   
    21   13   34 1   
    22   13   35 1   
    23   14   15 1   
    24   14   36 1   
    25   14   45 1   
    26   15   16 1   
    27   15   17 1   
    28   15   37 1   
    29   16   19 1   
    30   16   20 1   
    31   17   18 1   
    32   17   38 1   
    33   17   39 1   
    34   18   21 1   
    35   18   22 1   
    36   23   24 1   
    37   23   45 1   
    38   24   25 2   
    39   25   40 1   
    40   26   27 1   
    41   26   28 1   
    42   26   41 1   
    43   27   42 1   
    44   28   29 1   
    45   28   43 1   
    46   29   44 1   
@<TRIPOS>SUBSTRUCTURE
     1 SSS         1 TEMP              0 ****  ****    0 ROOT
