@<TRIPOS>MOLECULE
SSS
   47    45     1     0     0
SMALL
bcc


@<TRIPOS>ATOM
      1 PA          0.5560    2.7550   -2.9890 p5        1 SSS      1.441800
      2 O1A        -1.0410    3.0040   -2.7680 oh        1 SSS     -0.779400
      3 O2A         1.2780    4.0270   -3.1450 o         1 SSS     -0.820500
      4 O3A         0.6380    1.5390   -3.8110 o         1 SSS     -0.820500
      5 O5'         0.8660    2.2540   -1.4040 os        1 SSS     -0.485500
      6 C5'         1.3860    3.0850   -0.4920 c2        1 SSS      0.165100
      7 C4'         0.6870    3.9650    0.2610 c2        1 SSS     -0.151100
      8 O4'        -0.6880    4.1260    0.0840 os        1 SSS     -0.332900
      9 C1'        -1.0370    5.4950    0.4340 c3        1 SSS      0.214800
     10 N9         -2.3770    5.4740    0.9460 nh        1 SSS     -0.190600
     11 C4         -3.4520    4.8800    0.2200 c2        1 SSS      0.142800
     12 O6         -6.2430    3.9730   -0.2860 o         1 SSS     -0.622100
     13 N3         -3.3870    4.3730   -1.0420 nh        1 SSS     -0.399300
     14 N6         -8.0950    7.0010    6.7870 nh        1 SSS     -0.829600
     15 C61        -8.4290    6.0560    7.7790 c2        1 SSS     -0.031000
     16 C62        -5.5450    7.1330    5.7990 c1        1 SSS      0.920000
     17 C63        -9.2790    6.2240    8.8060 ce        1 SSS     -0.262200
     18 C64       -10.1590    7.4230    9.0420 c         1 SSS      0.899800
     19 O65        -5.9190    6.5780    4.8110 o         1 SSS     -0.463000
     20 O66        -5.0980    7.6900    6.7470 o         1 SSS     -0.463000
     21 O67       -10.8560    7.4340   10.0990 o         1 SSS     -0.851800
     22 O68       -10.1900    8.3600    8.1870 o         1 SSS     -0.851800
     23 C5         -4.6050    5.0050    1.0540 ce        1 SSS     -0.407300
     24 N7         -4.1640    5.6530    2.2480 nh        1 SSS     -0.236600
     25 C8         -2.8290    5.9200    2.1960 c1        1 SSS      0.003000
     26 C2'         0.0780    6.0060    1.4000 c3        1 SSS      0.103100
     27 O2'         0.4400    7.3280    1.0900 oh        1 SSS     -0.577800
     28 C3'         1.2380    4.9860    1.2080 c3        1 SSS      0.160300
     29 O3'         2.3970    5.6340    0.7120 oh        1 SSS     -0.612800
     30 H5'1       -1.4860    1.9800   -0.2940 ha        1 SSS      0.001500
     31 H5'2        2.4620    2.9310   -0.2750 h4        1 SSS      0.116000
     32 H4'        -2.0800    1.8090   -0.5730 ha        1 SSS      0.001500
     33 H1'        -1.5370    2.1940   -2.8130 ho        1 SSS      0.433000
     34 H3N1       -1.0240    6.0960   -0.5260 h2        1 SSS      0.075700
     35 H3N2       -2.4990    4.0820   -1.4110 hn        1 SSS      0.308200
     36 H6         -6.6950    4.7350    1.5630 h4        1 SSS     -0.005800
     37 H61        -8.4430    6.6940    5.8960 hn        1 SSS      0.371300
     38 H631       -7.8560    5.1140    7.6690 h4        1 SSS      0.088000
     39 H632       -9.3740    5.4360    9.5690 ha        1 SSS      0.104000
     40 H8         -4.7770    5.8770    2.9900 hn        1 SSS      0.317700
     41 H2'        -0.2790    6.0400    2.4650 h1        1 SSS      0.119700
     42 HA          1.0090    7.3060    0.3090 ho        1 SSS      0.405000
     43 H3'         1.5440    4.5480    2.1950 h1        1 SSS      0.081700
     44 HB          2.3870    5.5630   -0.2540 ho        1 SSS      0.425000
     45 C6         -5.9310    4.5500    0.7720 c         1 SSS      0.615100
     46 H33        -4.1990    3.8790   -1.3420 hn        1 SSS      0.308200
     47 H62        -8.5050    7.8990    7.0040 hn        1 SSS      0.371300
@<TRIPOS>BOND
     1    1    2 1   
     2    1    3 1   
     3    1    4 1   
     4    1    5 1   
     5    2   33 1   
     6    5    6 1   
     7    6    7 2   
     8    6   31 1   
     9    7    8 1   
    10    7   28 1   
    11    8    9 1   
    12    9   10 1   
    13    9   26 1   
    14    9   34 1   
    15   10   11 1   
    16   10   25 2   
    17   11   13 1   
    18   11   23 2   
    19   12   45 2   
    20   13   35 1   
    21   13   46 1   
    22   14   15 1   
    23   14   37 1   
    24   14   47 1   
    25   15   17 2   
    26   15   38 1   
    27   16   19 2   
    28   16   20 2   
    29   17   18 1   
    30   17   39 1   
    31   18   21 1   
    32   18   22 1   
    33   23   24 1   
    34   23   45 1   
    35   24   25 2   
    36   24   40 1   
    37   26   27 1   
    38   26   28 1   
    39   26   41 1   
    40   27   42 1   
    41   28   29 1   
    42   28   43 1   
    43   29   44 1   
    44   30   32 1   
    45   36   45 1   
@<TRIPOS>SUBSTRUCTURE
     1 SSS         1 TEMP              0 ****  ****    0 ROOT
