@<TRIPOS>MOLECULE
SST
   22    18     1     0     0
SMALL
bcc


@<TRIPOS>ATOM
      1 O3          0.3090   -0.4080   -0.1090 oh        1 SST     -0.385000
      2 O4          2.4400    0.2350    1.7150 oh        1 SST     -0.385000
      3 O2          1.7800   -2.3530    0.0060 oh        1 SST     -0.156000
      4 C3          0.1240    0.9820   -0.2820 c3        1 SST     -0.067000
      5 C4          3.6850    0.5260    2.3170 c3        1 SST     -0.067000
      6 C2          2.4600   -1.6990   -0.8710 c1        1 SST     -0.014000
      7 C5          0.4720   -0.3910    3.1450 c1        1 SST      0.191000
      8 C1          1.9250   -1.5520   -2.2600 c3        1 SST     -0.133000
      9 H1          0.3440   -0.5810    0.8460 ho        1 SST      0.237000
     10 H3          0.9120   -2.7100   -0.3020 ho        1 SST      0.187000
     11 H4          4.2930    1.1870    1.6500 h1        1 SST      0.072000
     12 H5          0.0040   -1.4590   -2.0050 ho        1 SST      0.219000
     13 H6         -0.8800    1.2930    0.1000 h1        1 SST      0.072000
     14 H7          0.9300    1.5520    0.2460 h1        1 SST      0.072000
     15 H8          0.1850    1.1520   -1.3870 h1        1 SST      0.072000
     16 H9          3.4340    1.0590    3.2680 h1        1 SST      0.072000
     17 H10         4.2520   -0.4120    2.5390 h1        1 SST      0.072000
     18 H11         2.5700   -2.1390   -2.9700 h1        1 SST      0.124000
     19 H12         1.9500   -0.4670   -2.5450 h1        1 SST      0.124000
     20 H2          2.6130   -0.3360    0.9500 ho        1 SST      0.237000
     21 O5          1.1040   -0.1170    4.0920 o         1 SST     -0.193000
     22 O1          0.6200   -2.0900   -2.4020 oh        1 SST     -0.348000
@<TRIPOS>BOND
     1    1    4 1   
     2    1    9 1   
     3    2    5 1   
     4    2   20 1   
     5    3    6 1   
     6    3   10 1   
     7    4   13 1   
     8    4   14 1   
     9    4   15 1   
    10    5   11 1   
    11    5   16 1   
    12    5   17 1   
    13    6    8 1   
    14    7   21 1   
    15    8   18 1   
    16    8   19 1   
    17    8   22 1   
    18   12   22 1   
@<TRIPOS>SUBSTRUCTURE
     1 SST         1 TEMP              0 ****  ****    0 ROOT
