@<TRIPOS>MOLECULE
SSU
   34    35     1     0     0
SMALL
bcc


@<TRIPOS>ATOM
      1 O2'         1.6830    0.8130    2.4420 oh        1 SSU     -0.603800
      2 C2'         1.0920    0.6360    1.1750 c3        1 SSU      0.088100
      3 C1'         1.5010    1.8310    0.2510 c3        1 SSU      0.287500
      4 O4'         2.3210    1.3200   -0.8070 os        1 SSU     -0.426600
      5 C4'         2.5390   -0.0920   -0.6630 c3        1 SSU      0.076100
      6 C5'         2.1780   -0.7870   -1.9760 c3        1 SSU      0.147400
      7 O5'         3.2240   -0.5990   -2.9100 os        1 SSU     -0.578200
      8 P           2.9760    0.2120   -4.2650 p5        1 SSU      1.298200
      9 S1P         1.3730    1.1570   -4.3960 s         1 SSU     -0.569000
     10 OP2         3.3270   -0.8790   -5.3550 oh        1 SSU     -0.736900
     11 OP3         4.3880    0.9390   -4.2750 oh        1 SSU     -0.736900
     12 C3'         1.6940   -0.6200    0.5150 c3        1 SSU      0.136100
     13 O3'         2.4610   -1.4210    1.3760 oh        1 SSU     -0.573800
     14 N1          0.3550    2.5740   -0.2640 n         1 SSU     -0.400000
     15 C6          0.0610    2.7290   -1.6120 cc        1 SSU      0.050600
     16 C5         -0.9640    3.5180   -2.0290 cd        1 SSU     -0.313200
     17 C4         -1.7940    4.2500   -1.0700 c         1 SSU      0.712700
     18 O4         -2.7410    5.0010   -1.3520 o         1 SSU     -0.603500
     19 N3         -1.4690    4.0690    0.2940 n         1 SSU     -0.580500
     20 C2         -0.4190    3.2530    0.7160 c         1 SSU      0.809500
     21 O2         -0.1630    3.1010    1.9370 o         1 SSU     -0.689500
     22 HO2'        1.1900    1.5260    2.8800 ho        1 SSU      0.452000
     23 H2'        -0.0210    0.5400    1.2740 h1        1 SSU      0.082700
     24 H1'         2.1520    2.5590    0.8280 h2        1 SSU      0.098700
     25 H4'         3.6380   -0.2200   -0.4540 h1        1 SSU      0.091700
     26 H5'         1.2180   -0.3760   -2.4030 h1        1 SSU      0.088700
     27 H5''        2.1040   -1.8950   -1.7920 h1        1 SSU      0.088700
     28 H2P         4.2550   -1.0320   -5.5430 ho        1 SSU      0.505000
     29 H3P         4.8360    1.1100   -3.4470 ho        1 SSU      0.505000
     30 H3'         0.8730   -1.2980    0.1510 h1        1 SSU      0.092700
     31 HO3'        2.9800   -0.8460    1.9540 ho        1 SSU      0.431000
     32 H6          0.7030    2.1680   -2.3360 h4        1 SSU      0.223000
     33 H5         -1.2090    3.6350   -3.0940 ha        1 SSU      0.194000
     34 H3         -1.9940    4.5380    1.0000 hn        1 SSU      0.351500
@<TRIPOS>BOND
     1    1    2 1   
     2    1   22 1   
     3    2    3 1   
     4    2   12 1   
     5    2   23 1   
     6    3    4 1   
     7    3   14 1   
     8    3   24 1   
     9    4    5 1   
    10    5    6 1   
    11    5   12 1   
    12    5   25 1   
    13    6    7 1   
    14    6   26 1   
    15    6   27 1   
    16    7    8 1   
    17    8    9 2   
    18    8   10 1   
    19    8   11 1   
    20   10   28 1   
    21   11   29 1   
    22   12   13 1   
    23   12   30 1   
    24   13   31 1   
    25   14   15 1   
    26   14   20 1   
    27   15   16 2   
    28   15   32 1   
    29   16   17 1   
    30   16   33 1   
    31   17   18 2   
    32   17   19 1   
    33   19   20 1   
    34   19   34 1   
    35   20   21 2   
@<TRIPOS>SUBSTRUCTURE
     1 SSU         1 TEMP              0 ****  ****    0 ROOT
