@<TRIPOS>MOLECULE
SSV
   34    33     1     0     0
SMALL
bcc


@<TRIPOS>ATOM
      1 CAB         0.0990   -0.3540    0.3590 c3        1 SSV     -0.197100
      2 CAP         1.2910    0.4680   -0.0160 c         1 SSV      0.562300
      3 OAC         1.4380    1.6290    0.3900 o         1 SSV     -0.543100
      4 CAO         2.2620   -0.2030   -0.8920 ce        1 SSV     -0.269200
      5 CAN         3.3850    0.4020   -1.3170 cf        1 SSV     -0.044000
      6 CAM         4.3530   -0.2390   -2.1770 cf        1 SSV     -0.157000
      7 CAL         5.4740    0.3800   -2.5950 ce        1 SSV     -0.092000
      8 CAK         6.4460   -0.2530   -3.4550 ce        1 SSV     -0.144000
      9 CAJ         7.5660    0.3690   -3.8710 cf        1 SSV     -0.105000
     10 CAI         8.5400   -0.2610   -4.7310 cf        1 SSV     -0.140000
     11 CAH         9.6600    0.3630   -5.1450 ce        1 SSV     -0.110000
     12 CAG        10.6360   -0.2640   -6.0050 ce        1 SSV     -0.140000
     13 CAF        11.7540    0.3610   -6.4190 cf        1 SSV     -0.111000
     14 CAE        12.7320   -0.2650   -7.2800 cf        1 SSV     -0.150000
     15 CAD        13.8470    0.3570   -7.6920 c2        1 SSV     -0.146200
     16 CAA        14.8550   -0.2660   -8.5700 c3        1 SSV     -0.068900
     17 HAB1       -0.5880    0.2240    1.0220 hc        1 SSV      0.062700
     18 HAB2       -0.4550   -0.6560   -0.5640 hc        1 SSV      0.062700
     19 HAB3        0.4310   -1.2770    0.8940 hc        1 SSV      0.062700
     20 HAO         2.0140   -1.2360   -1.1810 ha        1 SSV      0.133000
     21 HAN         3.6000    1.4420   -1.0040 ha        1 SSV      0.145000
     22 HAM         4.1320   -1.2760   -2.4850 ha        1 SSV      0.129000
     23 HAL         5.6910    1.4180   -2.2850 ha        1 SSV      0.128000
     24 HAK         6.2300   -1.2900   -3.7660 ha        1 SSV      0.128000
     25 HAJ         7.7810    1.4070   -3.5600 ha        1 SSV      0.125000
     26 HAI         8.3260   -1.2980   -5.0430 ha        1 SSV      0.127000
     27 HAH         9.8730    1.4010   -4.8330 ha        1 SSV      0.124000
     28 HAG        10.4230   -1.3010   -6.3180 ha        1 SSV      0.126000
     29 HAF        11.9670    1.3990   -6.1060 ha        1 SSV      0.123000
     30 HAE        12.5180   -1.3020   -7.5910 ha        1 SSV      0.125000
     31 HAD        14.0660    1.3930   -7.3840 ha        1 SSV      0.121000
     32 HAA1       15.8490   -0.2880   -8.0550 hc        1 SSV      0.044700
     33 HAA2       14.9660    0.3320   -9.5100 hc        1 SSV      0.044700
     34 HAA3       14.5800   -1.3120   -8.8480 hc        1 SSV      0.044700
@<TRIPOS>BOND
     1    1    2 1   
     2    1   17 1   
     3    1   18 1   
     4    1   19 1   
     5    2    3 2   
     6    2    4 1   
     7    4    5 2   
     8    4   20 1   
     9    5    6 1   
    10    5   21 1   
    11    6    7 2   
    12    6   22 1   
    13    7    8 1   
    14    7   23 1   
    15    8    9 2   
    16    8   24 1   
    17    9   10 1   
    18    9   25 1   
    19   10   11 2   
    20   10   26 1   
    21   11   12 1   
    22   11   27 1   
    23   12   13 2   
    24   12   28 1   
    25   13   14 1   
    26   13   29 1   
    27   14   15 2   
    28   14   30 1   
    29   15   16 1   
    30   15   31 1   
    31   16   32 1   
    32   16   33 1   
    33   16   34 1   
@<TRIPOS>SUBSTRUCTURE
     1 SSV         1 TEMP              0 ****  ****    0 ROOT
