@<TRIPOS>MOLECULE
SSV
   34    45     1     0     0
SMALL
bcc


@<TRIPOS>ATOM
      1 CAB         0.0000    0.0000    0.0000 c3        1 SSV     -0.155000
      2 CAP         1.5070    0.0000    0.0000 c3        1 SSV      0.383000
      3 OAC         2.1150    0.0000    1.0540 o         1 SSV     -0.418000
      4 CAO         2.2060   -0.0000   -1.2100 c2        1 SSV     -0.423000
      5 CAN         3.5870   -0.0000   -1.2090 c3        1 SSV     -0.069000
      6 CAM         4.2860   -0.0000   -2.4190 c3        1 SSV     -0.133000
      7 CAL         5.6650   -0.0000   -2.4190 c3        1 SSV     -0.464000
      8 CAK         6.3650   -0.0000   -3.6300 c3        1 SSV     -0.401000
      9 CAJ         7.7430   -0.0000   -3.6300 c3        1 SSV     -0.266000
     10 CAI         8.4440   -0.0000   -4.8430 c3        1 SSV     -0.284000
     11 CAH         9.8100   -0.0000   -4.8420 c3        1 SSV     -0.313000
     12 CAG        10.5120   -0.0000   -6.0590 c3        1 SSV     -0.441000
     13 CAF        11.8720   -0.0000   -6.0590 c3        1 SSV     -0.174000
     14 CAE        12.5800   -0.0000   -7.2860 c3        1 SSV     -0.090000
     15 CAD        13.9180   -0.0000   -7.2860 c2        1 SSV     -0.416000
     16 CAA        14.6720   -0.0000   -8.5910 DU        1 SSV     -0.043000
     17 HAB1       -0.3610    0.3180    0.9710 hc        1 SSV      0.066000
     18 HAB2       -0.3610    0.6820   -0.7610 hc        1 SSV      0.066000
     19 HAB3       -0.3610   -1.0000   -0.2100 hc        1 SSV      0.066000
     20 HAO         2.0590   -0.8750   -0.5880 DU        1 SSV      0.119000
     21 HAN         3.7330    0.8750   -1.8320 DU        1 SSV      0.294500
     22 HAM         4.1400   -0.8750   -1.7970 DU        1 SSV      0.294500
     23 HAL         5.8100    0.8740   -3.0420 DU        1 SSV      0.326500
     24 HAK         6.2200   -0.8740   -3.0060 DU        1 SSV      0.326500
     25 HAJ         7.8890    0.8750   -4.2520 DU        1 SSV      0.310000
     26 HAI         8.2970   -0.8750   -4.2210 DU        1 SSV      0.310000
     27 HAH         9.9560    0.8750   -5.4640 DU        1 SSV      0.306500
     28 HAG        10.3660   -0.8750   -5.4380 DU        1 SSV      0.306500
     29 HAF        12.0200    0.8750   -6.6800 DU        1 SSV      0.284000
     30 HAE        12.4330   -0.8750   -6.6650 DU        1 SSV      0.284000
     31 HAD        14.0640    0.8750   -7.9080 DU        1 SSV      0.187000
     32 HAA1       15.5170    0.6730   -8.5200 ha        1 SSV      0.053000
     33 HAA2       14.0150    0.3280   -9.3870 ha        1 SSV      0.053000
     34 HAA3       15.0250   -1.0020   -8.8040 ha        1 SSV      0.053000
@<TRIPOS>BOND
     1    1    2 1   
     2    1   17 1   
     3    1   18 1   
     4    1   19 1   
     5    2    3 1   
     6    2    4 1   
     7    2   20 1   
     8    4    5 1   
     9    4   20 1   
    10    5    6 1   
    11    5   21 1   
    12    5   22 1   
    13    6    7 1   
    14    6   21 1   
    15    6   22 1   
    16    7    8 1   
    17    7   23 1   
    18    7   24 1   
    19    8    9 1   
    20    8   23 1   
    21    8   24 1   
    22    9   10 1   
    23    9   25 1   
    24    9   26 1   
    25   10   11 1   
    26   10   25 1   
    27   10   26 1   
    28   11   12 1   
    29   11   27 1   
    30   11   28 1   
    31   12   13 1   
    32   12   27 1   
    33   12   28 1   
    34   13   14 1   
    35   13   29 1   
    36   13   30 1   
    37   14   15 1   
    38   14   29 1   
    39   14   30 1   
    40   15   16 1   
    41   15   31 1   
    42   16   31 1   
    43   16   32 1   
    44   16   33 1   
    45   16   34 1   
@<TRIPOS>SUBSTRUCTURE
     1 SSV         1 TEMP              0 ****  ****    0 ROOT
