@<TRIPOS>MOLECULE
SSV
   34    33     1     0     0
SMALL
bcc


@<TRIPOS>ATOM
      1 CAB         8.0890   -0.7140    0.0550 c3        1 SSV     -0.197100
      2 CAP         6.8960    0.1830   -0.0570 c         1 SSV      0.562300
      3 OAC         7.0110    1.4070   -0.2150 o         1 SSV     -0.543100
      4 CAO         5.5950   -0.4940    0.0330 ce        1 SSV     -0.269200
      5 CAN         4.4300    0.1720   -0.0510 cf        1 SSV     -0.044000
      6 CAM         3.1400   -0.4740    0.0350 cf        1 SSV     -0.157000
      7 CAL         1.9810    0.2080   -0.0500 ce        1 SSV     -0.092000
      8 CAK         0.6890   -0.4300    0.0350 ce        1 SSV     -0.144000
      9 CAJ        -0.4690    0.2550   -0.0500 cf        1 SSV     -0.105000
     10 CAI        -1.7630   -0.3790    0.0340 cf        1 SSV     -0.140000
     11 CAH        -2.9190    0.3080   -0.0510 ce        1 SSV     -0.110000
     12 CAG        -4.2150   -0.3230    0.0330 ce        1 SSV     -0.140000
     13 CAF        -5.3700    0.3650   -0.0530 cf        1 SSV     -0.111000
     14 CAE        -6.6680   -0.2650    0.0310 cf        1 SSV     -0.150000
     15 CAD        -7.8190    0.4190   -0.0540 c2        1 SSV     -0.146200
     16 CAA        -9.1520   -0.2060    0.0290 c3        1 SSV     -0.068900
     17 HAB1        8.0690   -1.2440    1.0380 hc        1 SSV      0.062700
     18 HAB2        8.0650   -1.4750   -0.7620 hc        1 SSV      0.062700
     19 HAB3        9.0350   -0.1250   -0.0220 hc        1 SSV      0.062700
     20 HAO         5.6300   -1.5860    0.1730 ha        1 SSV      0.133000
     21 HAN         4.4350    1.2700   -0.1920 ha        1 SSV      0.145000
     22 HAM         3.1430   -1.5680    0.1760 ha        1 SSV      0.129000
     23 HAL         1.9830    1.3040   -0.1900 ha        1 SSV      0.128000
     24 HAK         0.6860   -1.5240    0.1750 ha        1 SSV      0.128000
     25 HAJ        -0.4640    1.3510   -0.1910 ha        1 SSV      0.125000
     26 HAI        -1.7690   -1.4740    0.1740 ha        1 SSV      0.127000
     27 HAH        -2.9130    1.4040   -0.1920 ha        1 SSV      0.124000
     28 HAG        -4.2220   -1.4180    0.1730 ha        1 SSV      0.126000
     29 HAF        -5.3620    1.4600   -0.1930 ha        1 SSV      0.123000
     30 HAE        -6.6730   -1.3610    0.1710 ha        1 SSV      0.125000
     31 HAD        -7.8200    1.5130   -0.1940 ha        1 SSV      0.121000
     32 HAA1       -9.0870   -1.3130    0.1710 hc        1 SSV      0.044700
     33 HAA2       -9.7240    0.2260    0.8890 hc        1 SSV      0.044700
     34 HAA3       -9.7290   -0.0040   -0.9080 hc        1 SSV      0.044700
@<TRIPOS>BOND
     1    1    2 1   
     2    1   17 1   
     3    1   18 1   
     4    1   19 1   
     5    2    3 2   
     6    2    4 1   
     7    4    5 2   
     8    4   20 1   
     9    5    6 1   
    10    5   21 1   
    11    6    7 2   
    12    6   22 1   
    13    7    8 1   
    14    7   23 1   
    15    8    9 2   
    16    8   24 1   
    17    9   10 1   
    18    9   25 1   
    19   10   11 2   
    20   10   26 1   
    21   11   12 1   
    22   11   27 1   
    23   12   13 2   
    24   12   28 1   
    25   13   14 1   
    26   13   29 1   
    27   14   15 2   
    28   14   30 1   
    29   15   16 1   
    30   15   31 1   
    31   16   32 1   
    32   16   33 1   
    33   16   34 1   
@<TRIPOS>SUBSTRUCTURE
     1 SSV         1 TEMP              0 ****  ****    0 ROOT
