@<TRIPOS>MOLECULE
SSV
   34    27     1     0     0
SMALL
bcc


@<TRIPOS>ATOM
      1 CAB        -5.5920   -4.2430    2.1340 c3        1 SSV     -0.267000
      2 CAP        -4.8390   -3.2170    1.3000 c2        1 SSV      0.260000
      3 OAC        -5.1000   -2.0350    1.4110 o         1 SSV     -0.306000
      4 CAO        -3.8310   -3.6770    0.2600 c2        1 SSV     -0.251000
      5 CAN        -2.5710   -3.1660    0.2630 c1        1 SSV     -0.035000
      6 CAM        -2.1720   -2.1380    1.3030 c1        1 SSV     -0.128900
      7 CAL        -1.3870   -1.0830    0.9510 c1        1 SSV     -0.128900
      8 CAK        -0.9100   -0.9340   -0.4850 c1        1 SSV     -0.128900
      9 CAJ         0.2570   -0.2920   -0.7500 c1        1 SSV     -0.128900
     10 CAI         1.0850    0.2770    0.3880 c1        1 SSV     -0.128900
     11 CAH         2.1040    1.1300    0.1240 c1        1 SSV     -0.128900
     12 CAG         2.4180    1.5160   -1.3050 c1        1 SSV     -0.128900
     13 CAF         3.0090    2.6970   -1.5700 c1        1 SSV     -0.128900
     14 CAE         3.3600    3.6390   -0.4350 c1        1 SSV     -0.128900
     15 CAD         4.3780    4.5130   -0.5760 c1        1 SSV     -0.128900
     16 CAA         5.1660    4.5530   -1.8610 c2        1 SSV     -0.193000
     17 HAB1       -6.2770   -4.6750    1.5800 hc        1 SSV      0.102000
     18 HAB2       -6.0210   -3.7940    2.8960 hc        1 SSV      0.102000
     19 HAB3       -4.9650   -4.9180    2.4640 hc        1 SSV      0.102000
     20 HAO        -4.0890   -4.3390   -0.4090 ha        1 SSV      0.129000
     21 HAN        -1.9230   -3.4620   -0.4050 ha        1 SSV      0.120000
     22 HAM        -2.4780   -2.2330    2.2260 ha        1 SSV      0.127500
     23 HAL        -1.1300   -0.4210    1.6220 ha        1 SSV      0.127500
     24 HAK        -1.4420   -1.2990   -1.2150 ha        1 SSV      0.127500
     25 HAJ         0.5640   -0.1960   -1.6720 ha        1 SSV      0.127500
     26 HAI         0.8840    0.0290    1.3080 ha        1 SSV      0.127500
     27 HAH         2.6350    1.4950    0.8540 ha        1 SSV      0.127500
     28 HAG         2.1910    0.9080   -2.0370 ha        1 SSV      0.127500
     29 HAF         3.2110    2.9460   -2.4940 ha        1 SSV      0.127500
     30 HAE         2.8510    3.6140    0.3950 ha        1 SSV      0.127500
     31 HAD         4.6040    5.1190    0.1540 ha        1 SSV      0.127500
     32 HAA1        5.8550    5.2470   -1.8000 ha        1 SSV      0.084000
     33 HAA2        5.5900    3.6840   -2.0100 ha        1 SSV      0.084000
     34 HAA3        4.5640    4.7550   -2.6060 ha        1 SSV      0.084000
@<TRIPOS>BOND
     1    1    2 1   
     2    1   17 1   
     3    1   18 1   
     4    1   19 1   
     5    2    3 1   
     6    2    4 1   
     7    4    5 1   
     8    4   20 1   
     9    5   21 1   
    10    6    7 1   
    11    6   22 1   
    12    7   23 1   
    13    8    9 1   
    14    8   24 1   
    15    9   25 1   
    16   10   11 1   
    17   10   26 1   
    18   11   27 1   
    19   12   13 1   
    20   12   28 1   
    21   13   29 1   
    22   14   15 1   
    23   14   30 1   
    24   15   31 1   
    25   16   32 1   
    26   16   33 1   
    27   16   34 1   
@<TRIPOS>SUBSTRUCTURE
     1 SSV         1 TEMP              0 ****  ****    0 ROOT
