@<TRIPOS>MOLECULE
ST1
   24    24     1     0     0
SMALL
bcc


@<TRIPOS>ATOM
      1 C'         -0.3500    0.2920   -0.1940 c         1 ST1      0.916200
      2 O1'        -0.2040    0.4750   -1.4320 o         1 ST1     -0.811300
      3 O2'        -1.3550    0.6330    0.4840 o         1 ST1     -0.811300
      4 C1          0.7920   -0.4030    0.5510 ca        1 ST1     -0.137600
      5 C2          0.7390   -0.5620    1.9310 ca        1 ST1     -0.066000
      6 C3          1.7920   -1.1850    2.6170 ca        1 ST1      0.069100
      7 O3          1.7250   -1.2200    3.9980 oh        1 ST1     -0.531100
      8 C4          2.9310   -1.6790    1.9360 ca        1 ST1      0.049600
      9 N4          3.9980   -2.2890    2.6190 n         1 ST1     -0.466100
     10 C4'         3.8820   -3.2860    3.5680 c         1 ST1      0.669100
     11 O4'         2.7810   -3.7280    3.9580 o         1 ST1     -0.626100
     12 CM4         5.1760   -3.8220    4.1380 c3        1 ST1     -0.174100
     13 C5          2.9570   -1.5060    0.5170 ca        1 ST1     -0.211200
     14 N5          4.1020   -1.9710   -0.3020 no        1 ST1      0.315200
     15 ON1         5.2180   -2.0050    0.1630 o         1 ST1     -0.241000
     16 ON2         3.9120   -2.2970   -1.4440 o         1 ST1     -0.241000
     17 C6          1.8970   -0.8790   -0.1560 ca        1 ST1     -0.043000
     18 H2         -0.1380   -0.1830    2.4840 ha        1 ST1      0.180000
     19 HO3         1.5060   -2.1360    4.2450 ho        1 ST1      0.435000
     20 HN4         4.9150   -2.0640    2.2890 hn        1 ST1      0.341500
     21 HM41        5.8140   -4.2510    3.3270 hc        1 ST1      0.064033
     22 HM42        4.9350   -4.6250    4.8750 hc        1 ST1      0.064033
     23 HM43        5.7400   -3.0090    4.6550 hc        1 ST1      0.064033
     24 H6          1.9080   -0.7460   -1.2550 ha        1 ST1      0.192000
@<TRIPOS>BOND
     1    1    2 1   
     2    1    3 1   
     3    1    4 1   
     4    4    5 ar  
     5    4   17 ar  
     6    5    6 ar  
     7    5   18 1   
     8    6    7 1   
     9    6    8 ar  
    10    7   19 1   
    11    8    9 1   
    12    8   13 ar  
    13    9   10 1   
    14    9   20 1   
    15   10   11 2   
    16   10   12 1   
    17   12   21 1   
    18   12   22 1   
    19   12   23 1   
    20   13   14 1   
    21   13   17 ar  
    22   14   15 1   
    23   14   16 1   
    24   17   24 1   
@<TRIPOS>SUBSTRUCTURE
     1 ST1         1 TEMP              0 ****  ****    0 ROOT
