@<TRIPOS>MOLECULE
ST1
   24    24     1     0     0
SMALL
bcc


@<TRIPOS>ATOM
      1 C'         -0.0090   -0.2150    0.1170 c         1 ST1      0.916200
      2 O1'         1.2250   -0.4310   -0.0130 o         1 ST1     -0.811300
      3 O2'        -0.6160   -0.0610    1.2100 o         1 ST1     -0.811300
      4 C1         -0.8460   -0.1370   -1.1630 ca        1 ST1     -0.137600
      5 C2         -2.2270    0.0130   -1.0940 ca        1 ST1     -0.066000
      6 C3         -2.9960    0.0700   -2.2650 ca        1 ST1      0.069100
      7 O3         -4.3710    0.1170   -2.1270 oh        1 ST1     -0.531100
      8 C4         -2.4010   -0.0120   -3.5480 ca        1 ST1      0.049600
      9 N4         -3.1680    0.0270   -4.7260 n         1 ST1     -0.466100
     10 C4'        -4.1500    0.9540   -5.0170 c         1 ST1      0.669100
     11 O4'        -4.4960    1.8510   -4.2200 o         1 ST1     -0.626100
     12 CM4        -4.8120    0.8240   -6.3700 c3        1 ST1     -0.174100
     13 C5         -0.9800   -0.1620   -3.5890 ca        1 ST1     -0.211200
     14 N5         -0.2460   -0.2700   -4.8720 no        1 ST1      0.315200
     15 ON1        -0.7740   -0.7620   -5.8440 o         1 ST1     -0.241000
     16 ON2         0.8890    0.1210   -4.9340 o         1 ST1     -0.241000
     17 C6         -0.2230   -0.2180   -2.4090 ca        1 ST1     -0.043000
     18 H2         -2.7130    0.0760   -0.1050 ha        1 ST1      0.180000
     19 HO3        -4.6440    1.0260   -2.3390 ho        1 ST1      0.435000
     20 HN4        -2.8810   -0.5930   -5.4560 hn        1 ST1      0.341500
     21 HM41       -4.0580    0.9180   -7.1880 hc        1 ST1      0.064033
     22 HM42       -5.5690    1.6390   -6.4760 hc        1 ST1      0.064033
     23 HM43       -5.3260   -0.1630   -6.4580 hc        1 ST1      0.064033
     24 H6          0.8790   -0.3290   -2.4330 ha        1 ST1      0.192000
@<TRIPOS>BOND
     1    1    2 1   
     2    1    3 1   
     3    1    4 1   
     4    4    5 ar  
     5    4   17 ar  
     6    5    6 ar  
     7    5   18 1   
     8    6    7 1   
     9    6    8 ar  
    10    7   19 1   
    11    8    9 1   
    12    8   13 ar  
    13    9   10 1   
    14    9   20 1   
    15   10   11 2   
    16   10   12 1   
    17   12   21 1   
    18   12   22 1   
    19   12   23 1   
    20   13   14 1   
    21   13   17 ar  
    22   14   15 1   
    23   14   16 1   
    24   17   24 1   
@<TRIPOS>SUBSTRUCTURE
     1 ST1         1 TEMP              0 ****  ****    0 ROOT
