@<TRIPOS>MOLECULE
ST1
   24    24     1     0     0
SMALL
bcc


@<TRIPOS>ATOM
      1 C'          0.0060   -0.1440    0.1140 c         1 ST1      0.916200
      2 O1'         1.2480   -0.3050   -0.0170 o         1 ST1     -0.811300
      3 O2'        -0.6070   -0.0260    1.2090 o         1 ST1     -0.811300
      4 C1         -0.8330   -0.0930   -1.1650 ca        1 ST1     -0.137600
      5 C2         -2.2190   -0.0040   -1.0950 ca        1 ST1     -0.066000
      6 C3         -2.9900    0.0280   -2.2660 ca        1 ST1      0.069100
      7 O3         -4.3660    0.0140   -2.1280 oh        1 ST1     -0.531100
      8 C4         -2.3930   -0.0170   -3.5500 ca        1 ST1      0.049600
      9 N4         -3.1600   -0.0020   -4.7270 n         1 ST1     -0.466100
     10 C4'        -4.1820    0.8830   -5.0110 c         1 ST1      0.669100
     11 O4'        -4.5680    1.7580   -4.2070 o         1 ST1     -0.626100
     12 CM4        -4.8390    0.7350   -6.3660 c3        1 ST1     -0.174100
     13 C5         -0.9660   -0.1030   -3.5910 ca        1 ST1     -0.211200
     14 N5         -0.2280   -0.1690   -4.8750 no        1 ST1      0.315200
     15 ON1        -0.7340   -0.6750   -5.8510 o         1 ST1     -0.241000
     16 ON2         0.8890    0.2720   -4.9330 o         1 ST1     -0.241000
     17 C6         -0.2070   -0.1360   -2.4120 ca        1 ST1     -0.043000
     18 H2         -2.7080    0.0290   -0.1060 ha        1 ST1      0.180000
     19 HO3        -4.6790    0.9120   -2.3320 ho        1 ST1      0.435000
     20 HN4        -2.8460   -0.6020   -5.4620 hn        1 ST1      0.341500
     21 HM41       -5.6300    1.5170   -6.4650 hc        1 ST1      0.064033
     22 HM42       -4.0890    0.8690   -7.1820 hc        1 ST1      0.064033
     23 HM43       -5.3080   -0.2740   -6.4620 hc        1 ST1      0.064033
     24 H6          0.8980   -0.1990   -2.4360 ha        1 ST1      0.192000
@<TRIPOS>BOND
     1    1    2 1   
     2    1    3 1   
     3    1    4 1   
     4    4    5 ar  
     5    4   17 ar  
     6    5    6 ar  
     7    5   18 1   
     8    6    7 1   
     9    6    8 ar  
    10    7   19 1   
    11    8    9 1   
    12    8   13 ar  
    13    9   10 1   
    14    9   20 1   
    15   10   11 2   
    16   10   12 1   
    17   12   21 1   
    18   12   22 1   
    19   12   23 1   
    20   13   14 1   
    21   13   17 ar  
    22   14   15 1   
    23   14   16 1   
    24   17   24 1   
@<TRIPOS>SUBSTRUCTURE
     1 ST1         1 TEMP              0 ****  ****    0 ROOT
