@<TRIPOS>MOLECULE
ST1
   24    24     1     0     0
SMALL
bcc


@<TRIPOS>ATOM
      1 C'          0.0370   -0.1880    0.0900 c         1 ST1      0.916200
      2 O1'         1.2720   -0.3910   -0.0560 o         1 ST1     -0.811300
      3 O2'        -0.5580   -0.0380    1.1900 o         1 ST1     -0.811300
      4 C1         -0.8160   -0.1200   -1.1800 ca        1 ST1     -0.137600
      5 C2         -2.1970    0.0150   -1.0950 ca        1 ST1     -0.066000
      6 C3         -2.9810    0.0620   -2.2560 ca        1 ST1      0.069100
      7 O3         -4.3550    0.0950   -2.1010 oh        1 ST1     -0.531100
      8 C4         -2.4010   -0.0140   -3.5460 ca        1 ST1      0.049600
      9 N4         -3.1820    0.0150   -4.7150 ns        1 ST1     -0.466100
     10 C4'        -4.1780    0.9310   -4.9950 c         1 ST1      0.669100
     11 O4'        -4.5240    1.8250   -4.1950 o         1 ST1     -0.626100
     12 CM4        -4.8560    0.7920   -6.3400 c3        1 ST1     -0.174100
     13 C5         -0.9790   -0.1480   -3.6040 ca        1 ST1     -0.211200
     14 N5         -0.2600   -0.2500   -4.8960 no        1 ST1      0.315200
     15 ON1        -0.7940   -0.7480   -5.8610 o         1 ST1     -0.241000
     16 ON2         0.8710    0.1530   -4.9720 o         1 ST1     -0.241000
     17 C6         -0.2070   -0.1960   -2.4330 ca        1 ST1     -0.043000
     18 H2         -2.6720    0.0740   -0.1000 ha        1 ST1      0.180000
     19 HO3        -4.6400    1.0010   -2.3110 ho        1 ST1      0.435000
     20 HN4        -2.8980   -0.6020   -5.4470 hn        1 ST1      0.341500
     21 HM41       -5.6210    1.5990   -6.4370 hc        1 ST1      0.064033
     22 HM42       -4.1120    0.8930   -7.1660 hc        1 ST1      0.064033
     23 HM43       -5.3600   -0.2010   -6.4200 hc        1 ST1      0.064033
     24 H6          0.8950   -0.2940   -2.4700 ha        1 ST1      0.192000
@<TRIPOS>BOND
     1    1    2 1   
     2    1    3 1   
     3    1    4 1   
     4    4    5 ar  
     5    4   17 ar  
     6    5    6 ar  
     7    5   18 1   
     8    6    7 1   
     9    6    8 ar  
    10    7   19 1   
    11    8    9 1   
    12    8   13 ar  
    13    9   10 1   
    14    9   20 1   
    15   10   11 2   
    16   10   12 1   
    17   12   21 1   
    18   12   22 1   
    19   12   23 1   
    20   13   14 1   
    21   13   17 ar  
    22   14   15 1   
    23   14   16 1   
    24   17   24 1   
@<TRIPOS>SUBSTRUCTURE
     1 ST1         1 TEMP              0 ****  ****    0 ROOT
