@<TRIPOS>MOLECULE
ST2
   24    24     1     0     0
SMALL
bcc


@<TRIPOS>ATOM
      1 C'          0.0430    0.2570    0.0570 c         1 ST2      0.909200
      2 O1'         1.2780    0.0000    0.0110 o         1 ST2     -0.825800
      3 O2'        -0.5820    0.5790    1.1070 o         1 ST2     -0.825800
      4 C1         -0.7530    0.1740   -1.2420 ca        1 ST2     -0.064600
      5 C2         -0.1220   -0.1310   -2.4420 ca        1 ST2     -0.186000
      6 C3         -0.8330   -0.2080   -3.6620 ca        1 ST2      0.147600
      7 N3         -0.1300   -0.4290   -4.8610 nh        1 ST2     -0.805200
      8 C4         -2.2410    0.0160   -3.6560 ca        1 ST2     -0.078400
      9 N4         -3.0230    0.0170   -4.8380 n         1 ST2     -0.420100
     10 C4'        -3.2180   -1.0870   -5.6490 c         1 ST2      0.645100
     11 O4'        -2.4670   -2.0860   -5.6510 o         1 ST2     -0.628100
     12 CM4        -4.3590   -0.9980   -6.6430 c3        1 ST2     -0.179100
     13 C5         -2.8570    0.3200   -2.4110 ca        1 ST2      0.090100
     14 O5         -4.2260    0.5520   -2.4270 oh        1 ST2     -0.544100
     15 C6         -2.1300    0.4040   -1.2260 ca        1 ST2     -0.205000
     16 H2          0.9670   -0.3080   -2.4130 ha        1 ST2      0.159000
     17 HN31        0.7690   -0.8330   -4.6920 hn        1 ST2      0.378300
     18 HN32       -0.6390   -0.9640   -5.5340 hn        1 ST2      0.378300
     19 HN4        -3.7790    0.6680   -4.8020 hn        1 ST2      0.305500
     20 HM41       -4.3550   -1.9160   -7.2770 hc        1 ST2      0.056367
     21 HM42       -4.2410   -0.1020   -7.3000 hc        1 ST2      0.056367
     22 HM43       -5.3340   -0.9300   -6.1050 hc        1 ST2      0.056367
     23 HO5        -4.4850    0.7650   -1.5200 ho        1 ST2      0.419000
     24 H6         -2.6140    0.6460   -0.2670 ha        1 ST2      0.158000
@<TRIPOS>BOND
     1    1    2 1   
     2    1    3 1   
     3    1    4 1   
     4    4    5 ar  
     5    4   15 ar  
     6    5    6 ar  
     7    5   16 1   
     8    6    7 1   
     9    6    8 ar  
    10    7   17 1   
    11    7   18 1   
    12    8    9 1   
    13    8   13 ar  
    14    9   10 1   
    15    9   19 1   
    16   10   11 2   
    17   10   12 1   
    18   12   20 1   
    19   12   21 1   
    20   12   22 1   
    21   13   14 1   
    22   13   15 ar  
    23   14   23 1   
    24   15   24 1   
@<TRIPOS>SUBSTRUCTURE
     1 ST2         1 TEMP              0 ****  ****    0 ROOT
