@<TRIPOS>MOLECULE
ST2
   24    24     1     0     0
SMALL
bcc


@<TRIPOS>ATOM
      1 C'          0.0690    0.2530    0.0450 c         1 ST2      0.909200
      2 O1'         1.3040   -0.0040   -0.0100 o         1 ST2     -0.825800
      3 O2'        -0.5490    0.5730    1.0990 o         1 ST2     -0.825800
      4 C1         -0.7360    0.1720   -1.2490 ca        1 ST2     -0.064600
      5 C2         -0.1140   -0.1330   -2.4530 ca        1 ST2     -0.186000
      6 C3         -0.8330   -0.2080   -3.6690 ca        1 ST2      0.147600
      7 N3         -0.1390   -0.4270   -4.8720 nv        1 ST2     -0.805200
      8 C4         -2.2420    0.0160   -3.6520 ca        1 ST2     -0.078400
      9 N4         -3.0310    0.0170   -4.8290 ns        1 ST2     -0.420100
     10 C4'        -3.2330   -1.0850   -5.6400 c         1 ST2      0.645100
     11 O4'        -2.4810   -2.0840   -5.6480 o         1 ST2     -0.628100
     12 CM4        -4.3800   -0.9950   -6.6260 c3        1 ST2     -0.179100
     13 C5         -2.8490    0.3180   -2.4020 ca        1 ST2      0.090100
     14 O5         -4.2180    0.5500   -2.4090 oh        1 ST2     -0.544100
     15 C6         -2.1140    0.4010   -1.2230 ca        1 ST2     -0.205000
     16 H2          0.9750   -0.3090   -2.4320 ha        1 ST2      0.159000
     17 HN31        0.7610   -0.8310   -4.7110 hn        1 ST2      0.378300
     18 HN32       -0.6530   -0.9620   -5.5430 hn        1 ST2      0.378300
     19 HN4        -3.7880    0.6680   -4.7870 hn        1 ST2      0.305500
     20 HM41       -4.3810   -1.9130   -7.2610 hc        1 ST2      0.056367
     21 HM42       -5.3520   -0.9290   -6.0810 hc        1 ST2      0.056367
     22 HM43       -4.2670   -0.0990   -7.2810 hc        1 ST2      0.056367
     23 HO5        -4.4710    0.7620   -1.5000 ho        1 ST2      0.419000
     24 H6         -2.5910    0.6410   -0.2600 ha        1 ST2      0.158000
@<TRIPOS>BOND
     1    1    2 1   
     2    1    3 1   
     3    1    4 1   
     4    4    5 ar  
     5    4   15 ar  
     6    5    6 ar  
     7    5   16 1   
     8    6    7 1   
     9    6    8 ar  
    10    7   17 1   
    11    7   18 1   
    12    8    9 1   
    13    8   13 ar  
    14    9   10 1   
    15    9   19 1   
    16   10   11 2   
    17   10   12 1   
    18   12   20 1   
    19   12   21 1   
    20   12   22 1   
    21   13   14 1   
    22   13   15 ar  
    23   14   23 1   
    24   15   24 1   
@<TRIPOS>SUBSTRUCTURE
     1 ST2         1 TEMP              0 ****  ****    0 ROOT
