@<TRIPOS>MOLECULE
ST2
   26    25     1     0     0
SMALL
bcc


@<TRIPOS>ATOM
      1 C'         -0.0020    0.6570    0.0350 c         1 ST2      0.911600
      2 O1'         1.2120    0.7360   -0.2280 o         1 ST2     -0.689800
      3 O2'        -0.6930    0.8570    1.0400 o         1 ST2     -0.689800
      4 C1         -0.8540    0.1880   -1.2360 cc        1 ST2      0.094000
      5 C2         -0.1130   -0.0340   -2.4660 cc        1 ST2     -0.036000
      6 C3         -0.7400   -0.4170   -3.6050 cd        1 ST2     -0.137600
      7 N3          0.0220   -0.6460   -4.8340 n4        1 ST2     -0.711400
      8 C4         -2.2180   -0.6580   -3.6610 cd        1 ST2      0.519900
      9 N4         -2.7560   -1.0670   -4.7520 ne        1 ST2     -0.602100
     10 C4'        -4.1330   -1.4150   -4.9940 c         1 ST2      0.705500
     11 O4'        -4.6150   -2.3810   -4.4020 o         1 ST2     -0.458100
     12 CM4        -4.8320   -0.6180   -6.0560 c3        1 ST2     -0.165100
     13 C5         -2.9110   -0.3930   -2.3510 cd        1 ST2      0.213500
     14 O5         -4.2340   -0.5380   -2.4070 oh        1 ST2     -0.413100
     15 C6         -2.2170   -0.0080   -1.2020 cc        1 ST2     -0.272000
     16 H2          0.9880    0.1400   -2.3570 ha        1 ST2      0.244000
     17 HN31       -0.1090   -1.6180   -5.1480 hn        1 ST2      0.479133
     18 HN32       -0.3060   -0.0080   -5.5780 hn        1 ST2      0.479133
     19 HN4        -0.5620    0.9080   -7.3710 ha        1 ST2      0.005000
     20 HM41       -5.9120   -0.9180   -6.0680 hc        1 ST2      0.097700
     21 HM42       -4.3830   -0.8460   -7.0560 hc        1 ST2      0.097700
     22 HM43       -4.7580    0.4790   -5.8610 hc        1 ST2      0.097700
     23 HO5        -4.6480   -0.3990   -1.5250 ho        1 ST2      0.510000
     24 H6         -2.7390    0.1650   -0.2350 ha        1 ST2      0.237000
     25 H33         1.0230   -0.4790   -4.6620 hn        1 ST2      0.479133
     26 H42        -0.3970    1.4780   -7.0420 ha        1 ST2      0.005000
@<TRIPOS>BOND
     1    1    2 1   
     2    1    3 1   
     3    1    4 2   
     4    4    5 1   
     5    4   15 1   
     6    5    6 2   
     7    5   16 1   
     8    6    7 1   
     9    6    8 1   
    10    7   17 1   
    11    7   18 1   
    12    7   25 1   
    13    8    9 2   
    14    8   13 1   
    15    9   10 1   
    16   10   11 2   
    17   10   12 1   
    18   12   20 1   
    19   12   21 1   
    20   12   22 1   
    21   13   14 1   
    22   13   15 2   
    23   14   23 1   
    24   15   24 1   
    25   19   26 1   
@<TRIPOS>SUBSTRUCTURE
     1 ST2         1 TEMP              0 ****  ****    0 ROOT
