@<TRIPOS>MOLECULE
ST2
   24    24     1     0     0
SMALL
bcc


@<TRIPOS>ATOM
      1 C'         -0.0410    0.0170   -3.4750 c         1 ST2      0.909200
      2 O1'         1.0420    0.1790   -4.1070 o         1 ST2     -0.825300
      3 O2'        -1.1800   -0.0460   -4.0140 o         1 ST2     -0.825300
      4 C1          0.0400   -0.1060   -1.9570 ca        1 ST2     -0.092600
      5 C2          1.2810   -0.0500   -1.3260 ca        1 ST2     -0.158000
      6 C3          1.4050   -0.1500    0.0710 ca        1 ST2      0.056600
      7 N3          2.6860   -0.1420    0.6860 nh        1 ST2     -0.801200
      8 C4          0.2290   -0.3390    0.8620 ca        1 ST2     -0.054400
      9 N4          0.3470   -0.5430    2.2560 n         1 ST2     -0.450100
     10 C4'        -0.3020    0.1620    3.2400 c         1 ST2      0.655100
     11 O4'        -1.1500    1.0510    3.0020 o         1 ST2     -0.636100
     12 CM4         0.0340   -0.2050    4.6710 c3        1 ST2     -0.175100
     13 C5         -1.0220   -0.3690    0.2000 ca        1 ST2      0.105100
     14 O5         -2.1980   -0.5900    0.8970 oh        1 ST2     -0.538100
     15 C6         -1.1150   -0.2520   -1.1900 ca        1 ST2     -0.128000
     16 H2          2.1700    0.0780   -1.9690 ha        1 ST2      0.158000
     17 HN31        3.4070   -0.0170    0.0020 hn        1 ST2      0.356300
     18 HN32        2.7460    0.5850    1.3730 hn        1 ST2      0.356300
     19 HN4         1.0420   -1.2000    2.5290 hn        1 ST2      0.317500
     20 HM41       -0.5380    0.4670    5.3550 hc        1 ST2      0.057033
     21 HM42       -0.2540   -1.2640    4.8770 hc        1 ST2      0.057033
     22 HM43        1.1260   -0.0790    4.8660 hc        1 ST2      0.057033
     23 HO5        -2.3050    0.1560    1.5100 ho        1 ST2      0.429000
     24 H6         -2.0960   -0.2840   -1.6900 ha        1 ST2      0.170000
@<TRIPOS>BOND
     1    1    2 1   
     2    1    3 1   
     3    1    4 1   
     4    4    5 ar  
     5    4   15 ar  
     6    5    6 ar  
     7    5   16 1   
     8    6    7 1   
     9    6    8 ar  
    10    7   17 1   
    11    7   18 1   
    12    8    9 1   
    13    8   13 ar  
    14    9   10 1   
    15    9   19 1   
    16   10   11 2   
    17   10   12 1   
    18   12   20 1   
    19   12   21 1   
    20   12   22 1   
    21   13   14 1   
    22   13   15 ar  
    23   14   23 1   
    24   15   24 1   
@<TRIPOS>SUBSTRUCTURE
     1 ST2         1 TEMP              0 ****  ****    0 ROOT
