@<TRIPOS>MOLECULE
ST3
   23    23     1     0     0
SMALL
bcc


@<TRIPOS>ATOM
      1 C'          0.1480   -0.1030    0.0230 c         1 ST3      0.909200
      2 O1'         1.4060   -0.1410   -0.1020 o         1 ST3     -0.829800
      3 O2'        -0.4570   -0.1140    1.1310 o         1 ST3     -0.829800
      4 C1         -0.6890   -0.0410   -1.2480 ca        1 ST3     -0.117600
      5 C2         -0.0650   -0.0660   -2.4920 ca        1 ST3     -0.136000
      6 C3         -0.8020   -0.0110   -3.6900 ca        1 ST3      0.016600
      7 N3         -0.1470   -0.0750   -4.9530 nh        1 ST3     -0.800200
      8 C4         -2.2280    0.0500   -3.6150 ca        1 ST3      0.009600
      9 N4         -2.9920    0.0260   -4.8040 n         1 ST3     -0.461100
     10 C4'        -4.2230    0.6080   -5.0060 c         1 ST3      0.653100
     11 O4'        -4.8400    1.2610   -4.1390 o         1 ST3     -0.613100
     12 CM4        -4.8310    0.4140   -6.3830 c3        1 ST3     -0.179100
     13 C5         -2.8420    0.0970   -2.3480 ca        1 ST3     -0.149000
     14 C6         -2.0800    0.0530   -1.1860 ca        1 ST3     -0.106000
     15 H2          1.0370   -0.1320   -2.5070 ha        1 ST3      0.154000
     16 HN31        0.8340   -0.2410   -4.8280 hn        1 ST3      0.350800
     17 HN32       -0.2720    0.7880   -5.4490 hn        1 ST3      0.350800
     18 HN4        -2.5870   -0.4690   -5.5660 hn        1 ST3      0.316500
     19 HM41       -5.8140    0.9420   -6.4150 hc        1 ST3      0.055033
     20 HM42       -4.1640    0.8400   -7.1700 hc        1 ST3      0.055033
     21 HM43       -4.9940   -0.6700   -6.5890 hc        1 ST3      0.055033
     22 H5         -3.9380    0.1820   -2.2790 ha        1 ST3      0.140000
     23 H6         -2.5600    0.0890   -0.1940 ha        1 ST3      0.156000
@<TRIPOS>BOND
     1    1    2 1   
     2    1    3 1   
     3    1    4 1   
     4    4    5 ar  
     5    4   14 ar  
     6    5    6 ar  
     7    5   15 1   
     8    6    7 1   
     9    6    8 ar  
    10    7   16 1   
    11    7   17 1   
    12    8    9 1   
    13    8   13 ar  
    14    9   10 1   
    15    9   18 1   
    16   10   11 2   
    17   10   12 1   
    18   12   19 1   
    19   12   20 1   
    20   12   21 1   
    21   13   14 ar  
    22   13   22 1   
    23   14   23 1   
@<TRIPOS>SUBSTRUCTURE
     1 ST3         1 TEMP              0 ****  ****    0 ROOT
