@<TRIPOS>MOLECULE
ST3
   23    23     1     0     0
SMALL
bcc


@<TRIPOS>ATOM
      1 C'          0.1860   -0.0180   -3.3600 c         1 ST3      0.909200
      2 O1'        -0.8800    0.1260   -4.0240 o         1 ST3     -0.829800
      3 O2'         1.3350   -0.1210   -3.8720 o         1 ST3     -0.829800
      4 C1          0.0740   -0.0680   -1.8420 ca        1 ST3     -0.117600
      5 C2         -1.1770    0.0050   -1.2340 ca        1 ST3     -0.136000
      6 C3         -1.3240   -0.0370    0.1650 ca        1 ST3      0.016600
      7 N3         -2.6150    0.0030    0.7630 nh        1 ST3     -0.800200
      8 C4         -0.1530   -0.1840    0.9720 ca        1 ST3      0.010600
      9 N4         -0.2830   -0.3090    2.3740 n         1 ST3     -0.461100
     10 C4'         0.6270    0.0900    3.3260 c         1 ST3      0.653100
     11 O4'         1.7170    0.6400    3.0670 o         1 ST3     -0.613100
     12 CM4         0.2400   -0.1800    4.7680 c3        1 ST3     -0.179100
     13 C5          1.1060   -0.2350    0.3430 ca        1 ST3     -0.149000
     14 C6          1.2130   -0.1760   -1.0410 ca        1 ST3     -0.106000
     15 H2         -2.0570    0.1000   -1.8950 ha        1 ST3      0.154000
     16 HN31       -3.3270   -0.0220    0.0590 hn        1 ST3      0.350800
     17 HN32       -2.7170    0.8420    1.3030 hn        1 ST3      0.350800
     18 HN4        -1.1240   -0.7350    2.6920 hn        1 ST3      0.316500
     19 HM41        1.0540    0.1990    5.4320 hc        1 ST3      0.055033
     20 HM42       -0.7110    0.3440    5.0250 hc        1 ST3      0.055033
     21 HM43        0.1120   -1.2750    4.9410 hc        1 ST3      0.055033
     22 H5          2.0170   -0.3090    0.9580 ha        1 ST3      0.140000
     23 H6          2.1980   -0.2160   -1.5340 ha        1 ST3      0.156000
@<TRIPOS>BOND
     1    1    2 1   
     2    1    3 1   
     3    1    4 1   
     4    4    5 ar  
     5    4   14 ar  
     6    5    6 ar  
     7    5   15 1   
     8    6    7 1   
     9    6    8 ar  
    10    7   16 1   
    11    7   17 1   
    12    8    9 1   
    13    8   13 ar  
    14    9   10 1   
    15    9   18 1   
    16   10   11 2   
    17   10   12 1   
    18   12   19 1   
    19   12   20 1   
    20   12   21 1   
    21   13   14 ar  
    22   13   22 1   
    23   14   23 1   
@<TRIPOS>SUBSTRUCTURE
     1 ST3         1 TEMP              0 ****  ****    0 ROOT
