@<TRIPOS>MOLECULE
ST3
   23    23     1     0     0
SMALL
bcc


@<TRIPOS>ATOM
      1 C'          0.1500   -0.0980    0.0210 c         1 ST3      0.909200
      2 O1'         1.4070   -0.1450   -0.1050 o         1 ST3     -0.829800
      3 O2'        -0.4540   -0.0980    1.1300 o         1 ST3     -0.829800
      4 C1         -0.6880   -0.0380   -1.2490 ca        1 ST3     -0.117600
      5 C2         -0.0660   -0.0730   -2.4940 ca        1 ST3     -0.136000
      6 C3         -0.8050   -0.0190   -3.6910 ca        1 ST3      0.016600
      7 N3         -0.1510   -0.0930   -4.9540 nv        1 ST3     -0.800200
      8 C4         -2.2310    0.0500   -3.6140 ca        1 ST3      0.010600
      9 N4         -2.9950    0.0250   -4.8020 ns        1 ST3     -0.461100
     10 C4'        -4.2240    0.6120   -5.0050 c         1 ST3      0.653100
     11 O4'        -4.8370    1.2720   -4.1410 o         1 ST3     -0.613100
     12 CM4        -4.8350    0.4150   -6.3800 c3        1 ST3     -0.179100
     13 C5         -2.8420    0.1070   -2.3460 ca        1 ST3     -0.149000
     14 C6         -2.0790    0.0650   -1.1860 ca        1 ST3     -0.106000
     15 H2          1.0350   -0.1450   -2.5100 ha        1 ST3      0.154000
     16 HN31       -0.2720    0.7680   -5.4540 hn        1 ST3      0.350800
     17 HN32        0.8280   -0.2650   -4.8300 hn        1 ST3      0.350800
     18 HN4        -2.5950   -0.4760   -5.5630 hn        1 ST3      0.316500
     19 HM41       -5.8160    0.9470   -6.4130 hc        1 ST3      0.055033
     20 HM42       -4.1680    0.8340   -7.1710 hc        1 ST3      0.055033
     21 HM43       -5.0020   -0.6700   -6.5820 hc        1 ST3      0.055033
     22 H5         -3.9380    0.1990   -2.2760 ha        1 ST3      0.140000
     23 H6         -2.5570    0.1090   -0.1930 ha        1 ST3      0.156000
@<TRIPOS>BOND
     1    1    2 1   
     2    1    3 1   
     3    1    4 1   
     4    4    5 ar  
     5    4   14 ar  
     6    5    6 ar  
     7    5   15 1   
     8    6    7 1   
     9    6    8 ar  
    10    7   16 1   
    11    7   17 1   
    12    8    9 1   
    13    8   13 ar  
    14    9   10 1   
    15    9   18 1   
    16   10   11 2   
    17   10   12 1   
    18   12   19 1   
    19   12   20 1   
    20   12   21 1   
    21   13   14 ar  
    22   13   22 1   
    23   14   23 1   
@<TRIPOS>SUBSTRUCTURE
     1 ST3         1 TEMP              0 ****  ****    0 ROOT
