@<TRIPOS>MOLECULE
ST3
   25    25     1     0     0
SMALL
bcc


@<TRIPOS>ATOM
      1 C'         -0.3280   -0.0750    0.0680 c         1 ST3      0.930200
      2 O1'         0.8120    0.4340    0.0110 o         1 ST3     -0.732300
      3 O2'        -1.0160   -0.4730    1.0250 o         1 ST3     -0.732300
      4 C1         -1.0140   -0.2320   -1.3400 ca        1 ST3     -0.068600
      5 C2         -0.3020    0.2100   -2.4660 ca        1 ST3     -0.064000
      6 C3         -0.8580    0.1130   -3.7420 ca        1 ST3     -0.062400
      7 N3         -0.0600    0.6000   -4.8680 n4        1 ST3     -0.713000
      8 C4         -2.1630   -0.4440   -3.8970 ca        1 ST3     -0.109400
      9 N4         -2.8160   -0.5880   -5.1990 n4        1 ST3     -0.553200
     10 C4'        -3.2850    0.7570   -5.7480 c         1 ST3      0.592100
     11 O4'        -2.4160    1.3870   -6.3350 o         1 ST3     -0.471100
     12 CM4        -4.7050    1.1120   -5.5030 c3        1 ST3     -0.190100
     13 C5         -2.8560   -0.8910   -2.7560 ca        1 ST3     -0.086000
     14 C6         -2.2830   -0.7830   -1.4900 ca        1 ST3     -0.056000
     15 H2          0.7090    0.6300   -2.2580 ha        1 ST3      0.222000
     16 HN31       -0.5220    1.3980   -5.3270 hn        1 ST3      0.467467
     17 HN32        0.1000   -0.1430   -5.5540 hn        1 ST3      0.467467
     18 HN4        -2.1720   -1.0340   -5.8620 hn        1 ST3      0.461800
     19 HM41       -4.8930    2.1440   -5.9090 hc        1 ST3      0.129033
     20 HM42       -4.9340    1.1110   -4.4050 hc        1 ST3      0.129033
     21 HM43       -5.3910    0.3930   -6.0230 hc        1 ST3      0.129033
     22 H5         -3.8620   -1.3390   -2.8480 ha        1 ST3      0.157000
     23 H6         -2.8150   -1.1300   -0.5790 ha        1 ST3      0.223000
     24 H33         0.8560    0.9150   -4.5090 hn        1 ST3      0.467467
     25 H42        -3.6330   -1.2060   -5.0840 hn        1 ST3      0.461800
@<TRIPOS>BOND
     1    1    2 1   
     2    1    3 1   
     3    1    4 1   
     4    4    5 ar  
     5    4   14 ar  
     6    5    6 ar  
     7    5   15 1   
     8    6    7 1   
     9    6    8 ar  
    10    7   16 1   
    11    7   17 1   
    12    7   24 1   
    13    8    9 1   
    14    8   13 ar  
    15    9   10 1   
    16    9   18 1   
    17    9   25 1   
    18   10   11 2   
    19   10   12 1   
    20   12   19 1   
    21   12   20 1   
    22   12   21 1   
    23   13   14 ar  
    24   13   22 1   
    25   14   23 1   
@<TRIPOS>SUBSTRUCTURE
     1 ST3         1 TEMP              0 ****  ****    0 ROOT
