@<TRIPOS>MOLECULE
ST4
   32    32     1     0     0
SMALL
bcc


@<TRIPOS>ATOM
      1 C'          0.0810    0.2320    0.0640 c         1 ST4      0.630700
      2 O1'         1.1630    1.0140    0.3400 oh        1 ST4     -0.559100
      3 O2'        -0.1680   -0.6150    0.9170 o         1 ST4     -0.446000
      4 C1         -0.6570    0.4380   -1.2040 ca        1 ST4     -0.154600
      5 C2          0.0350    0.4950   -2.4100 ca        1 ST4     -0.115000
      6 C3         -0.6470    0.6250   -3.6390 ca        1 ST4      0.065600
      7 N3          0.1130    0.7260   -4.8320 nh        1 ST4     -0.725600
      8 C3'         1.0880   -0.3120   -5.1010 c3        1 ST4      0.676900
      9 N1          0.3960   -1.7190   -5.4030 n4        1 ST4     -0.908600
     10 N2          2.0170   -0.0650   -6.1740 n3        1 ST4     -0.955800
     11 C4         -2.0710    0.7530   -3.6200 ca        1 ST4      0.046600
     12 N4         -2.8400    0.9960   -4.7790 n         1 ST4     -0.479100
     13 C4'        -2.8770    0.1950   -5.9100 c         1 ST4      0.695100
     14 O4         -2.0210   -0.7020   -6.0880 o         1 ST4     -0.699100
     15 CM4        -3.9540    0.4730   -6.9250 c3        1 ST4     -0.180100
     16 C5         -2.7420    0.7080   -2.3770 ca        1 ST4     -0.138000
     17 C6         -2.0510    0.5360   -1.1860 ca        1 ST4     -0.049000
     18 H2          1.1370    0.4530   -2.3850 ha        1 ST4      0.148000
     19 HN3        -0.4100    1.0290   -5.6320 hn        1 ST4      0.431800
     20 H3'         1.6630   -0.5350   -4.1400 hx        1 ST4      0.115700
     21 HN11       -0.0640   -1.7050   -6.3180 hn        1 ST4      0.454800
     22 HN12       -0.3210   -1.8980   -4.6990 hn        1 ST4      0.454800
     23 HN21        2.9100    0.2340   -5.8440 hn        1 ST4      0.423800
     24 HN22        1.6750    0.4980   -6.9240 hn        1 ST4      0.423800
     25 HN4        -3.6060    1.6260   -4.6450 hn        1 ST4      0.340500
     26 HM41       -3.9490    1.5470   -7.2340 hc        1 ST4      0.090033
     27 HM42       -4.9560    0.2210   -6.4970 hc        1 ST4      0.090033
     28 HM43       -3.7750   -0.1670   -7.8250 hc        1 ST4      0.090033
     29 H5         -3.8410    0.8070   -2.3420 ha        1 ST4      0.163000
     30 H6         -2.5950    0.4710   -0.2270 ha        1 ST4      0.182000
     31 H13         1.0990   -2.4550   -5.3910 hn        1 ST4      0.454800
     32 H23         1.2290    1.7360   -0.3020 ho        1 ST4      0.432000
@<TRIPOS>BOND
     1    1    2 1   
     2    1    3 2   
     3    1    4 1   
     4    2   32 1   
     5    4    5 ar  
     6    4   17 ar  
     7    5    6 ar  
     8    5   18 1   
     9    6    7 1   
    10    6   11 ar  
    11    7    8 1   
    12    7   19 1   
    13    8    9 1   
    14    8   10 1   
    15    8   20 1   
    16    9   21 1   
    17    9   22 1   
    18    9   31 1   
    19   10   23 1   
    20   10   24 1   
    21   11   12 1   
    22   11   16 ar  
    23   12   13 1   
    24   12   25 1   
    25   13   14 2   
    26   13   15 1   
    27   15   26 1   
    28   15   27 1   
    29   15   28 1   
    30   16   17 ar  
    31   16   29 1   
    32   17   30 1   
@<TRIPOS>SUBSTRUCTURE
     1 ST4         1 TEMP              0 ****  ****    0 ROOT
