@<TRIPOS>MOLECULE
ST4
   30    30     1     0     0
SMALL
bcc


@<TRIPOS>ATOM
      1 C'          1.0860   -0.0080   -3.3430 c         1 ST4      0.908200
      2 O1'         0.0370   -0.0610   -4.0460 o         1 ST4     -0.827300
      3 O2'         2.2530    0.1040   -3.8090 o         1 ST4     -0.827300
      4 C1          0.9260   -0.0830   -1.8290 ca        1 ST4     -0.104600
      5 C2         -0.3340   -0.3000   -1.2780 ca        1 ST4     -0.156000
      6 C3         -0.5390   -0.3620    0.1160 ca        1 ST4      0.065600
      7 N3         -1.8230   -0.6180    0.6640 nh        1 ST4     -0.737600
      8 C3'        -2.9910   -0.1420   -0.1310 c3        1 ST4      0.624900
      9 N1         -4.2420   -0.4350    0.6230 n3        1 ST4     -0.936800
     10 N2         -2.9670    1.2600   -0.5880 n3        1 ST4     -0.936800
     11 C4          0.6120   -0.2640    0.9640 ca        1 ST4     -0.031400
     12 N4          0.4830   -0.4490    2.3630 n         1 ST4     -0.472100
     13 C4'         1.1670    0.2480    3.3370 c         1 ST4      0.654100
     14 O4          1.9180    1.2150    3.0980 o         1 ST4     -0.606100
     15 CM4         0.9440   -0.2100    4.7650 c3        1 ST4     -0.179100
     16 C5          1.8760   -0.0270    0.3900 ca        1 ST4     -0.130000
     17 C6          2.0280    0.0720   -0.9860 ca        1 ST4     -0.120000
     18 H2         -1.1630   -0.4320   -1.9960 ha        1 ST4      0.160000
     19 HN3        -1.8920   -0.2940    1.6110 hn        1 ST4      0.369800
     20 H3'        -2.9670   -0.7720   -1.0860 h3        1 ST4      0.061700
     21 HN11       -5.0080    0.0590    0.2100 hn        1 ST4      0.363550
     22 HN12       -4.4180   -1.4180    0.5730 hn        1 ST4      0.363550
     23 HN21       -2.8480    1.8990    0.1710 hn        1 ST4      0.363550
     24 HN22       -2.2290    1.3880   -1.2540 hn        1 ST4      0.363550
     25 HN4        -0.0370   -1.2480    2.6450 hn        1 ST4      0.308500
     26 HM41        1.5310    0.4520    5.4460 hc        1 ST4      0.056700
     27 HM42       -0.1360   -0.1430    5.0360 hc        1 ST4      0.056700
     28 HM43        1.2890   -1.2630    4.8960 hc        1 ST4      0.056700
     29 H5          2.7500    0.0990    1.0480 ha        1 ST4      0.132000
     30 H6          3.0150    0.2610   -1.4380 ha        1 ST4      0.157000
@<TRIPOS>BOND
     1    1    2 1   
     2    1    3 1   
     3    1    4 1   
     4    4    5 ar  
     5    4   17 ar  
     6    5    6 ar  
     7    5   18 1   
     8    6    7 1   
     9    6   11 ar  
    10    7    8 1   
    11    7   19 1   
    12    8    9 1   
    13    8   10 1   
    14    8   20 1   
    15    9   21 1   
    16    9   22 1   
    17   10   23 1   
    18   10   24 1   
    19   11   12 1   
    20   11   16 ar  
    21   12   13 1   
    22   12   25 1   
    23   13   14 2   
    24   13   15 1   
    25   15   26 1   
    26   15   27 1   
    27   15   28 1   
    28   16   17 ar  
    29   16   29 1   
    30   17   30 1   
@<TRIPOS>SUBSTRUCTURE
     1 ST4         1 TEMP              0 ****  ****    0 ROOT
