@<TRIPOS>MOLECULE
ST4
   30    30     1     0     0
SMALL
bcc


@<TRIPOS>ATOM
      1 C'         -0.1270    0.2910    0.4260 c         1 ST4      0.910200
      2 O1'         1.0760    0.6640    0.5300 o         1 ST4     -0.827300
      3 O2'        -0.8480   -0.0780    1.3950 o         1 ST4     -0.827300
      4 C1         -0.7480    0.2870   -0.9650 ca        1 ST4     -0.131600
      5 C2         -0.0010    0.6980   -2.0660 ca        1 ST4     -0.115000
      6 C3         -0.5420    0.7110   -3.3640 ca        1 ST4     -0.015400
      7 N3          0.2290    1.1660   -4.4820 nh        1 ST4     -0.741600
      8 C3'         1.1120    0.0730   -5.0170 c3        1 ST4      0.601900
      9 N1          0.3500   -1.0660   -5.5730 n3        1 ST4     -0.921800
     10 N2          2.1130    0.6230   -5.9560 n3        1 ST4     -0.921800
     11 C4         -1.9010    0.3010   -3.5480 ca        1 ST4      0.035600
     12 N4         -2.4730    0.3610   -4.8380 n         1 ST4     -0.463100
     13 C4'        -3.6190   -0.2640   -5.2820 c         1 ST4      0.652100
     14 O4         -4.2920   -1.0640   -4.6020 o         1 ST4     -0.610100
     15 CM4        -4.0380    0.0590   -6.7040 c3        1 ST4     -0.179100
     16 C5         -2.6390   -0.1210   -2.4250 ca        1 ST4     -0.171000
     17 C6         -2.0660   -0.1290   -1.1580 ca        1 ST4     -0.088000
     18 H2          1.0410    1.0170   -1.8840 ha        1 ST4      0.159000
     19 HN3         0.8000    1.9420   -4.1980 hn        1 ST4      0.382800
     20 H3'         1.7250   -0.3680   -4.1570 h3        1 ST4      0.067700
     21 HN11       -0.3200   -0.7640   -6.2530 hn        1 ST4      0.351050
     22 HN12       -0.1380   -1.5350   -4.8330 hn        1 ST4      0.351050
     23 HN21        1.6760    1.0420   -6.7530 hn        1 ST4      0.351050
     24 HN22        2.7050   -0.1220   -6.2700 hn        1 ST4      0.351050
     25 HN4        -2.0260    0.9850   -5.4740 hn        1 ST4      0.320500
     26 HM41       -3.2320   -0.2150   -7.4250 hc        1 ST4      0.057033
     27 HM42       -4.9560   -0.5280   -6.9450 hc        1 ST4      0.057033
     28 HM43       -4.2650    1.1470   -6.8050 hc        1 ST4      0.057033
     29 H5         -3.6810   -0.4570   -2.5480 ha        1 ST4      0.149000
     30 H6         -2.6450   -0.4610   -0.2800 ha        1 ST4      0.159000
@<TRIPOS>BOND
     1    1    2 1   
     2    1    3 1   
     3    1    4 1   
     4    4    5 ar  
     5    4   17 ar  
     6    5    6 ar  
     7    5   18 1   
     8    6    7 1   
     9    6   11 ar  
    10    7    8 1   
    11    7   19 1   
    12    8    9 1   
    13    8   10 1   
    14    8   20 1   
    15    9   21 1   
    16    9   22 1   
    17   10   23 1   
    18   10   24 1   
    19   11   12 1   
    20   11   16 ar  
    21   12   13 1   
    22   12   25 1   
    23   13   14 2   
    24   13   15 1   
    25   15   26 1   
    26   15   27 1   
    27   15   28 1   
    28   16   17 ar  
    29   16   29 1   
    30   17   30 1   
@<TRIPOS>SUBSTRUCTURE
     1 ST4         1 TEMP              0 ****  ****    0 ROOT
