@<TRIPOS>MOLECULE
ST4
   32    32     1     0     0
SMALL
bcc


@<TRIPOS>ATOM
      1 C'          0.1620    0.3090    0.0410 c         1 ST4      0.630700
      2 O1'         1.2450    1.1010    0.2820 oh        1 ST4     -0.559100
      3 O2'        -0.0660   -0.5240    0.9140 o         1 ST4     -0.446000
      4 C1         -0.6020    0.4890   -1.2150 ca        1 ST4     -0.154600
      5 C2          0.0650    0.5270   -2.4350 ca        1 ST4     -0.115000
      6 C3         -0.6410    0.6320   -3.6530 ca        1 ST4      0.065600
      7 N3          0.0940    0.7160   -4.8620 nu        1 ST4     -0.725600
      8 C3'         1.0680   -0.3230   -5.1320 c3        1 ST4      0.676900
      9 N1          0.3770   -1.7380   -5.3950 nz        1 ST4     -0.908600
     10 N2          1.9740   -0.0910   -6.2280 n8        1 ST4     -0.955800
     11 C4         -2.0650    0.7550   -3.6070 ca        1 ST4      0.046600
     12 N4         -2.8590    0.9740   -4.7540 ns        1 ST4     -0.479100
     13 C4'        -2.9150    0.1520   -5.8700 c         1 ST4      0.695100
     14 O4         -2.0580   -0.7430   -6.0490 o         1 ST4     -0.699100
     15 CM4        -4.0120    0.4080   -6.8680 c3        1 ST4     -0.180100
     16 C5         -2.7110    0.7300   -2.3500 ca        1 ST4     -0.138000
     17 C6         -1.9960    0.5810   -1.1700 ca        1 ST4     -0.049000
     18 H2          1.1680    0.4910   -2.4310 ha        1 ST4      0.148000
     19 HN3        -0.4460    1.0020   -5.6560 hn        1 ST4      0.431800
     20 H3'         1.6630   -0.5260   -4.1790 hx        1 ST4      0.115700
     21 HN11       -0.1010   -1.7420   -6.3010 hn        1 ST4      0.454800
     22 HN12       -0.3260   -1.9070   -4.6740 hn        1 ST4      0.454800
     23 HN21        1.6150    0.4570   -6.9800 hn        1 ST4      0.423800
     24 HN22        1.2950    1.8110   -0.3740 ho        1 ST4      0.432000
     25 HN4        -3.6240    1.6030   -4.6160 hn        1 ST4      0.340500
     26 HM41       -4.0150    1.4750   -7.1990 hc        1 ST4      0.090033
     27 HM42       -3.8510   -0.2500   -7.7580 hc        1 ST4      0.090033
     28 HM43       -5.0050    0.1640   -6.4150 hc        1 ST4      0.090033
     29 H5         -3.8100    0.8250   -2.2950 ha        1 ST4      0.163000
     30 H6         -2.5210    0.5310   -0.2000 ha        1 ST4      0.182000
     31 H13         1.0840   -2.4710   -5.3840 hn        1 ST4      0.454800
     32 H23         2.8730    0.2180   -5.9210 hn        1 ST4      0.423800
@<TRIPOS>BOND
     1    1    2 1   
     2    1    3 2   
     3    1    4 1   
     4    2   24 1   
     5    4    5 ar  
     6    4   17 ar  
     7    5    6 ar  
     8    5   18 1   
     9    6    7 1   
    10    6   11 ar  
    11    7    8 1   
    12    7   19 1   
    13    8    9 1   
    14    8   10 1   
    15    8   20 1   
    16    9   21 1   
    17    9   22 1   
    18    9   31 1   
    19   10   23 1   
    20   10   32 1   
    21   11   12 1   
    22   11   16 ar  
    23   12   13 1   
    24   12   25 1   
    25   13   14 2   
    26   13   15 1   
    27   15   26 1   
    28   15   27 1   
    29   15   28 1   
    30   16   17 ar  
    31   16   29 1   
    32   17   30 1   
@<TRIPOS>SUBSTRUCTURE
     1 ST4         1 TEMP              0 ****  ****    0 ROOT
