@<TRIPOS>MOLECULE
ST5
   31    31     1     0     0
SMALL
bcc


@<TRIPOS>ATOM
      1 C'         -1.0820   -1.4720    0.0540 c         1 ST5      0.749600
      2 O1'        -0.3040   -0.4050    0.3830 os        1 ST5     -0.339900
      3 O2'        -1.4260   -2.5140    0.5320 o         1 ST5     -0.414500
      4 C1         -0.9800   -0.3870   -0.9490 cx        1 ST5      0.018200
      5 C2         -0.0610   -0.5210   -2.0880 c2        1 ST5     -0.025200
      6 C3         -0.4260   -0.0910   -3.3190 ce        1 ST5     -0.122600
      7 N3          0.4730   -0.2410   -4.4650 n4        1 ST5     -0.549600
      8 C3'         1.1180    1.0770   -4.8800 c         1 ST5      0.521100
      9 O3          1.7800    1.6590   -4.0400 o         1 ST5     -0.389100
     10 CM3         0.8390    1.5220   -6.3100 c3        1 ST5      0.075400
     11 O3'         0.7580    0.4010   -7.1530 oh        1 ST5     -0.594800
     12 C4         -1.7500    0.5750   -3.5580 ce        1 ST5      0.584900
     13 N4         -2.1900    0.6800   -4.7650 nf        1 ST5     -0.703100
     14 C4'        -3.4190    1.3080   -5.1420 c         1 ST5      0.705500
     15 O4         -3.6320    2.4890   -4.8440 o         1 ST5     -0.515100
     16 CM4        -4.3470    0.4870   -5.9900 c3        1 ST5     -0.166100
     17 C5         -2.4120    1.0340   -2.3240 ce        1 ST5     -0.250600
     18 C6         -2.0530    0.6050   -1.1070 c2        1 ST5     -0.084200
     19 H2          0.9220   -0.9770   -1.8650 ha        1 ST5      0.181000
     20 HN3         1.2160   -0.9110   -4.2320 hn        1 ST5      0.479300
     21 HM31        1.6380    2.2530   -6.6060 h1        1 ST5      0.126700
     22 HM32       -0.1740    2.0220   -6.3180 h1        1 ST5      0.126700
     23 HO3         1.5150    0.4090   -7.7570 ho        1 ST5      0.451000
     24 HN4        -0.3670   -1.6440   -7.3550 ha        1 ST5      0.005000
     25 HM41       -3.8530    0.2280   -6.9590 hc        1 ST5      0.087033
     26 HM42       -4.6330   -0.4570   -5.4660 hc        1 ST5      0.087033
     27 HM43       -5.2680    1.0870   -6.2000 hc        1 ST5      0.087033
     28 H5         -3.2260    1.7720   -2.4590 ha        1 ST5      0.196000
     29 H6         -2.5380    0.9640   -0.1820 ha        1 ST5      0.191000
     30 H32        -0.0600   -0.6110   -5.2770 hn        1 ST5      0.479300
     31 H42         0.0690   -1.8810   -6.8920 ha        1 ST5      0.005000
@<TRIPOS>BOND
     1    1    2 1   
     2    1    3 2   
     3    1    4 1   
     4    2    4 1   
     5    4    5 1   
     6    4   18 1   
     7    5    6 2   
     8    5   19 1   
     9    6    7 1   
    10    6   12 1   
    11    7    8 1   
    12    7   20 1   
    13    7   30 1   
    14    8    9 2   
    15    8   10 1   
    16   10   11 1   
    17   10   21 1   
    18   10   22 1   
    19   11   23 1   
    20   12   13 2   
    21   12   17 1   
    22   13   14 1   
    23   14   15 2   
    24   14   16 1   
    25   16   25 1   
    26   16   26 1   
    27   16   27 1   
    28   17   18 2   
    29   17   28 1   
    30   18   29 1   
    31   24   31 1   
@<TRIPOS>SUBSTRUCTURE
     1 ST5         1 TEMP              0 ****  ****    0 ROOT
