@<TRIPOS>MOLECULE
ST5
   29    29     1     0     0
SMALL
bcc


@<TRIPOS>ATOM
      1 C'          2.2380   -0.1970   -2.9930 c         1 ST5      0.911200
      2 O1'         1.4480   -0.4820   -3.9370 o         1 ST5     -0.827300
      3 O2'         3.4680    0.0450   -3.1370 o         1 ST5     -0.827300
      4 C1          1.6620   -0.1410   -1.5830 ca        1 ST5     -0.127600
      5 C2          0.3070   -0.3830   -1.3810 ca        1 ST5     -0.118000
      6 C3         -0.2650   -0.3400   -0.0930 ca        1 ST5     -0.042400
      7 N3         -1.6350   -0.6960    0.0360 n         1 ST5     -0.434100
      8 C3'        -2.6470    0.1340    0.4530 c         1 ST5      0.610100
      9 O3         -2.4780    1.1680    1.1370 o         1 ST5     -0.633100
     10 CM3        -4.0860   -0.2980    0.1460 c3        1 ST5      0.048400
     11 O3'        -4.2180   -1.0460   -1.0430 oh        1 ST5     -0.597800
     12 C4          0.5610   -0.0120    1.0230 ca        1 ST5      0.051600
     13 N4          0.0000    0.1100    2.3120 n         1 ST5     -0.467100
     14 C4'         0.6430   -0.1340    3.5070 c         1 ST5      0.656100
     15 O4          1.8060   -0.5780    3.5980 o         1 ST5     -0.616100
     16 CM4        -0.1610    0.1520    4.7600 c3        1 ST5     -0.177100
     17 C5          1.9340    0.2190    0.7960 ca        1 ST5     -0.160000
     18 C6          2.4710    0.1500   -0.4830 ca        1 ST5     -0.087000
     19 H2         -0.3020   -0.6220   -2.2710 ha        1 ST5      0.156000
     20 HN3        -1.9090   -1.4490   -0.5630 hn        1 ST5      0.319500
     21 HM31       -4.4450   -0.9830    0.9610 h1        1 ST5      0.070700
     22 HM32       -4.7250    0.6240    0.1120 h1        1 ST5      0.070700
     23 HO3        -3.9530   -0.4760   -1.7760 ho        1 ST5      0.412000
     24 HN4        -0.9110    0.5140    2.3540 hn        1 ST5      0.334500
     25 HM41        0.4690   -0.0890    5.6500 hc        1 ST5      0.056700
     26 HM42       -0.4530    1.2280    4.8010 hc        1 ST5      0.056700
     27 HM43       -1.0830   -0.4770    4.7860 hc        1 ST5      0.056700
     28 H5          2.5920    0.4390    1.6520 ha        1 ST5      0.145000
     29 H6          3.5460    0.3280   -0.6560 ha        1 ST5      0.159000
@<TRIPOS>BOND
     1    1    2 1   
     2    1    3 1   
     3    1    4 1   
     4    4    5 ar  
     5    4   18 ar  
     6    5    6 ar  
     7    5   19 1   
     8    6    7 1   
     9    6   12 ar  
    10    7    8 1   
    11    7   20 1   
    12    8    9 2   
    13    8   10 1   
    14   10   11 1   
    15   10   21 1   
    16   10   22 1   
    17   11   23 1   
    18   12   13 1   
    19   12   17 ar  
    20   13   14 1   
    21   13   24 1   
    22   14   15 2   
    23   14   16 1   
    24   16   25 1   
    25   16   26 1   
    26   16   27 1   
    27   17   18 ar  
    28   17   28 1   
    29   18   29 1   
@<TRIPOS>SUBSTRUCTURE
     1 ST5         1 TEMP              0 ****  ****    0 ROOT
