@<TRIPOS>MOLECULE
ST5
   29    26     1     0     0
SMALL
bcc


@<TRIPOS>ATOM
      1 C'          2.1920    0.9780    3.4490 c1        1 ST5      0.360000
      2 O1'         3.4000    0.6340    3.5910 o         1 ST5     -0.568000
      3 O2'         1.5210    1.3650    4.4540 os        1 ST5     -0.555000
      4 C1          1.5650    0.9500    2.1020 c2        1 ST5     -0.107000
      5 C2          0.8050   -0.1480    1.7110 c1        1 ST5     -0.117000
      6 C3          0.1940   -0.1590    0.4590 c1        1 ST5     -0.037000
      7 N3         -0.5770   -1.2520    0.0670 n         1 ST5     -0.284000
      8 C3'        -1.1770   -2.0830    1.0430 c2        1 ST5      0.260000
      9 O3         -1.0210   -1.8450    2.2220 o         1 ST5     -0.403000
     10 CM3        -1.9690   -3.3170    0.6130 c3        1 ST5     -0.044000
     11 O3'        -2.5870   -3.9260    1.7770 oh        1 ST5     -0.330000
     12 C4          0.3440    0.9310   -0.4040 c1        1 ST5      0.059000
     13 N4         -0.2790    0.9120   -1.7010 n2        1 ST5     -0.323000
     14 C4'         0.2140    1.7690   -2.7540 c2        1 ST5      0.301000
     15 O4          1.1510    2.5040   -2.5480 o         1 ST5     -0.376000
     16 CM4        -0.4380    1.7210   -4.1520 c3        1 ST5     -0.245000
     17 C5          1.1000    2.0240   -0.0160 c2        1 ST5     -0.160000
     18 C6          1.7130    2.0410    1.2350 c2        1 ST5     -0.086000
     19 H2          0.7670   -0.9480    2.2830 ha        1 ST5      0.157000
     20 HN3        -0.6520   -1.4640   -0.8290 hn        1 ST5      0.225000
     21 HM31       -2.6590   -3.0550   -0.0220 h1        1 ST5      0.101000
     22 HM32       -1.3670   -3.9570    0.1910 h1        1 ST5      0.101000
     23 HO3        -3.0170   -4.6900    1.5290 ho        1 ST5      0.228000
     24 HN4        -0.9260    0.3060   -1.8800 hn        1 ST5      0.248000
     25 HM41       -0.4740    0.7940   -4.4620 hc        1 ST5      0.097000
     26 HM42       -1.3630    2.0900   -4.0990 hc        1 ST5      0.097000
     27 HM43        0.0870    2.2510   -4.7750 hc        1 ST5      0.097000
     28 H5          1.1980    2.7510   -0.5940 ha        1 ST5      0.145000
     29 H6          2.2540    2.8240    1.5100 ha        1 ST5      0.160000
@<TRIPOS>BOND
     1    1    2 1   
     2    1    4 1   
     3    4    5 1   
     4    4   18 1   
     5    5   19 1   
     6    6    7 1   
     7    6   12 1   
     8    7    8 1   
     9    7   20 1   
    10    8    9 1   
    11    8   10 1   
    12   10   11 1   
    13   10   21 1   
    14   10   22 1   
    15   11   23 1   
    16   12   17 1   
    17   13   14 1   
    18   13   24 1   
    19   14   15 1   
    20   14   16 1   
    21   16   25 1   
    22   16   26 1   
    23   16   27 1   
    24   17   18 1   
    25   17   28 1   
    26   18   29 1   
@<TRIPOS>SUBSTRUCTURE
     1 ST5         1 TEMP              0 ****  ****    0 ROOT
