@<TRIPOS>MOLECULE
ST5
   29    29     1     0     0
SMALL
bcc


@<TRIPOS>ATOM
      1 C'          0.1090   -0.2670    0.2190 c         1 ST5      0.911200
      2 O1'         1.3340   -0.5720    0.1630 o         1 ST5     -0.827300
      3 O2'        -0.5440   -0.1200    1.2890 o         1 ST5     -0.827300
      4 C1         -0.6280   -0.0620   -1.0990 ca        1 ST5     -0.127600
      5 C2          0.0580   -0.1970   -2.3020 ca        1 ST5     -0.118000
      6 C3         -0.5880   -0.0150   -3.5420 ca        1 ST5     -0.042400
      7 N3          0.1630   -0.2680   -4.7230 n         1 ST5     -0.434100
      8 C3'         0.4880    0.6580   -5.6840 c         1 ST5      0.610100
      9 O3         -0.1310    1.7300   -5.8730 o         1 ST5     -0.633100
     10 CM3         1.6200    0.3000   -6.6550 c3        1 ST5      0.048400
     11 O3'         2.6140   -0.5280   -6.0940 oh        1 ST5     -0.597800
     12 C4         -1.9680    0.3450   -3.5610 ca        1 ST5      0.051600
     13 N4         -2.6190    0.6050   -4.7850 n         1 ST5     -0.467100
     14 C4'        -3.9580    0.4140   -5.0520 c         1 ST5      0.656100
     15 O4         -4.7660   -0.0970   -4.2500 o         1 ST5     -0.616100
     16 CM4        -4.4260    0.8510   -6.4270 c3        1 ST5     -0.177100
     17 C5         -2.6460    0.4650   -2.3290 ca        1 ST5     -0.160000
     18 C6         -1.9870    0.2600   -1.1240 ca        1 ST5     -0.087000
     19 H2          1.1280   -0.4640   -2.2460 ha        1 ST5      0.156000
     20 HN3         0.7860   -1.0450   -4.6390 hn        1 ST5      0.319500
     21 HM31        2.0640    1.2570   -7.0370 h1        1 ST5      0.070700
     22 HM32        1.1960   -0.2930   -7.5100 h1        1 ST5      0.070700
     23 HO3         3.0310   -0.0370   -5.3740 ho        1 ST5      0.412000
     24 HN4        -2.0730    1.0710   -5.4790 hn        1 ST5      0.334500
     25 HM41       -5.5190    0.6400   -6.5150 hc        1 ST5      0.056700
     26 HM42       -4.2520    1.9440   -6.5710 hc        1 ST5      0.056700
     27 HM43       -3.8820    0.2880   -7.2230 hc        1 ST5      0.056700
     28 H5         -3.7210    0.7080   -2.3280 ha        1 ST5      0.145000
     29 H6         -2.5210    0.3520   -0.1640 ha        1 ST5      0.159000
@<TRIPOS>BOND
     1    1    2 1   
     2    1    3 1   
     3    1    4 1   
     4    4    5 ar  
     5    4   18 ar  
     6    5    6 ar  
     7    5   19 1   
     8    6    7 1   
     9    6   12 ar  
    10    7    8 1   
    11    7   20 1   
    12    8    9 2   
    13    8   10 1   
    14   10   11 1   
    15   10   21 1   
    16   10   22 1   
    17   11   23 1   
    18   12   13 1   
    19   12   17 ar  
    20   13   14 1   
    21   13   24 1   
    22   14   15 2   
    23   14   16 1   
    24   16   25 1   
    25   16   26 1   
    26   16   27 1   
    27   17   18 ar  
    28   17   28 1   
    29   18   29 1   
@<TRIPOS>SUBSTRUCTURE
     1 ST5         1 TEMP              0 ****  ****    0 ROOT
