@<TRIPOS>MOLECULE
ST5
   29    29     1     0     0
SMALL
bcc


@<TRIPOS>ATOM
      1 C'          0.0920   -0.2120    0.2310 c         1 ST5      0.911200
      2 O1'         1.3230   -0.4940    0.1840 o         1 ST5     -0.827300
      3 O2'        -0.5700   -0.0690    1.2950 o         1 ST5     -0.827300
      4 C1         -0.6400   -0.0310   -1.0930 ca        1 ST5     -0.127600
      5 C2          0.0560   -0.1620   -2.2910 ca        1 ST5     -0.118000
      6 C3         -0.5850   -0.0020   -3.5370 ca        1 ST5     -0.042400
      7 N3          0.1770   -0.2500   -4.7110 ns        1 ST5     -0.434100
      8 C3'         0.4910    0.6740   -5.6770 c         1 ST5      0.610100
      9 O3         -0.1460    1.7330   -5.8780 o         1 ST5     -0.633100
     10 CM3         1.6350    0.3300   -6.6380 c3        1 ST5      0.048400
     11 O3'         2.6410   -0.4760   -6.0660 oh        1 ST5     -0.597800
     12 C4         -1.9720    0.3320   -3.5670 ca        1 ST5      0.051600
     13 N4         -2.6200    0.5710   -4.7960 ns        1 ST5     -0.467100
     14 C4'        -3.9530    0.3520   -5.0710 c         1 ST5      0.656100
     15 O4         -4.7560   -0.1690   -4.2700 o         1 ST5     -0.616100
     16 CM4        -4.4210    0.7690   -6.4520 c3        1 ST5     -0.177100
     17 C5         -2.6600    0.4490   -2.3400 ca        1 ST5     -0.160000
     18 C6         -2.0050    0.2660   -1.1290 ca        1 ST5     -0.087000
     19 H2          1.1300   -0.4090   -2.2270 ha        1 ST5      0.156000
     20 HN3         0.8140   -1.0150   -4.6170 hn        1 ST5      0.319500
     21 HM31        1.2270   -0.2780   -7.4910 h1        1 ST5      0.070700
     22 HM32        2.0640    1.2920   -7.0260 h1        1 ST5      0.070700
     23 HO3         3.0440    0.0290   -5.3470 ho        1 ST5      0.412000
     24 HN4        -2.0790    1.0410   -5.4910 hn        1 ST5      0.334500
     25 HM41       -3.8600    0.2130   -7.2400 hc        1 ST5      0.056700
     26 HM42       -5.5080    0.5350   -6.5450 hc        1 ST5      0.056700
     27 HM43       -4.2690    1.8650   -6.6020 hc        1 ST5      0.056700
     28 H5         -3.7390    0.6710   -2.3470 ha        1 ST5      0.145000
     29 H6         -2.5460    0.3550   -0.1730 ha        1 ST5      0.159000
@<TRIPOS>BOND
     1    1    2 1   
     2    1    3 1   
     3    1    4 1   
     4    4    5 ar  
     5    4   18 ar  
     6    5    6 ar  
     7    5   19 1   
     8    6    7 1   
     9    6   12 ar  
    10    7    8 1   
    11    7   20 1   
    12    8    9 2   
    13    8   10 1   
    14   10   11 1   
    15   10   21 1   
    16   10   22 1   
    17   11   23 1   
    18   12   13 1   
    19   12   17 ar  
    20   13   14 1   
    21   13   24 1   
    22   14   15 2   
    23   14   16 1   
    24   16   25 1   
    25   16   26 1   
    26   16   27 1   
    27   17   18 ar  
    28   17   28 1   
    29   18   29 1   
@<TRIPOS>SUBSTRUCTURE
     1 ST5         1 TEMP              0 ****  ****    0 ROOT
