@<TRIPOS>MOLECULE
ST6
   33    33     1     0     0
SMALL
bcc


@<TRIPOS>ATOM
      1 C'          0.3080   -0.4300   -0.2760 c         1 ST6      0.626700
      2 O1'         0.4130    0.5490    0.6510 oh        1 ST6     -0.510100
      3 O2'         0.8170   -1.5060    0.0330 o         1 ST6     -0.427000
      4 C1         -0.3770   -0.2040   -1.5830 ca        1 ST6     -0.099600
      5 C2         -0.0630   -1.1010   -2.6150 ca        1 ST6     -0.047000
      6 C3         -0.6730   -1.0000   -3.8740 ca        1 ST6      0.010600
      7 N3         -0.3110   -1.9920   -4.8870 n4        1 ST6     -0.541200
      8 C3'         0.6470   -1.4480   -5.9560 c2        1 ST6      0.544300
      9 O3          0.1310   -0.5780   -6.6990 o         1 ST6     -0.694300
     10 CM3         1.9110   -2.0050   -5.9820 c2        1 ST6     -0.406000
     11 N3'         2.8450   -1.6030   -7.0040 n4        1 ST6     -0.652400
     12 C4         -1.6210    0.0410   -4.0980 ca        1 ST6      0.014600
     13 N4         -2.2810    0.2510   -5.3890 n4        1 ST6     -0.592200
     14 C4'        -3.4630   -0.7000   -5.6280 c         1 ST6      0.592100
     15 O4         -3.1730   -1.8850   -5.6310 o         1 ST6     -0.441100
     16 CM4        -4.7800   -0.0490   -5.8490 c3        1 ST6     -0.193100
     17 C5         -1.9310    0.9210   -3.0490 ca        1 ST6     -0.091000
     18 C6         -1.3180    0.7970   -1.7990 ca        1 ST6     -0.044000
     19 H2          0.6710   -1.9040   -2.3860 ha        1 ST6      0.207000
     20 HN3         0.1290   -2.7950   -4.4160 hn        1 ST6      0.475300
     21 HM31        2.2950   -2.7630   -5.2860 hx        1 ST6      0.205000
     22 HM32        0.0630    1.3920    0.3260 ho        1 ST6      0.439000
     23 HN31        2.4280   -0.8960   -7.6240 hn        1 ST6      0.463800
     24 HN32        3.6870   -1.2100   -6.5630 hn        1 ST6      0.463800
     25 HN33        3.1130   -2.4230   -7.5640 hn        1 ST6      0.463800
     26 HN4        -1.5890    0.1330   -6.1580 hn        1 ST6      0.490800
     27 HM41       -5.5540   -0.8530   -5.9970 hc        1 ST6      0.133033
     28 HM42       -5.0790    0.5750   -4.9680 hc        1 ST6      0.133033
     29 HM43       -4.7590    0.5950   -6.7690 hc        1 ST6      0.133033
     30 H5         -2.6660    1.7370   -3.1880 ha        1 ST6      0.184000
     31 H6         -1.6070    1.4980   -0.9910 ha        1 ST6      0.197000
     32 H32        -1.1590   -2.3340   -5.3640 hn        1 ST6      0.475300
     33 H42        -2.6240    1.2210   -5.4280 hn        1 ST6      0.490800
@<TRIPOS>BOND
     1    1    2 1   
     2    1    3 2   
     3    1    4 1   
     4    2   22 1   
     5    4    5 ar  
     6    4   18 ar  
     7    5    6 ar  
     8    5   19 1   
     9    6    7 1   
    10    6   12 ar  
    11    7    8 1   
    12    7   20 1   
    13    7   32 1   
    14    8    9 1   
    15    8   10 2   
    16   10   11 1   
    17   10   21 1   
    18   11   23 1   
    19   11   24 1   
    20   11   25 1   
    21   12   13 1   
    22   12   17 ar  
    23   13   14 1   
    24   13   26 1   
    25   13   33 1   
    26   14   15 2   
    27   14   16 1   
    28   16   27 1   
    29   16   28 1   
    30   16   29 1   
    31   17   18 ar  
    32   17   30 1   
    33   18   31 1   
@<TRIPOS>SUBSTRUCTURE
     1 ST6         1 TEMP              0 ****  ****    0 ROOT
