@<TRIPOS>MOLECULE
ST6
   31    28     1     0     0
SMALL
bcc


@<TRIPOS>ATOM
      1 C'          2.4550    1.2190    3.2720 c1        1 ST6      0.344000
      2 O1'         3.6190    0.7700    3.4420 o         1 ST6     -0.300000
      3 O2'         1.8390    1.7510    4.2330 os        1 ST6     -0.283000
      4 C1          1.8110    1.1530    1.9040 c2        1 ST6     -0.137000
      5 C2          0.8800    0.1650    1.6240 c1        1 ST6     -0.117000
      6 C3          0.3070    0.0900    0.3630 c1        1 ST6      0.088000
      7 N3         -0.6340   -0.9350    0.0690 n         1 ST6     -0.325000
      8 C3'        -0.8780   -1.9680    1.0140 c2        1 ST6      0.258000
      9 O3         -0.2840   -1.9740    2.0720 o         1 ST6     -0.371000
     10 CM3        -1.8300   -3.0930    0.6750 c3        1 ST6     -0.093000
     11 N3'        -2.9570   -3.0440    1.5510 n4        1 ST6     -0.318000
     12 C4          0.6650    1.0040   -0.6160 c1        1 ST6      0.041000
     13 N4          0.0870    0.9190   -1.9130 n2        1 ST6     -0.333000
     14 C4'         0.4290    1.8750   -2.9070 c2        1 ST6      0.303000
     15 O4          1.2150    2.7630   -2.6500 o         1 ST6     -0.365000
     16 CM4        -0.1720    1.7740   -4.2910 c3        1 ST6     -0.246000
     17 C5          1.5960    1.9920   -0.3350 c2        1 ST6     -0.150000
     18 C6          2.1690    2.0670    0.9250 c2        1 ST6     -0.079000
     19 H2          0.6040   -0.4570    2.3220 ha        1 ST6      0.171000
     20 HN3        -1.0890   -0.9230   -0.7200 hn        1 ST6      0.259000
     21 HM31       -2.1330   -2.9970   -0.2520 hx        1 ST6      0.117000
     22 HM32       -1.3720   -3.9520    0.7820 hx        1 ST6      0.117000
     23 HN31       -3.5780   -3.6670    1.2860 hn        1 ST6      0.182000
     24 HN32       -3.3320   -2.2060    1.5210 hn        1 ST6      0.182000
     25 HN33       -2.6860   -3.2270    2.4090 hn        1 ST6      0.182000
     26 HN4        -0.4970    0.2470   -2.1090 hn        1 ST6      0.231000
     27 HM41        0.4760    2.0960   -4.9530 hc        1 ST6      0.112333
     28 HM42       -0.9830    2.3210   -4.3350 hc        1 ST6      0.112333
     29 HM43       -0.3970    0.8400   -4.4820 hc        1 ST6      0.112333
     30 H5          1.8470    2.6340   -1.0240 ha        1 ST6      0.141000
     31 H6          2.8240    2.7630    1.1220 ha        1 ST6      0.163000
@<TRIPOS>BOND
     1    1    2 1   
     2    1    4 1   
     3    4    5 1   
     4    4   18 1   
     5    5   19 1   
     6    6    7 1   
     7    6   12 1   
     8    7    8 1   
     9    7   20 1   
    10    8    9 1   
    11    8   10 1   
    12   10   11 1   
    13   10   21 1   
    14   10   22 1   
    15   11   23 1   
    16   11   24 1   
    17   11   25 1   
    18   12   17 1   
    19   13   14 1   
    20   13   26 1   
    21   14   15 1   
    22   14   16 1   
    23   16   27 1   
    24   16   28 1   
    25   16   29 1   
    26   17   18 1   
    27   17   30 1   
    28   18   31 1   
@<TRIPOS>SUBSTRUCTURE
     1 ST6         1 TEMP              0 ****  ****    0 ROOT
