@<TRIPOS>MOLECULE
ST6
   31    31     1     0     0
SMALL
bcc


@<TRIPOS>ATOM
      1 C'          0.8290   -0.0680   -0.7230 c         1 ST6      0.642700
      2 O1'         2.0880   -0.5580   -0.9250 oh        1 ST6     -0.577100
      3 O2'         0.6320    0.3080    0.4350 o         1 ST6     -0.490000
      4 C1         -0.1490   -0.0420   -1.8260 ca        1 ST6     -0.169600
      5 C2          0.2580    0.0490   -3.1550 ca        1 ST6     -0.108000
      6 C3         -0.6820    0.0570   -4.2070 ca        1 ST6      0.054600
      7 N3         -0.2450    0.1980   -5.5330 n         1 ST6     -0.467100
      8 C3'         0.7170   -0.5900   -6.1470 c         1 ST6      0.673100
      9 O3          1.0720   -0.3010   -7.3050 o         1 ST6     -0.597100
     10 CM3         1.3190   -1.8000   -5.4310 c3        1 ST6      0.089800
     11 N3'         2.6560   -1.5310   -4.9570 n3        1 ST6     -0.921800
     12 C4         -2.0740   -0.0210   -3.8850 ca        1 ST6      0.049600
     13 N4         -3.0660    0.0080   -4.8860 n         1 ST6     -0.489100
     14 C4'        -3.1750   -0.9500   -5.8990 c         1 ST6      0.659100
     15 O4         -2.3130   -1.8280   -6.0680 o         1 ST6     -0.576100
     16 CM4        -4.3820   -0.8350   -6.7970 c3        1 ST6     -0.176100
     17 C5         -2.4580   -0.0670   -2.5280 ca        1 ST6     -0.159000
     18 C6         -1.5130   -0.0780   -1.5130 ca        1 ST6     -0.067000
     19 H2          1.3320    0.1410   -3.3980 ha        1 ST6      0.167000
     20 HN3        -0.7690    0.8110   -6.1190 hn        1 ST6      0.331500
     21 HM31        1.2680   -2.6430   -6.1840 h1        1 ST6      0.063200
     22 HM32        0.6900   -2.1020   -4.5450 h1        1 ST6      0.063200
     23 HN31        2.1870   -0.8820   -1.8320 ho        1 ST6      0.436000
     24 HN32        3.1080   -2.3900   -4.7110 hn        1 ST6      0.363300
     25 HN33        3.1970   -1.0650   -5.6610 hn        1 ST6      0.363300
     26 HN4        -3.8900    0.5150   -4.6520 hn        1 ST6      0.316500
     27 HM41       -4.4130    0.1680   -7.2890 hc        1 ST6      0.072367
     28 HM42       -4.3150   -1.6240   -7.5860 hc        1 ST6      0.072367
     29 HM43       -5.3210   -0.9860   -6.2120 hc        1 ST6      0.072367
     30 H5         -3.5270   -0.1020   -2.2620 ha        1 ST6      0.142000
     31 H6         -1.8250   -0.1160   -0.4560 ha        1 ST6      0.164000
@<TRIPOS>BOND
     1    1    2 1   
     2    1    3 2   
     3    1    4 1   
     4    2   23 1   
     5    4    5 ar  
     6    4   18 ar  
     7    5    6 ar  
     8    5   19 1   
     9    6    7 1   
    10    6   12 ar  
    11    7    8 1   
    12    7   20 1   
    13    8    9 2   
    14    8   10 1   
    15   10   11 1   
    16   10   21 1   
    17   10   22 1   
    18   11   24 1   
    19   11   25 1   
    20   12   13 1   
    21   12   17 ar  
    22   13   14 1   
    23   13   26 1   
    24   14   15 2   
    25   14   16 1   
    26   16   27 1   
    27   16   28 1   
    28   16   29 1   
    29   17   18 ar  
    30   17   30 1   
    31   18   31 1   
@<TRIPOS>SUBSTRUCTURE
     1 ST6         1 TEMP              0 ****  ****    0 ROOT
