@<TRIPOS>MOLECULE
ST6
   31    31     1     0     0
SMALL
bcc


@<TRIPOS>ATOM
      1 C'          0.8110   -0.1080   -0.7090 c         1 ST6      0.642700
      2 O1'         2.0620   -0.6210   -0.9030 oh        1 ST6     -0.577100
      3 O2'         0.6120    0.2670    0.4480 o         1 ST6     -0.490000
      4 C1         -0.1580   -0.0600   -1.8200 ca        1 ST6     -0.169600
      5 C2          0.2610    0.0270   -3.1460 ca        1 ST6     -0.108000
      6 C3         -0.6700    0.0560   -4.2040 ca        1 ST6      0.054600
      7 N3         -0.2200    0.1930   -5.5270 ns        1 ST6     -0.467100
      8 C3'         0.7310   -0.6110   -6.1360 c         1 ST6      0.673100
      9 O3          1.1000   -0.3250   -7.2900 o         1 ST6     -0.597100
     10 CM3         1.3040   -1.8350   -5.4190 c3        1 ST6      0.089800
     11 N3'         2.6420   -1.5930   -4.9340 n8        1 ST6     -0.921800
     12 C4         -2.0660    0.0030   -3.8940 ca        1 ST6      0.049600
     13 N4         -3.0490    0.0540   -4.9020 ns        1 ST6     -0.489100
     14 C4'        -3.1680   -0.8990   -5.9190 c         1 ST6      0.659100
     15 O4         -2.3210   -1.7920   -6.0850 o         1 ST6     -0.576100
     16 CM4        -4.3660   -0.7580   -6.8270 c3        1 ST6     -0.176100
     17 C5         -2.4620   -0.0400   -2.5400 ca        1 ST6     -0.159000
     18 C6         -1.5240   -0.0730   -1.5180 ca        1 ST6     -0.067000
     19 H2          1.3390    0.1000   -3.3800 ha        1 ST6      0.167000
     20 HN3        -0.7290    0.8190   -6.1140 hn        1 ST6      0.331500
     21 HM31        1.2430   -2.6740   -6.1760 h1        1 ST6      0.063200
     22 HM32        0.6620   -2.1280   -4.5400 h1        1 ST6      0.063200
     23 HN31        3.1980   -1.1350   -5.6310 hn        1 ST6      0.363300
     24 HN32        3.0750   -2.4610   -4.6870 hn        1 ST6      0.363300
     25 HN33        2.1630   -0.9440   -1.8110 ho        1 ST6      0.436000
     26 HN4        -3.8660    0.5750   -4.6730 hn        1 ST6      0.316500
     27 HM41       -4.3730    0.2450   -7.3160 hc        1 ST6      0.072700
     28 HM42       -5.3120   -0.8920   -6.2490 hc        1 ST6      0.072700
     29 HM43       -4.3080   -1.5470   -7.6160 hc        1 ST6      0.072700
     30 H5         -3.5330   -0.0560   -2.2820 ha        1 ST6      0.142000
     31 H6         -1.8450   -0.1080   -0.4630 ha        1 ST6      0.164000
@<TRIPOS>BOND
     1    1    2 1   
     2    1    3 2   
     3    1    4 1   
     4    2   25 1   
     5    4    5 ar  
     6    4   18 ar  
     7    5    6 ar  
     8    5   19 1   
     9    6    7 1   
    10    6   12 ar  
    11    7    8 1   
    12    7   20 1   
    13    8    9 2   
    14    8   10 1   
    15   10   11 1   
    16   10   21 1   
    17   10   22 1   
    18   11   23 1   
    19   11   24 1   
    20   12   13 1   
    21   12   17 ar  
    22   13   14 1   
    23   13   26 1   
    24   14   15 2   
    25   14   16 1   
    26   16   27 1   
    27   16   28 1   
    28   16   29 1   
    29   17   18 ar  
    30   17   30 1   
    31   18   31 1   
@<TRIPOS>SUBSTRUCTURE
     1 ST6         1 TEMP              0 ****  ****    0 ROOT
