@<TRIPOS>MOLECULE
ST6
   31    31     1     0     0
SMALL
bcc


@<TRIPOS>ATOM
      1 C'         48.3700  -20.8030  -23.5710 c         1 ST6      0.642700
      2 O1'        48.1090  -21.3050  -24.8140 oh        1 ST6     -0.577100
      3 O2'        49.1290  -19.8310  -23.5870 o         1 ST6     -0.490000
      4 C1         47.7810  -21.4300  -22.3720 ca        1 ST6     -0.169600
      5 C2         46.5710  -22.1170  -22.4330 ca        1 ST6     -0.108000
      6 C3         46.0210  -22.7280  -21.2870 ca        1 ST6      0.054600
      7 N3         44.7770  -23.3720  -21.3680 n         1 ST6     -0.467100
      8 C3'        44.4450  -24.3580  -22.2840 c         1 ST6      0.673100
      9 O3         43.2750  -24.7860  -22.2990 o         1 ST6     -0.597100
     10 CM3        45.4910  -24.9280  -23.2430 c3        1 ST6      0.089800
     11 N3'        45.3200  -24.4190  -24.5830 n3        1 ST6     -0.921800
     12 C4         46.7270  -22.6230  -20.0470 ca        1 ST6      0.049600
     13 N4         46.2200  -23.1880  -18.8590 n         1 ST6     -0.489100
     14 C4'        45.9850  -24.5560  -18.6890 c         1 ST6      0.659100
     15 O4         46.0790  -25.3610  -19.6310 o         1 ST6     -0.576100
     16 CM4        45.5750  -24.9940  -17.3040 c3        1 ST6     -0.176100
     17 C5         47.9280  -21.8830  -20.0060 ca        1 ST6     -0.159000
     18 C6         48.4490  -21.2950  -21.1490 ca        1 ST6     -0.067000
     19 H2         46.0140  -22.1690  -23.3850 ha        1 ST6      0.167000
     20 HN3        44.1380  -23.2140  -20.6190 hn        1 ST6      0.331500
     21 HM31       45.3780  -26.0510  -23.1690 h1        1 ST6      0.063200
     22 HM32       46.5350  -24.6720  -22.9040 h1        1 ST6      0.063200
     23 HN31       44.3550  -24.4380  -24.8530 hn        1 ST6      0.363300
     24 HN32       45.8500  -24.9730  -25.2270 hn        1 ST6      0.363300
     25 HN33       47.5470  -22.0910  -24.7540 ho        1 ST6      0.436000
     26 HN4        46.3690  -22.6490  -18.0350 hn        1 ST6      0.316500
     27 HM41       45.3710  -26.0930  -17.3250 hc        1 ST6      0.072367
     28 HM42       46.3930  -24.7920  -16.5720 hc        1 ST6      0.072367
     29 HM43       44.6510  -24.4590  -16.9790 hc        1 ST6      0.072367
     30 H5         48.4710  -21.7700  -19.0540 ha        1 ST6      0.142000
     31 H6         49.3890  -20.7200  -21.1060 ha        1 ST6      0.164000
@<TRIPOS>BOND
     1    1    2 1   
     2    1    3 2   
     3    1    4 1   
     4    2   25 1   
     5    4    5 ar  
     6    4   18 ar  
     7    5    6 ar  
     8    5   19 1   
     9    6    7 1   
    10    6   12 ar  
    11    7    8 1   
    12    7   20 1   
    13    8    9 2   
    14    8   10 1   
    15   10   11 1   
    16   10   21 1   
    17   10   22 1   
    18   11   23 1   
    19   11   24 1   
    20   12   13 1   
    21   12   17 ar  
    22   13   14 1   
    23   13   26 1   
    24   14   15 2   
    25   14   16 1   
    26   16   27 1   
    27   16   28 1   
    28   16   29 1   
    29   17   18 ar  
    30   17   30 1   
    31   18   31 1   
@<TRIPOS>SUBSTRUCTURE
     1 ST6         1 TEMP              0 ****  ****    0 ROOT
