@<TRIPOS>MOLECULE
ST7
   93    83     1     0     0
SMALL
bcc


@<TRIPOS>ATOM
      1 C9         -5.2630   -7.6960    1.9900 c3        1 ST7     -0.084000
      2 N6         -4.8620   -6.8380    0.9510 n         1 ST7     -0.360000
      3 C8         -5.4750   -5.5660    0.8000 c2        1 ST7      0.380000
      4 O3         -6.4810   -5.2850    1.4550 o         1 ST7     -0.391000
      5 N4         -4.8500   -4.5590   -0.0490 n         1 ST7     -0.360000
      6 C7         -5.2890   -3.1650    0.0140 c2        1 ST7      0.184000
      7 N5         -6.3190   -2.8610    0.6520 n1        1 ST7     -0.306000
      8 N3         -4.5150   -2.1190   -0.6820 n3        1 ST7     -0.281000
      9 C6         -4.2890   -0.8720   -0.0540 c3        1 ST7     -0.053000
     10 C5         -3.0700   -0.1730   -0.7090 c3        1 ST7     -0.169000
     11 C4         -2.4680    0.8390    0.2880 c3        1 ST7     -0.151000
     12 C2         -1.0330    1.1500   -0.1070 c3        1 ST7      0.031000
     13 C1         -0.2550    1.6350    1.1290 c1        1 ST7      0.279000
     14 O2          0.8180    2.1940    0.9880 o         1 ST7     -0.374000
     15 N1         -0.9030    1.5850    2.5010 n2        1 ST7     -0.325000
     16 C12        -1.7550    2.7060    2.9510 c3        1 ST7      0.021000
     17 C13        -2.9770    2.1510    3.6720 c1        1 ST7     -0.119000
     18 C20        -3.9180    3.0070    4.2030 c1        1 ST7     -0.123250
     19 C21        -5.0190    2.4930    4.8780 c1        1 ST7     -0.123250
     20 C22        -5.1680    1.1140    5.0170 c1        1 ST7     -0.123250
     21 C23        -4.2250    0.2620    4.4850 c1        1 ST7     -0.123250
     22 C24        -3.1320    0.7700    3.8140 c1        1 ST7     -0.112000
     23 C11        -0.4730    0.5860    3.4570 c3        1 ST7      0.011000
     24 C14        -0.8150   -0.8680    2.8890 c2        1 ST7     -0.111000
     25 C15        -1.0270   -1.9440    3.7750 c2        1 ST7     -0.124000
     26 C16        -1.2490   -3.2410    3.2660 c1        1 ST7     -0.134000
     27 C17        -1.2590   -3.4510    1.9070 c1        1 ST7     -0.123250
     28 C18        -1.0470   -2.3740    1.0270 c1        1 ST7     -0.123250
     29 C19        -0.8250   -1.0810    1.5370 c1        1 ST7     -0.112000
     30 N2         -0.4160   -0.0200   -0.6290 n         1 ST7     -0.348000
     31 C3          0.7650   -0.5820    0.0350 c2        1 ST7      0.292000
     32 O1          0.7070   -0.9020    1.1860 o         1 ST7     -0.349000
     33 C10         2.0740   -0.7600   -0.7440 c3        1 ST7     -0.048000
     34 N7          2.8940    0.3880   -0.5600 n3        1 ST7     -0.153000
     35 N8          2.5280    1.5260    0.0360 n2        1 ST7     -0.011000
     36 N9          3.5810    2.3870   -0.0160 n2        1 ST7     -0.088000
     37 C25         4.5940    1.7690   -0.6470 c1        1 ST7     -0.190000
     38 C26         4.1770    0.5290   -0.9870 c1        1 ST7     -0.101000
     39 C27         4.9920   -0.5230   -1.6760 c2        1 ST7      0.055000
     40 O4          5.7110    0.0460   -2.7220 os        1 ST7     -0.209000
     41 N11         4.8650    0.5830   -3.6370 n2        1 ST7     -0.052000
     42 C28         5.2040    1.7270   -4.2720 c1        1 ST7     -0.088000
     43 C29         6.4940    2.3890   -3.9660 c1        1 ST7     -0.032000
     44 C30         6.6200    3.2880   -5.0550 c2        1 ST7     -0.060000
     45 C34         6.1590    2.9130   -6.3310 c2        1 ST7     -0.119000
     46 C35         6.2800    3.7900   -7.3950 c1        1 ST7     -0.120000
     47 C36         6.8630    5.0500   -7.2030 c1        1 ST7     -0.123250
     48 C37         7.3200    5.4200   -5.9380 c1        1 ST7     -0.123250
     49 C31         7.1970    4.5340   -4.8630 c1        1 ST7     -0.005000
     50 N10         7.6550    4.9020   -3.5860 n1        1 ST7     -0.121000
     51 C32         7.5310    4.0240   -2.5280 c1        1 ST7     -0.059000
     52 C33         6.9390    2.7470   -2.7290 c1        1 ST7     -0.148000
     53 H1         -4.7090   -8.4890    1.9850 h1        1 ST7      0.087667
     54 H2         -5.1700   -7.2460    2.8280 h1        1 ST7      0.087667
     55 H3         -6.1960   -7.9520    1.8580 h1        1 ST7      0.087667
     56 H4         -4.2020   -7.1130    0.3480 hn        1 ST7      0.208000
     57 H5         -4.1400   -4.8100   -0.6470 hn        1 ST7      0.221000
     58 H6         -6.7950   -3.5050    1.0770 DU        1 ST7      0.196000
     59 H7         -4.2860   -2.2330   -1.5720 hn        1 ST7      0.181000
     60 H8         -5.0850   -0.3070   -0.1570 h1        1 ST7      0.094000
     61 H9         -4.1070   -1.0160    0.9160 h1        1 ST7      0.094000
     62 H10        -2.4030   -0.8330   -0.9380 hc        1 ST7      0.101500
     63 H11        -3.3580    0.2960   -1.5210 hc        1 ST7      0.101500
     64 H12        -3.0110    1.6880    0.2760 hc        1 ST7      0.108000
     65 H13        -2.4820    0.4600    1.1810 hc        1 ST7      0.108000
     66 H14        -1.0290    1.8380   -0.7740 h1        1 ST7      0.109000
     67 H15        -1.2490    3.2730    3.5570 h1        1 ST7      0.095500
     68 H16        -2.0470    3.2390    2.1620 h1        1 ST7      0.095500
     69 H17        -3.8100    3.9900    4.1030 ha        1 ST7      0.137000
     70 H18        -5.6800    3.0910    5.2510 ha        1 ST7      0.137000
     71 H19        -5.9460    0.7470    5.4940 ha        1 ST7      0.137000
     72 H20        -4.3300   -0.6940    4.5820 ha        1 ST7      0.137000
     73 H21        -2.5100    0.2050    3.4630 ha        1 ST7      0.151000
     74 H22        -0.9440    0.7250    4.3180 h1        1 ST7      0.109500
     75 H23         0.5470    0.6690    3.6040 h1        1 ST7      0.109500
     76 H24        -1.0210   -1.7870    4.7710 ha        1 ST7      0.129000
     77 H25        -1.3970   -3.9900    3.8800 ha        1 ST7      0.133000
     78 H26        -1.4040   -4.2980    1.5740 ha        1 ST7      0.137000
     79 H27        -1.0530   -2.5150    0.1030 ha        1 ST7      0.137000
     80 H28        -0.6760   -0.3220    0.9160 ha        1 ST7      0.155000
     81 H29        -0.6900   -0.3560   -1.4070 hn        1 ST7      0.235000
     82 H30         1.8720   -0.8750   -1.7250 h1        1 ST7      0.147000
     83 H31         2.5610   -1.5820   -0.4010 h1        1 ST7      0.147000
     84 H32         5.4470    2.1380   -0.8220 DU        1 ST7      0.196000
     85 H33         4.3940   -1.2170   -2.0280 h4        1 ST7      0.128000
     86 H34         5.6010   -0.9140   -1.0510 h4        1 ST7      0.128000
     87 H35         4.6140    2.1080   -4.9170 ha        1 ST7      0.168000
     88 H36         5.7450    2.0210   -6.4660 ha        1 ST7      0.134000
     89 H37         5.9590    3.5290   -8.2800 ha        1 ST7      0.137000
     90 H38         6.9520    5.6820   -7.9660 ha        1 ST7      0.137000
     91 H39         7.7370    6.3220   -5.7990 ha        1 ST7      0.137000
     92 H40         7.8580    4.2880   -1.6170 ha        1 ST7      0.163000
     93 H41         6.8500    2.1230   -1.9780 ha        1 ST7      0.158000
@<TRIPOS>BOND
     1    1    2 1   
     2    1   53 1   
     3    1   54 1   
     4    1   55 1   
     5    2    3 1   
     6    2   56 1   
     7    3    4 1   
     8    3    5 1   
     9    5    6 1   
    10    5   57 1   
    11    6    7 1   
    12    6    8 1   
    13    8    9 1   
    14    8   59 1   
    15    9   10 1   
    16    9   60 1   
    17    9   61 1   
    18   10   11 1   
    19   10   62 1   
    20   10   63 1   
    21   11   12 1   
    22   11   64 1   
    23   11   65 1   
    24   12   13 1   
    25   12   30 1   
    26   12   66 1   
    27   13   14 1   
    28   15   16 1   
    29   15   23 1   
    30   16   17 1   
    31   16   67 1   
    32   16   68 1   
    33   17   22 1   
    34   18   19 1   
    35   18   69 1   
    36   19   70 1   
    37   20   21 1   
    38   20   71 1   
    39   21   72 1   
    40   22   73 1   
    41   23   24 1   
    42   23   74 1   
    43   23   75 1   
    44   24   25 1   
    45   24   29 1   
    46   25   26 1   
    47   25   76 1   
    48   26   77 1   
    49   27   28 1   
    50   27   78 1   
    51   28   79 1   
    52   29   80 1   
    53   30   31 1   
    54   30   81 1   
    55   31   32 1   
    56   31   33 1   
    57   33   34 1   
    58   33   82 1   
    59   33   83 1   
    60   34   35 1   
    61   34   38 1   
    62   35   36 1   
    63   36   37 1   
    64   37   38 1   
    65   39   40 1   
    66   39   85 1   
    67   39   86 1   
    68   40   41 1   
    69   41   42 1   
    70   42   87 1   
    71   43   44 1   
    72   43   52 1   
    73   44   45 1   
    74   44   49 1   
    75   45   46 1   
    76   45   88 1   
    77   46   89 1   
    78   47   48 1   
    79   47   90 1   
    80   48   91 1   
    81   50   51 1   
    82   51   92 1   
    83   52   93 1   
@<TRIPOS>SUBSTRUCTURE
     1 ST7         1 TEMP              0 ****  ****    0 ROOT
