@<TRIPOS>MOLECULE
ST7
   93    97     1     0     0
SMALL
bcc


@<TRIPOS>ATOM
      1 C9          1.4220   -2.3910    5.5110 c3        1 ST7      0.073300
      2 N6          2.6980   -1.9660    5.0160 n         1 ST7     -0.552900
      3 C8          3.8580   -2.5890    5.5170 c         1 ST7      0.764100
      4 O3          3.7970   -3.3080    6.5430 o         1 ST7     -0.636100
      5 N4          5.0740   -2.3370    4.8600 n         1 ST7     -0.532400
      6 C7          6.3440   -2.7940    5.3420 c2        1 ST7      0.635800
      7 N5          6.5770   -3.6870    6.2540 n2        1 ST7     -0.840100
      8 N3          7.4500   -2.1720    4.6200 nh        1 ST7     -0.790200
      9 C6          7.7840   -0.8550    5.1380 c3        1 ST7      0.162800
     10 C5          9.1320   -0.3460    4.6270 c3        1 ST7     -0.085400
     11 C4          9.3800    1.0480    5.1560 c3        1 ST7     -0.085400
     12 C2         10.6960    1.6390    4.6220 c3        1 ST7      0.035700
     13 C1         10.7310    3.1160    5.0990 c         1 ST7      0.637100
     14 O2         10.5310    3.3600    6.3080 o         1 ST7     -0.618100
     15 N1         10.9460    4.1320    4.1870 n         1 ST7     -0.453800
     16 C12        11.4580    3.8810    2.8580 c3        1 ST7      0.128800
     17 C13        10.4230    3.5380    1.8230 ca        1 ST7     -0.117800
     18 C20         9.3280    4.3750    1.5870 ca        1 ST7     -0.117750
     19 C21         8.4100    4.0620    0.5850 ca        1 ST7     -0.132000
     20 C22         8.5830    2.9150   -0.1890 ca        1 ST7     -0.124500
     21 C23         9.6740    2.0770    0.0450 ca        1 ST7     -0.132000
     22 C24        10.5900    2.3830    1.0500 ca        1 ST7     -0.117750
     23 C11        10.9210    5.5110    4.6370 c3        1 ST7      0.128800
     24 C14        12.2680    6.0910    4.9600 ca        1 ST7     -0.117800
     25 C15        12.9070    5.7360    6.1540 ca        1 ST7     -0.117750
     26 C16        14.1470    6.2870    6.4720 ca        1 ST7     -0.132000
     27 C17        14.7520    7.1960    5.6030 ca        1 ST7     -0.124500
     28 C18        14.1170    7.5510    4.4130 ca        1 ST7     -0.132000
     29 C19        12.8790    6.9970    4.0890 ca        1 ST7     -0.117750
     30 N2         11.8650    0.9390    5.0990 n         1 ST7     -0.552900
     31 C3         12.9100    0.6050    4.2680 c         1 ST7      0.647100
     32 O1         12.8690    0.8030    3.0370 o         1 ST7     -0.609100
     33 C10        14.1270   -0.1320    4.8490 c3        1 ST7     -0.027700
     34 N7         14.5060    0.2290    6.1920 na        1 ST7      0.052400
     35 N8         15.3250    1.2620    6.5070 nc        1 ST7     -0.146800
     36 N9         15.4380    1.3620    7.7680 nd        1 ST7     -0.353000
     37 C25        14.6590    0.3730    8.4010 cd        1 ST7      0.287200
     38 C26        14.0360   -0.3730    7.3830 cc        1 ST7     -0.229900
     39 C27        13.1260   -1.5320    7.4860 c3        1 ST7      0.216700
     40 O4         13.8410   -2.7820    7.6410 os        1 ST7     -0.180300
     41 N11        14.5440   -3.1440    6.5760 n2        1 ST7     -0.440200
     42 C28        15.1860   -4.2700    6.7130 ce        1 ST7      0.410800
     43 C29        16.0250   -4.8120    5.6360 ca        1 ST7     -0.087900
     44 C30        15.8960   -6.1910    5.2750 ca        1 ST7     -0.130300
     45 C34        14.9410   -7.0560    5.8670 ca        1 ST7     -0.118000
     46 C35        14.8570   -8.3730    5.4850 ca        1 ST7     -0.119000
     47 C36        15.7250   -8.8860    4.4930 ca        1 ST7     -0.124000
     48 C37        16.6590   -8.0790    3.8920 ca        1 ST7     -0.161300
     49 C31        16.7710   -6.7000    4.2640 ca        1 ST7      0.390600
     50 N10        17.7130   -5.9040    3.6370 nb        1 ST7     -0.647000
     51 C32        17.7870   -4.6360    3.9970 ca        1 ST7      0.407200
     52 C33        16.9610   -4.0320    4.9960 ca        1 ST7     -0.217300
     53 H1          1.0390   -3.2960    4.9660 h1        1 ST7      0.049367
     54 H2          0.6960   -1.5470    5.3730 h1        1 ST7      0.049367
     55 H3          1.5010   -2.6390    6.6040 h1        1 ST7      0.049367
     56 H4          2.7080   -1.6430    4.0760 hn        1 ST7      0.297500
     57 H5          5.0860   -1.7040    4.0910 hn        1 ST7      0.325500
     58 H6          5.7960   -4.1330    6.6870 hn        1 ST7      0.442400
     59 H7          8.2510   -2.7800    4.6270 hn        1 ST7      0.396800
     60 H8          7.8020   -0.8350    6.2670 h1        1 ST7      0.043200
     61 H9          6.9730   -0.1470    4.8020 h1        1 ST7      0.043200
     62 H10         9.1400   -0.3350    3.5050 hc        1 ST7      0.053200
     63 H11         9.9490   -1.0370    4.9620 hc        1 ST7      0.053200
     64 H12         9.3880    1.0490    6.2780 hc        1 ST7      0.066200
     65 H13         8.5520    1.7320    4.8300 hc        1 ST7      0.066200
     66 H14        10.6790    1.5750    3.4910 h1        1 ST7      0.110700
     67 H15        12.2250    3.0490    2.9030 h1        1 ST7      0.070950
     68 H16        11.9990    4.8120    2.5110 h1        1 ST7      0.070950
     69 H17         9.1890    5.2830    2.1930 ha        1 ST7      0.142500
     70 H18         7.5510    4.7240    0.4040 ha        1 ST7      0.133750
     71 H19         7.8620    2.6720   -0.9820 ha        1 ST7      0.131500
     72 H20         9.8130    1.1720   -0.5650 ha        1 ST7      0.133750
     73 H21        11.4500    1.7170    1.2370 ha        1 ST7      0.142500
     74 H22        10.4340    6.1250    3.8250 h1        1 ST7      0.070950
     75 H23        10.2730    5.5690    5.5610 h1        1 ST7      0.070950
     76 H24        12.4200    5.0170    6.8330 ha        1 ST7      0.142500
     77 H25        14.6490    6.0020    7.4090 ha        1 ST7      0.133750
     78 H26        15.7300    7.6300    5.8560 ha        1 ST7      0.131500
     79 H27        14.5940    8.2660    3.7270 ha        1 ST7      0.133750
     80 H28        12.3820    7.2780    3.1480 ha        1 ST7      0.142500
     81 H29        11.9730    0.8960    6.0870 hn        1 ST7      0.326500
     82 H30        14.9910    0.0740    4.1500 h1        1 ST7      0.115200
     83 H31        13.8940   -1.2360    4.8200 h1        1 ST7      0.115200
     84 H32        14.6080    0.2730    9.4830 h4        1 ST7      0.063100
     85 H33        12.5510   -1.4840    8.4530 h1        1 ST7      0.080700
     86 H34        12.4200   -1.5940    6.6160 h1        1 ST7      0.080700
     87 H35        15.1510   -4.8820    7.6400 h4        1 ST7      0.018800
     88 H36        14.2590   -6.6560    6.6330 ha        1 ST7      0.136000
     89 H37        14.1150   -9.0430    5.9450 ha        1 ST7      0.138000
     90 H38        15.6400   -9.9450    4.2050 ha        1 ST7      0.139000
     91 H39        17.3320   -8.4770    3.1170 ha        1 ST7      0.153000
     92 H40        18.5470   -4.0230    3.4770 h4        1 ST7      0.027100
     93 H41        17.0940   -2.9680    5.2350 ha        1 ST7      0.155000
@<TRIPOS>BOND
     1    1    2 1   
     2    1   53 1   
     3    1   54 1   
     4    1   55 1   
     5    2    3 1   
     6    2   56 1   
     7    3    4 2   
     8    3    5 1   
     9    5    6 1   
    10    5   57 1   
    11    6    7 2   
    12    6    8 1   
    13    7   58 1   
    14    8    9 1   
    15    8   59 1   
    16    9   10 1   
    17    9   60 1   
    18    9   61 1   
    19   10   11 1   
    20   10   62 1   
    21   10   63 1   
    22   11   12 1   
    23   11   64 1   
    24   11   65 1   
    25   12   13 1   
    26   12   30 1   
    27   12   66 1   
    28   13   14 2   
    29   13   15 1   
    30   15   16 1   
    31   15   23 1   
    32   16   17 1   
    33   16   67 1   
    34   16   68 1   
    35   17   18 ar  
    36   17   22 ar  
    37   18   19 ar  
    38   18   69 1   
    39   19   20 ar  
    40   19   70 1   
    41   20   21 ar  
    42   20   71 1   
    43   21   22 ar  
    44   21   72 1   
    45   22   73 1   
    46   23   24 1   
    47   23   74 1   
    48   23   75 1   
    49   24   25 ar  
    50   24   29 ar  
    51   25   26 ar  
    52   25   76 1   
    53   26   27 ar  
    54   26   77 1   
    55   27   28 ar  
    56   27   78 1   
    57   28   29 ar  
    58   28   79 1   
    59   29   80 1   
    60   30   31 1   
    61   30   81 1   
    62   31   32 2   
    63   31   33 1   
    64   33   34 1   
    65   33   82 1   
    66   33   83 1   
    67   34   35 1   
    68   34   38 1   
    69   35   36 2   
    70   36   37 1   
    71   37   38 2   
    72   37   84 1   
    73   38   39 1   
    74   39   40 1   
    75   39   85 1   
    76   39   86 1   
    77   40   41 1   
    78   41   42 2   
    79   42   43 1   
    80   42   87 1   
    81   43   44 ar  
    82   43   52 ar  
    83   44   45 ar  
    84   44   49 ar  
    85   45   46 ar  
    86   45   88 1   
    87   46   47 ar  
    88   46   89 1   
    89   47   48 ar  
    90   47   90 1   
    91   48   49 ar  
    92   48   91 1   
    93   49   50 ar  
    94   50   51 ar  
    95   51   52 ar  
    96   51   92 1   
    97   52   93 1   
@<TRIPOS>SUBSTRUCTURE
     1 ST7         1 TEMP              0 ****  ****    0 ROOT
