@<TRIPOS>MOLECULE
ST7
   93    97     1     0     0
SMALL
bcc


@<TRIPOS>ATOM
      1 C9          7.6010    3.4940   -4.1680 c3        1 ST7      0.073300
      2 N6          7.9220    3.6950   -2.7870 n         1 ST7     -0.549900
      3 C8          7.1060    3.1060   -1.8060 c         1 ST7      0.753100
      4 O3          6.2810    2.2140   -2.1200 o         1 ST7     -0.643100
      5 N4          7.2420    3.5540   -0.4710 n         1 ST7     -0.477400
      6 C7          6.7760    2.7290    0.6220 c2        1 ST7      0.651800
      7 N5          7.6110    2.5460    1.6130 n2        1 ST7     -0.878100
      8 N3          5.4070    2.3260    0.5660 nh        1 ST7     -0.825200
      9 C6          5.0530    1.1470    1.3290 c3        1 ST7      0.181800
     10 C5          3.7130    0.5440    0.9030 c3        1 ST7     -0.090400
     11 C4          3.3900   -0.6400    1.7860 c3        1 ST7     -0.086400
     12 C2          2.1310   -1.3820    1.3090 c3        1 ST7      0.039700
     13 C1          2.0270   -2.6650    2.1780 c         1 ST7      0.640100
     14 O2          2.1260   -2.5640    3.4190 o         1 ST7     -0.616100
     15 N1          1.8550   -3.8970    1.5760 n         1 ST7     -0.458800
     16 C12         1.4950   -4.0400    0.1830 c3        1 ST7      0.130300
     17 C13         2.6430   -4.0050   -0.7870 ca        1 ST7     -0.117300
     18 C20         3.7290   -4.8770   -0.6580 ca        1 ST7     -0.118250
     19 C21         4.7590   -4.8570   -1.5980 ca        1 ST7     -0.133000
     20 C22         4.7080   -3.9700   -2.6730 ca        1 ST7     -0.124000
     21 C23         3.6270   -3.0990   -2.8050 ca        1 ST7     -0.133000
     22 C24         2.5970   -3.1130   -1.8650 ca        1 ST7     -0.118250
     23 C11         1.8240   -5.0930    2.3950 c3        1 ST7      0.130300
     24 C14         0.4470   -5.5400    2.8010 ca        1 ST7     -0.117300
     25 C15        -0.2120   -4.8850    3.8470 ca        1 ST7     -0.118250
     26 C16        -1.4760   -5.3120    4.2500 ca        1 ST7     -0.133000
     27 C17        -2.0870   -6.3920    3.6100 ca        1 ST7     -0.124000
     28 C18        -1.4330   -7.0430    2.5650 ca        1 ST7     -0.133000
     29 C19        -0.1690   -6.6170    2.1580 ca        1 ST7     -0.118250
     30 N2          0.9220   -0.6050    1.4420 n         1 ST7     -0.545900
     31 C3         -0.0090   -0.5150    0.4410 c         1 ST7      0.647100
     32 O1          0.1240   -1.0880   -0.6610 o         1 ST7     -0.619100
     33 C10        -1.2870    0.3010    0.7040 c3        1 ST7     -0.026700
     34 N7         -1.0500    1.6690    1.0930 na        1 ST7      0.053400
     35 N8         -0.6250    2.0650    2.3180 nc        1 ST7     -0.173800
     36 N9         -0.5000    3.3280    2.3490 nd        1 ST7     -0.347000
     37 C25        -0.8440    3.8760    1.0970 cd        1 ST7      0.278200
     38 C26        -1.2000    2.8010    0.2620 cc        1 ST7     -0.206900
     39 C27        -1.6270    2.7930   -1.1530 c3        1 ST7      0.216700
     40 O4         -2.9110    2.1480   -1.3320 os        1 ST7     -0.196300
     41 N11        -3.9420    2.8660   -0.9050 n2        1 ST7     -0.420200
     42 C28        -5.1020    2.2910   -1.0690 ce        1 ST7      0.400800
     43 C29        -6.3470    2.9410   -0.6390 ca        1 ST7     -0.087900
     44 C30        -7.5060    2.8610   -1.4780 ca        1 ST7     -0.129300
     45 C34        -7.4960    2.2390   -2.7520 ca        1 ST7     -0.118000
     46 C35        -8.6370    2.1870   -3.5160 ca        1 ST7     -0.120000
     47 C36        -9.8410    2.7580   -3.0420 ca        1 ST7     -0.125000
     48 C37        -9.8890    3.3770   -1.8190 ca        1 ST7     -0.160300
     49 C31        -8.7170    3.4520   -0.9980 ca        1 ST7      0.390600
     50 N10        -8.7890    4.0940    0.2260 nb        1 ST7     -0.647000
     51 C32        -7.6920    4.1550    0.9560 ca        1 ST7      0.407200
     52 C33        -6.4340    3.5940    0.5700 ca        1 ST7     -0.213300
     53 H1          8.5430    3.6140   -4.7670 h1        1 ST7      0.049033
     54 H2          7.1940    2.4580   -4.3190 h1        1 ST7      0.049033
     55 H3          6.8390    4.2350   -4.5340 h1        1 ST7      0.049033
     56 H4          8.3790    4.5510   -2.5690 hn        1 ST7      0.301500
     57 H5          8.0630    4.0810   -0.2470 hn        1 ST7      0.324500
     58 H6          7.2540    2.0490    2.3980 hn        1 ST7      0.405400
     59 H7          5.0020    2.3410   -0.3510 hn        1 ST7      0.428800
     60 H8          5.8450    0.3450    1.2510 h1        1 ST7      0.041700
     61 H9          4.9840    1.4520    2.4140 h1        1 ST7      0.041700
     62 H10         2.9050    1.3170    0.9840 hc        1 ST7      0.058200
     63 H11         3.7650    0.2180   -0.1700 hc        1 ST7      0.058200
     64 H12         4.2370   -1.3760    1.7650 hc        1 ST7      0.068200
     65 H13         3.2600   -0.3120    2.8520 hc        1 ST7      0.068200
     66 H14         2.2690   -1.6450    0.2150 h1        1 ST7      0.107700
     67 H15         0.9670   -5.0320    0.0590 h1        1 ST7      0.069450
     68 H16         0.7530   -3.2310   -0.0950 h1        1 ST7      0.069450
     69 H17         3.7730   -5.5790    0.1880 ha        1 ST7      0.143000
     70 H18         5.6120   -5.5430   -1.4900 ha        1 ST7      0.132750
     71 H19         5.5210   -3.9550   -3.4130 ha        1 ST7      0.132000
     72 H20         3.5860   -2.3970   -3.6510 ha        1 ST7      0.132750
     73 H21         1.7440   -2.4190   -1.9670 ha        1 ST7      0.143000
     74 H22         2.3300   -5.9200    1.8190 h1        1 ST7      0.069450
     75 H23         2.4260   -4.8950    3.3310 h1        1 ST7      0.069450
     76 H24         0.2790   -4.0320    4.3440 ha        1 ST7      0.143000
     77 H25        -1.9910   -4.7980    5.0750 ha        1 ST7      0.132750
     78 H26        -3.0830   -6.7290    3.9310 ha        1 ST7      0.132000
     79 H27        -1.9130   -7.8940    2.0600 ha        1 ST7      0.132750
     80 H28         0.3450   -7.1330    1.3330 ha        1 ST7      0.143000
     81 H29         0.7620   -0.1780    2.3260 hn        1 ST7      0.343500
     82 H30        -1.8850    0.3060   -0.2550 h1        1 ST7      0.106200
     83 H31        -1.8830   -0.2250    1.5050 h1        1 ST7      0.106200
     84 H32        -0.8160    4.9450    0.9000 h4        1 ST7      0.063100
     85 H33        -1.6450    3.8440   -1.5450 h1        1 ST7      0.088700
     86 H34        -0.9580    2.1450   -1.7860 h1        1 ST7      0.088700
     87 H35        -5.2230    1.2860   -1.5270 h4        1 ST7      0.013800
     88 H36        -6.5590    1.8040   -3.1300 ha        1 ST7      0.135000
     89 H37        -8.6260    1.7040   -4.5040 ha        1 ST7      0.137000
     90 H38       -10.7420    2.7010   -3.6720 ha        1 ST7      0.138000
     91 H39       -10.8250    3.8260   -1.4500 ha        1 ST7      0.153000
     92 H40        -7.7770    4.6800    1.9260 h4        1 ST7      0.027100
     93 H41        -5.5710    3.6920    1.2430 ha        1 ST7      0.158000
@<TRIPOS>BOND
     1    1    2 1   
     2    1   53 1   
     3    1   54 1   
     4    1   55 1   
     5    2    3 1   
     6    2   56 1   
     7    3    4 2   
     8    3    5 1   
     9    5    6 1   
    10    5   57 1   
    11    6    7 2   
    12    6    8 1   
    13    7   58 1   
    14    8    9 1   
    15    8   59 1   
    16    9   10 1   
    17    9   60 1   
    18    9   61 1   
    19   10   11 1   
    20   10   62 1   
    21   10   63 1   
    22   11   12 1   
    23   11   64 1   
    24   11   65 1   
    25   12   13 1   
    26   12   30 1   
    27   12   66 1   
    28   13   14 2   
    29   13   15 1   
    30   15   16 1   
    31   15   23 1   
    32   16   17 1   
    33   16   67 1   
    34   16   68 1   
    35   17   18 ar  
    36   17   22 ar  
    37   18   19 ar  
    38   18   69 1   
    39   19   20 ar  
    40   19   70 1   
    41   20   21 ar  
    42   20   71 1   
    43   21   22 ar  
    44   21   72 1   
    45   22   73 1   
    46   23   24 1   
    47   23   74 1   
    48   23   75 1   
    49   24   25 ar  
    50   24   29 ar  
    51   25   26 ar  
    52   25   76 1   
    53   26   27 ar  
    54   26   77 1   
    55   27   28 ar  
    56   27   78 1   
    57   28   29 ar  
    58   28   79 1   
    59   29   80 1   
    60   30   31 1   
    61   30   81 1   
    62   31   32 2   
    63   31   33 1   
    64   33   34 1   
    65   33   82 1   
    66   33   83 1   
    67   34   35 1   
    68   34   38 1   
    69   35   36 2   
    70   36   37 1   
    71   37   38 2   
    72   37   84 1   
    73   38   39 1   
    74   39   40 1   
    75   39   85 1   
    76   39   86 1   
    77   40   41 1   
    78   41   42 2   
    79   42   43 1   
    80   42   87 1   
    81   43   44 ar  
    82   43   52 ar  
    83   44   45 ar  
    84   44   49 ar  
    85   45   46 ar  
    86   45   88 1   
    87   46   47 ar  
    88   46   89 1   
    89   47   48 ar  
    90   47   90 1   
    91   48   49 ar  
    92   48   91 1   
    93   49   50 ar  
    94   50   51 ar  
    95   51   52 ar  
    96   51   92 1   
    97   52   93 1   
@<TRIPOS>SUBSTRUCTURE
     1 ST7         1 TEMP              0 ****  ****    0 ROOT
