@<TRIPOS>MOLECULE
ST8
   49    51     1     0     0
SMALL
bcc


@<TRIPOS>ATOM
      1 C2          0.0250    0.0620    0.7070 ca        1 ST8      0.973900
      2 C10        -1.0060   -0.1420   -3.2900 c3        1 ST8      0.139400
      3 C11        -0.9650   -0.2590   -4.8110 c3        1 ST8     -0.071700
      4 C12        -2.3690   -0.5340   -5.3290 c3        1 ST8     -0.074400
      5 C13        -2.3800   -0.6180   -6.8410 c3        1 ST8     -0.075400
      6 C14        -1.8020    0.6330   -7.4710 c3        1 ST8     -0.078400
      7 C15        -0.4090    0.9170   -6.9480 c3        1 ST8     -0.075400
      8 C16        -0.3950    1.0050   -5.4360 c3        1 ST8     -0.074400
      9 C19        -1.7000   -0.7760    5.1230 ca        1 ST8     -0.077000
     10 C20        -0.7410   -0.0390    5.8240 ca        1 ST8     -0.153600
     11 C21         0.1530    0.7740    5.1200 ca        1 ST8     -0.077000
     12 C22         0.0860    0.8720    3.7340 ca        1 ST8     -0.149500
     13 N25        -1.7530   -0.2720    8.0550 n         1 ST8     -0.674000
     14 N3         -0.3650   -0.0210   -0.6290 nb        1 ST8     -0.868000
     15 C4          0.6370   -0.1310   -1.5260 ca        1 ST8      0.758600
     16 O6          0.3710   -0.2150   -2.8630 os        1 ST8     -0.417100
     17 C5          2.0330   -0.1830   -1.1870 ca        1 ST8     -0.420200
     18 N7          3.1090   -0.2920   -2.1140 ne        1 ST8      0.029900
     19 C6          2.3190   -0.1170    0.2350 ca        1 ST8      0.807200
     20 N1          1.3160    0.0030    1.1700 nb        1 ST8     -0.851000
     21 N2         -1.0240    0.2510    1.6210 nh        1 ST8     -0.721300
     22 C17        -0.8760    0.1290    3.0190 ca        1 ST8      0.164600
     23 C18        -1.7690   -0.7000    3.7370 ca        1 ST8     -0.149500
     24 O8          2.9090   -0.3360   -3.2570 o         1 ST8     -0.167300
     25 O24         0.4940   -0.0040    7.8770 o         1 ST8     -0.609100
     26 H101       -1.5780   -0.9930   -2.8380 h1        1 ST8      0.055200
     27 H102       -1.4450    0.8360   -2.9650 h1        1 ST8      0.055200
     28 H11        -0.2970   -1.1240   -5.0830 hc        1 ST8      0.071700
     29 H121       -2.7490   -1.4960   -4.8960 hc        1 ST8      0.044950
     30 H122       -3.0580    0.2850   -4.9920 hc        1 ST8      0.044950
     31 H131       -1.7830   -1.5100   -7.1690 hc        1 ST8      0.041450
     32 H132       -3.4320   -0.7670   -7.1970 hc        1 ST8      0.041450
     33 H141       -1.7690    0.5110   -8.5840 hc        1 ST8      0.039200
     34 H142       -2.4700    1.5060   -7.2470 hc        1 ST8      0.039200
     35 H151        0.2890    0.1050   -7.2820 hc        1 ST8      0.041450
     36 H152       -0.0350    1.8810   -7.3800 hc        1 ST8      0.041450
     37 H161       -0.9960    1.8920   -5.1050 hc        1 ST8      0.044950
     38 H162        0.6560    1.1490   -5.0710 hc        1 ST8      0.044950
     39 H19        -2.3960   -1.4440    5.6540 ha        1 ST8      0.148000
     40 H21         0.9210    1.3370    5.6770 ha        1 ST8      0.148000
     41 H22         0.7940    1.5320    3.2080 ha        1 ST8      0.149000
     42 H251       -1.6860   -0.2850    9.0420 hn        1 ST8      0.312000
     43 H252       -2.6450   -0.2740    7.6350 hn        1 ST8      0.312000
     44 H9N1        3.7910   -0.1430    1.6730 hn        1 ST8      0.454300
     45 H9N2        4.3570   -0.2770    0.0670 hn        1 ST8      0.454300
     46 H2         -1.9410    0.0580    1.2710 hn        1 ST8      0.452800
     47 H18        -2.5280   -1.2950    3.2050 ha        1 ST8      0.149000
     48 N9          3.6040   -0.1680    0.6990 nh        1 ST8     -0.947500
     49 C23        -0.6130   -0.1050    7.3060 c         1 ST8      0.672700
@<TRIPOS>BOND
     1    1   14 ar  
     2    1   20 ar  
     3    1   21 1   
     4    2    3 1   
     5    2   16 1   
     6    2   26 1   
     7    2   27 1   
     8    3    4 1   
     9    3    8 1   
    10    3   28 1   
    11    4    5 1   
    12    4   29 1   
    13    4   30 1   
    14    5    6 1   
    15    5   31 1   
    16    5   32 1   
    17    6    7 1   
    18    6   33 1   
    19    6   34 1   
    20    7    8 1   
    21    7   35 1   
    22    7   36 1   
    23    8   37 1   
    24    8   38 1   
    25    9   10 ar  
    26    9   23 ar  
    27    9   39 1   
    28   10   11 ar  
    29   10   49 1   
    30   11   12 ar  
    31   11   40 1   
    32   12   22 ar  
    33   12   41 1   
    34   13   42 1   
    35   13   43 1   
    36   13   49 1   
    37   14   15 ar  
    38   15   16 1   
    39   15   17 ar  
    40   17   18 1   
    41   17   19 ar  
    42   18   24 2   
    43   19   20 ar  
    44   19   48 1   
    45   21   22 1   
    46   21   46 1   
    47   22   23 ar  
    48   23   47 1   
    49   25   49 2   
    50   44   48 1   
    51   45   48 1   
@<TRIPOS>SUBSTRUCTURE
     1 ST8         1 TEMP              0 ****  ****    0 ROOT
