@<TRIPOS>MOLECULE
ST8
   52    49     1     0     0
SMALL
bcc


@<TRIPOS>ATOM
      1 C2        231.0060 -102.1800   51.2930 c2        1 ST8      0.196000
      2 C10       233.5230 -102.7470   54.7110 c3        1 ST8     -0.033000
      3 C11       234.7370 -102.6270   55.6430 c3        1 ST8     -0.106000
      4 C12       234.2800 -102.7340   57.1020 c3        1 ST8     -0.214000
      5 C13        59.7750   -5.4490   44.2510 c2        1 ST8     -0.218000
      6 C14        59.9440   -5.3930   45.5650 c2        1 ST8     -0.218000
      7 C15       236.7930 -104.2790   55.1130 c2        1 ST8     -0.181000
      8 C16       235.8010 -103.5180   55.3530 c1        1 ST8      0.248000
      9 C19      -554.7580  236.0030 -141.9600 c2        1 ST8     -0.517000
     10 C20      -554.1290  237.2010 -141.4340 c2        1 ST8     -0.009000
     11 C21      -553.9460  238.3220 -142.1150 c1        1 ST8     -0.024000
     12 C22      -553.7790  239.3780 -142.8420 c2        1 ST8     -0.075000
     13 N25      -556.0230  237.5560 -139.1390 n3        1 ST8     -0.445000
     14 N3        231.8610 -102.3720   52.4410 na        1 ST8     -0.261000
     15 C4        233.2100 -102.3000   52.3260 c2        1 ST8      0.360000
     16 O6        234.0440 -102.4720   53.3960 os        1 ST8     -0.201000
     17 C5        233.8770 -102.0440   51.0990 c2        1 ST8     -0.426000
     18 N7        235.3070 -102.0200   50.9440 n2        1 ST8      0.284000
     19 C6        233.0450 -101.7890   49.9200 c2        1 ST8      0.387000
     20 N1        231.6740 -101.8610   50.0560 na        1 ST8     -0.309000
     21 N2        229.7290 -102.3110   51.4800 n2        1 ST8     -0.164000
     22 C17       228.7380 -102.1570   50.4710 c3        1 ST8     -0.158000
     23 C18      -554.3180  235.1770 -142.8980 c1        1 ST8      0.379000
     24 O8        235.9850 -102.2410   51.8550 o         1 ST8     -0.198000
     25 O24      -553.2930  236.9740 -139.0160 o         1 ST8      0.068000
     26 H101      233.0810 -103.7770   54.7290 h1        1 ST8      0.138000
     27 H102      231.4000 -102.5600   53.3130 hn        1 ST8      0.300000
     28 H11       232.7640 -101.9740   55.0100 h1        1 ST8      0.138000
     29 H121      233.5720 -101.8960   57.3220 hc        1 ST8      0.134667
     30 H122      235.1920 -101.5770   55.5060 hc        1 ST8      0.231000
     31 H131      233.7590 -103.7060   57.2790 hc        1 ST8      0.134667
     32 H132      235.1530 -102.6490   57.7950 hc        1 ST8      0.134667
     33 H141       58.8590   -5.0990   43.7550 ha        1 ST8      0.109000
     34 H142       60.5380   -5.8480   43.5710 ha        1 ST8      0.109000
     35 H151       59.1800   -4.9930   46.2450 ha        1 ST8      0.109000
     36 H152       60.8600   -5.7420   46.0610 ha        1 ST8      0.109000
     37 H161      237.6710 -103.9920   54.4720 ha        1 ST8      0.302500
     38 H162      236.9220 -105.3200   55.5100 ha        1 ST8      0.302500
     39 H19      -555.7710  235.7700 -141.5500 ha        1 ST8      0.222000
     40 H21      -552.8630  239.5520 -143.4400 ha        1 ST8      0.208500
     41 H22      -554.5450  240.1760 -142.9120 ha        1 ST8      0.208500
     42 H251     -556.7370  237.0430 -139.6170 hn        1 ST8      0.162000
     43 H252     -555.9950  237.2540 -138.1840 hn        1 ST8      0.162000
     44 H9N1      234.5920 -101.4320   48.6270 hn        1 ST8      0.289500
     45 H9N2      233.0490 -101.3140   47.9090 hn        1 ST8      0.289500
     46 H2        227.7520 -102.3840   50.9710 h1        1 ST8      0.127000
     47 H18       228.8750 -102.8710   49.6140 h1        1 ST8      0.127000
     48 N9        233.5980 -101.4890   48.7250 nh        1 ST8     -0.289000
     49 H253     -556.2600  238.5280 -139.1590 hn        1 ST8      0.162000
     50 H221      228.6980 -101.1060   50.0710 h1        1 ST8      0.127000
     51 H93       231.0710 -101.6820   49.2740 hn        1 ST8      0.290000
     52 C23      -553.7270  237.1130 -140.0820 c1        1 ST8      0.498000
@<TRIPOS>BOND
     1    1   14 1   
     2    1   20 1   
     3    1   21 1   
     4    2    3 1   
     5    2   16 1   
     6    2   26 1   
     7    2   28 1   
     8    3    4 1   
     9    3    8 1   
    10    3   30 1   
    11    4   29 1   
    12    4   31 1   
    13    4   32 1   
    14    5    6 1   
    15    5   33 1   
    16    5   34 1   
    17    6   35 1   
    18    6   36 1   
    19    7    8 1   
    20    7   37 1   
    21    7   38 1   
    22    9   10 1   
    23    9   23 1   
    24    9   39 1   
    25   10   11 1   
    26   10   52 1   
    27   11   12 1   
    28   12   40 1   
    29   12   41 1   
    30   13   42 1   
    31   13   43 1   
    32   13   49 1   
    33   14   15 1   
    34   14   27 1   
    35   15   16 1   
    36   15   17 1   
    37   17   18 1   
    38   17   19 1   
    39   18   24 1   
    40   19   20 1   
    41   19   48 1   
    42   20   51 1   
    43   21   22 1   
    44   22   46 1   
    45   22   47 1   
    46   22   50 1   
    47   25   52 1   
    48   44   48 1   
    49   45   48 1   
@<TRIPOS>SUBSTRUCTURE
     1 ST8         1 TEMP              0 ****  ****    0 ROOT
