@<TRIPOS>MOLECULE
STA
   28    27     1     0     0
SMALL
bcc


@<TRIPOS>ATOM
      1 N          -0.8910    0.8630   -1.7500 n3        1 STA     -0.896800
      2 CA         -0.7420    0.4650   -0.3580 c3        1 STA      0.153500
      3 CB         -1.8760   -0.4510    0.1200 c3        1 STA     -0.065400
      4 CG         -3.2530    0.1930    0.0720 c3        1 STA     -0.068700
      5 CD1        -4.3240   -0.8720    0.2110 c3        1 STA     -0.086100
      6 CD2        -3.4160    1.2340    1.1600 c3        1 STA     -0.086100
      7 CH          0.6100   -0.2360   -0.0390 c3        1 STA      0.136100
      8 OH          0.7120   -1.3530   -0.9090 oh        1 STA     -0.661800
      9 CM          1.7850    0.7140   -0.1980 c3        1 STA     -0.239400
     10 C           3.0850    0.0940    0.3430 c         1 STA      0.910600
     11 O           3.3130   -1.1270    0.0850 o         1 STA     -0.845800
     12 OXT         3.8670    0.8320    1.0020 o         1 STA     -0.845800
     13 HN1        -0.0850    1.3980   -2.0160 hn        1 STA      0.342300
     14 HN2        -0.9090    0.0380   -2.3230 hn        1 STA      0.342300
     15 HA         -0.7660    1.4150    0.2560 h1        1 STA      0.047700
     16 HB1        -1.8730   -1.3830   -0.5050 hc        1 STA      0.045200
     17 HB2        -1.6510   -0.7580    1.1750 hc        1 STA      0.045200
     18 HG         -3.3870    0.6990   -0.9250 hc        1 STA      0.063700
     19 HD11       -4.2070   -1.4210    1.1760 hc        1 STA      0.025367
     20 HD12       -5.3390   -0.4090    0.1880 hc        1 STA      0.025367
     21 HD13       -4.2500   -1.6090   -0.6250 hc        1 STA      0.025367
     22 HD21       -2.6650    2.0500    1.0340 hc        1 STA      0.025367
     23 HD22       -4.4380    1.6830    1.1170 hc        1 STA      0.025367
     24 HD23       -3.2740    0.7760    2.1680 hc        1 STA      0.025367
     25 HC          0.5830   -0.6090    1.0240 h1        1 STA      0.033700
     26 HH          1.6240   -1.6880   -0.8170 ho        1 STA      0.458000
     27 HM1         1.9510    0.9450   -1.2800 hc        1 STA      0.034200
     28 HM2         1.5790    1.6700    0.3430 hc        1 STA      0.034200
@<TRIPOS>BOND
     1    1    2 1   
     2    1   13 1   
     3    1   14 1   
     4    2    3 1   
     5    2    7 1   
     6    2   15 1   
     7    3    4 1   
     8    3   16 1   
     9    3   17 1   
    10    4    5 1   
    11    4    6 1   
    12    4   18 1   
    13    5   19 1   
    14    5   20 1   
    15    5   21 1   
    16    6   22 1   
    17    6   23 1   
    18    6   24 1   
    19    7    8 1   
    20    7    9 1   
    21    7   25 1   
    22    8   26 1   
    23    9   10 1   
    24    9   27 1   
    25    9   28 1   
    26   10   11 1   
    27   10   12 1   
@<TRIPOS>SUBSTRUCTURE
     1 STA         1 TEMP              0 ****  ****    0 ROOT
