@<TRIPOS>MOLECULE
STB
   39    39     1     0     0
SMALL
bcc


@<TRIPOS>ATOM
      1 C1         -0.7590   -0.3380    1.5440 ca        1 STB     -0.078600
      2 C2         -1.5690   -0.7540    2.6050 ca        1 STB     -0.122500
      3 C3         -1.1110   -0.6270    3.9140 ca        1 STB     -0.026000
      4 C4          0.1560   -0.0980    4.1840 ca        1 STB     -0.362500
      5 C5          0.9560    0.3120    3.1120 ca        1 STB     -0.026000
      6 C6          0.5070    0.1970    1.7980 ca        1 STB     -0.122500
      7 C7         -1.2700   -0.5060    0.1480 c         1 STB      0.662700
      8 O7         -1.8440   -1.5550   -0.2070 o         1 STB     -0.593100
      9 N          -1.1210    0.5680   -0.7040 n         1 STB     -0.564900
     10 C1'        -1.5030    0.5190   -2.0880 c3        1 STB      0.086000
     11 C2'        -0.3290    0.5890   -3.0670 c3        1 STB     -0.103400
     12 C3'        -0.8470    0.5550   -4.4890 c3        1 STB     -0.082400
     13 C4'         0.3210    0.6460   -5.4680 c3        1 STB      0.159800
     14 N5'        -0.0990    0.6520   -6.8560 n3        1 STB     -0.822200
     15 C6'         0.9440    0.5340   -7.8130 c3        1 STB      0.294900
     16 S7'         1.8820   -1.0110   -7.8950 sh        1 STB     -0.486900
     17 S           0.7010    0.0730    5.7820 sy        1 STB      1.525200
     18 O1S        -0.4260    0.2170    6.6170 o         1 STB     -0.654800
     19 O2S         1.6740    1.0940    5.8040 o         1 STB     -0.654800
     20 N3S         1.4030   -1.3330    6.0780 n3        1 STB     -1.026700
     21 H2         -2.5610   -1.1880    2.3960 ha        1 STB      0.152000
     22 H3         -1.7610   -0.9320    4.7540 ha        1 STB      0.158000
     23 H5          1.9490    0.7510    3.3150 ha        1 STB      0.158000
     24 H6          1.1590    0.5160    0.9700 ha        1 STB      0.152000
     25 HN         -0.6010    1.3560   -0.4010 hn        1 STB      0.312500
     26 H1'1       -2.0800   -0.4330   -2.2720 h1        1 STB      0.064700
     27 H1'2       -2.1920    1.3910   -2.2900 h1        1 STB      0.064700
     28 H2'1        0.2580    1.5310   -2.9010 hc        1 STB      0.048200
     29 H2'2        0.3660   -0.2740   -2.8970 hc        1 STB      0.048200
     30 H3'1       -1.4190   -0.3950   -4.6570 hc        1 STB      0.050700
     31 H3'2       -1.5560    1.4080   -4.6560 hc        1 STB      0.050700
     32 H4'1        0.8800    1.6080   -5.2850 h1        1 STB      0.045200
     33 H4'2        1.0360   -0.2050   -5.2590 h1        1 STB      0.045200
     34 HN5        -0.8440    0.0020   -7.0190 hn        1 STB      0.372800
     35 H6'1        0.5150    0.7350   -8.8300 h2        1 STB      0.082700
     36 H6'2        1.7480    1.2890   -7.5940 h2        1 STB      0.082700
     37 HS7         0.9870   -1.7970   -8.4650 hs        1 STB      0.210800
     38 HN31        2.3610   -1.5130    5.9140 hn        1 STB      0.449800
     39 HN32        0.9300   -2.1110    6.4650 hn        1 STB      0.449800
@<TRIPOS>BOND
     1    1    2 ar  
     2    1    6 ar  
     3    1    7 1   
     4    2    3 ar  
     5    2   21 1   
     6    3    4 ar  
     7    3   22 1   
     8    4    5 ar  
     9    4   17 1   
    10    5    6 ar  
    11    5   23 1   
    12    6   24 1   
    13    7    8 2   
    14    7    9 1   
    15    9   10 1   
    16    9   25 1   
    17   10   11 1   
    18   10   26 1   
    19   10   27 1   
    20   11   12 1   
    21   11   28 1   
    22   11   29 1   
    23   12   13 1   
    24   12   30 1   
    25   12   31 1   
    26   13   14 1   
    27   13   32 1   
    28   13   33 1   
    29   14   15 1   
    30   14   34 1   
    31   15   16 1   
    32   15   35 1   
    33   15   36 1   
    34   16   37 1   
    35   17   18 2   
    36   17   19 2   
    37   17   20 1   
    38   20   38 1   
    39   20   39 1   
@<TRIPOS>SUBSTRUCTURE
     1 STB         1 TEMP              0 ****  ****    0 ROOT
