@<TRIPOS>MOLECULE
STB
   42    42     1     0     0
SMALL
bcc


@<TRIPOS>ATOM
      1 C1         -0.1850    0.4010    0.3060 ca        1 STB     -0.101600
      2 C2          1.0540   -0.2410    0.1840 ca        1 STB     -0.094500
      3 C3          1.8490   -0.4240    1.3170 ca        1 STB      0.015000
      4 C4          1.4350    0.0360    2.5780 ca        1 STB     -0.434500
      5 C5          0.1930    0.6920    2.6720 ca        1 STB      0.015000
      6 C6         -0.6170    0.8730    1.5520 ca        1 STB     -0.094500
      7 C7         -0.9640    0.6370   -0.9300 c         1 STB      0.553700
      8 O7         -0.5740    1.1500   -1.9630 o         1 STB     -0.346100
      9 N          -2.4090    0.1540   -0.9060 n4        1 STB     -0.677800
     10 C1'        -3.1300    0.4270   -2.1910 c3        1 STB      0.102800
     11 C2'        -4.5670   -0.0890   -2.1970 c3        1 STB     -0.103400
     12 C3'        -5.2010    0.2200   -3.5460 c3        1 STB     -0.104400
     13 C4'        -6.6400   -0.2920   -3.5620 c3        1 STB      0.094800
     14 N5'        -7.3480   -0.0260   -4.8490 n4        1 STB     -0.768000
     15 C6'        -8.8050   -0.4040   -4.7740 c3        1 STB      0.128900
     16 S7'        -9.7300    0.6950   -3.7830 sh        1 STB     -0.200900
     17 S           2.3080   -0.3210    3.9410 sy        1 STB      1.452200
     18 O1S         3.1960   -1.3470    3.7270 o         1 STB     -0.524300
     19 O2S         1.5700   -0.1250    5.0830 o         1 STB     -0.524300
     20 N3S         3.4620    1.1530    3.9920 n4        1 STB     -0.806500
     21 H2          1.4150   -0.5970   -0.8000 ha        1 STB      0.183500
     22 H3          2.8140   -0.9650    1.2100 ha        1 STB      0.202000
     23 H5         -0.1660    1.0550    3.6590 ha        1 STB      0.202000
     24 H6         -1.5730    1.4090    1.6670 ha        1 STB      0.183500
     25 HN         -2.4100   -0.8580   -0.7220 hn        1 STB      0.466800
     26 H1'1       -2.5390   -0.0580   -3.0220 hx        1 STB      0.126200
     27 H1'2       -3.1150    1.5440   -2.3590 hx        1 STB      0.126200
     28 H2'1       -4.5870   -1.1980   -2.0200 hc        1 STB      0.081700
     29 H2'2       -5.1640    0.4010   -1.3820 hc        1 STB      0.081700
     30 H3'1       -5.1810    1.3290   -3.7240 hc        1 STB      0.083200
     31 H3'2       -4.6050   -0.2700   -4.3630 hc        1 STB      0.083200
     32 H4'1       -7.2370    0.2070   -2.7390 hx        1 STB      0.120200
     33 H4'2       -6.6550   -1.4070   -3.3860 hx        1 STB      0.120200
     34 HN5        -7.2750    0.9770   -5.0710 hn        1 STB      0.454800
     35 H6'1       -9.1880   -0.4860   -5.8310 hx        1 STB      0.149700
     36 H6'2       -8.8700   -1.4270   -4.3020 hx        1 STB      0.149700
     37 HS7       -10.3100    1.4470   -4.7200 hs        1 STB      0.252800
     38 HN31        3.3480    1.6700    4.8710 hn        1 STB      0.477133
     39 HN32        3.3340    1.8210    3.2340 hn        1 STB      0.477133
     40 HN3        -2.8990    0.6170   -0.1310 hn        1 STB      0.466800
     41 H5'2       -6.8950   -0.5580   -5.6020 hn        1 STB      0.454800
     42 H3S3        4.4410    0.8450    3.9590 hn        1 STB      0.477133
@<TRIPOS>BOND
     1    1    2 ar  
     2    1    6 ar  
     3    1    7 1   
     4    2    3 ar  
     5    2   21 1   
     6    3    4 ar  
     7    3   22 1   
     8    4    5 ar  
     9    4   17 1   
    10    5    6 ar  
    11    5   23 1   
    12    6   24 1   
    13    7    8 2   
    14    7    9 1   
    15    9   10 1   
    16    9   25 1   
    17    9   40 1   
    18   10   11 1   
    19   10   26 1   
    20   10   27 1   
    21   11   12 1   
    22   11   28 1   
    23   11   29 1   
    24   12   13 1   
    25   12   30 1   
    26   12   31 1   
    27   13   14 1   
    28   13   32 1   
    29   13   33 1   
    30   14   15 1   
    31   14   34 1   
    32   14   41 1   
    33   15   16 1   
    34   15   35 1   
    35   15   36 1   
    36   16   37 1   
    37   17   18 2   
    38   17   19 2   
    39   17   20 1   
    40   20   38 1   
    41   20   39 1   
    42   20   42 1   
@<TRIPOS>SUBSTRUCTURE
     1 STB         1 TEMP              0 ****  ****    0 ROOT
