@<TRIPOS>MOLECULE
STB
   42    42     1     0     0
SMALL
bcc


@<TRIPOS>ATOM
      1 C1         -0.1850    0.4160    0.3050 ca        1 STB     -0.101600
      2 C2          1.0630   -0.2060    0.1700 ca        1 STB     -0.094500
      3 C3          1.8630   -0.3940    1.3000 ca        1 STB      0.015000
      4 C4          1.4440    0.0420    2.5680 ca        1 STB     -0.434500
      5 C5          0.1930    0.6780    2.6740 ca        1 STB      0.015000
      6 C6         -0.6210    0.8630    1.5570 ca        1 STB     -0.094500
      7 C7         -0.9690    0.6580   -0.9270 c         1 STB      0.553700
      8 O7         -0.5880    1.1900   -1.9540 o         1 STB     -0.346100
      9 N          -2.4080    0.1570   -0.9070 ny        1 STB     -0.677800
     10 C1'        -3.1350    0.4370   -2.1870 c3        1 STB      0.102800
     11 C2'        -4.5660   -0.0970   -2.1980 c3        1 STB     -0.103400
     12 C3'        -5.2050    0.2220   -3.5410 c3        1 STB     -0.104400
     13 C4'        -6.6380   -0.3070   -3.5610 c3        1 STB      0.094800
     14 N5'        -7.3530   -0.0330   -4.8430 ny        1 STB     -0.768000
     15 C6'        -8.8050   -0.4290   -4.7710 c3        1 STB      0.128900
     16 S7'        -9.7410    0.6470   -3.7650 sh        1 STB     -0.200900
     17 S           2.3240   -0.3220    3.9240 sy        1 STB      1.452200
     18 O1S         3.2270   -1.3310    3.6940 o         1 STB     -0.524300
     19 O2S         1.5860   -0.1530    5.0710 o         1 STB     -0.524300
     20 N3S         3.4570    1.1680    3.9950 nz        1 STB     -0.806500
     21 H2          1.4270   -0.5420   -0.8190 ha        1 STB      0.183500
     22 H3          2.8350   -0.9190    1.1830 ha        1 STB      0.202000
     23 H5         -0.1690    1.0220    3.6660 ha        1 STB      0.202000
     24 H6         -1.5860    1.3840    1.6820 ha        1 STB      0.183500
     25 HN         -2.9030    0.6030   -0.1260 hn        1 STB      0.466800
     26 H1'1       -2.5390   -0.0310   -3.0260 hx        1 STB      0.126200
     27 H1'2       -3.1340    1.5560   -2.3410 hx        1 STB      0.126200
     28 H2'1       -4.5720   -1.2080   -2.0340 hc        1 STB      0.081700
     29 H2'2       -5.1670    0.3760   -1.3750 hc        1 STB      0.081700
     30 H3'1       -5.1990    1.3330   -3.7060 hc        1 STB      0.083200
     31 H3'2       -4.6050   -0.2510   -4.3650 hc        1 STB      0.083200
     32 H4'1       -7.2400    0.1740   -2.7310 hx        1 STB      0.120200
     33 H4'2       -6.6400   -1.4250   -3.3990 hx        1 STB      0.120200
     34 HN5        -7.2920    0.9730   -5.0530 hn        1 STB      0.454800
     35 H6'1       -8.8570   -1.4600   -4.3110 hx        1 STB      0.149700
     36 H6'2       -9.1890   -0.5040   -5.8270 hx        1 STB      0.149700
     37 HS7       -10.3310    1.4030   -4.6920 hs        1 STB      0.252800
     38 HN31        3.3370    1.6700    4.8820 hn        1 STB      0.476800
     39 HN32        4.4400    0.8740    3.9560 hn        1 STB      0.476800
     40 HN3        -2.3960   -0.8570   -0.7360 hn        1 STB      0.466800
     41 H5'2       -6.8950   -0.5510   -5.6040 hn        1 STB      0.454800
     42 H3S3        3.3180    1.8440    3.2470 hn        1 STB      0.476800
@<TRIPOS>BOND
     1    1    2 ar  
     2    1    6 ar  
     3    1    7 1   
     4    2    3 ar  
     5    2   21 1   
     6    3    4 ar  
     7    3   22 1   
     8    4    5 ar  
     9    4   17 1   
    10    5    6 ar  
    11    5   23 1   
    12    6   24 1   
    13    7    8 2   
    14    7    9 1   
    15    9   10 1   
    16    9   25 1   
    17    9   40 1   
    18   10   11 1   
    19   10   26 1   
    20   10   27 1   
    21   11   12 1   
    22   11   28 1   
    23   11   29 1   
    24   12   13 1   
    25   12   30 1   
    26   12   31 1   
    27   13   14 1   
    28   13   32 1   
    29   13   33 1   
    30   14   15 1   
    31   14   34 1   
    32   14   41 1   
    33   15   16 1   
    34   15   35 1   
    35   15   36 1   
    36   16   37 1   
    37   17   18 2   
    38   17   19 2   
    39   17   20 1   
    40   20   38 1   
    41   20   39 1   
    42   20   42 1   
@<TRIPOS>SUBSTRUCTURE
     1 STB         1 TEMP              0 ****  ****    0 ROOT
