@<TRIPOS>MOLECULE
STB
   42    42     1     0     0
SMALL
bcc


@<TRIPOS>ATOM
      1 C1         -0.1830    0.4050    0.3020 ca        1 STB     -0.101600
      2 C2          1.0600   -0.2280    0.1720 ca        1 STB     -0.094500
      3 C3          1.8590   -0.4150    1.3030 ca        1 STB      0.015000
      4 C4          1.4430    0.0340    2.5670 ca        1 STB     -0.434500
      5 C5          0.1980    0.6810    2.6700 ca        1 STB      0.015000
      6 C6         -0.6150    0.8650    1.5520 ca        1 STB     -0.094500
      7 C7         -0.9660    0.6450   -0.9310 c         1 STB      0.553700
      8 O7         -0.5810    1.1680   -1.9610 o         1 STB     -0.346100
      9 N          -2.4080    0.1540   -0.9080 n4        1 STB     -0.677800
     10 C1'        -3.1340    0.4330   -2.1880 c3        1 STB      0.102800
     11 C2'        -4.5680   -0.0910   -2.1960 c3        1 STB     -0.103400
     12 C3'        -5.2070    0.2260   -3.5400 c3        1 STB     -0.104400
     13 C4'        -6.6430   -0.2950   -3.5570 c3        1 STB      0.094800
     14 N5'        -7.3560   -0.0210   -4.8400 n4        1 STB     -0.768000
     15 C6'        -8.8100   -0.4090   -4.7650 c3        1 STB      0.128900
     16 S7'        -9.7400    0.6760   -3.7610 sh        1 STB     -0.200900
     17 S           2.3220   -0.3280    3.9260 sy        1 STB      1.452200
     18 O1S         3.2160   -1.3460    3.7030 o         1 STB     -0.524300
     19 O2S         1.5850   -0.1440    5.0720 o         1 STB     -0.524300
     20 N3S         3.4660    1.1540    3.9860 n4        1 STB     -0.806500
     21 H2          1.4210   -0.5750   -0.8140 ha        1 STB      0.183500
     22 H3          2.8260   -0.9480    1.1900 ha        1 STB      0.202000
     23 H5         -0.1610    1.0350    3.6590 ha        1 STB      0.202000
     24 H6         -1.5750    1.3940    1.6730 ha        1 STB      0.183500
     25 HN         -2.8990    0.6070   -0.1280 hn        1 STB      0.466800
     26 H1'1       -2.5420   -0.0420   -3.0260 hx        1 STB      0.126200
     27 H1'2       -3.1260    1.5520   -2.3470 hx        1 STB      0.126200
     28 H2'1       -4.5810   -1.2020   -2.0280 hc        1 STB      0.081700
     29 H2'2       -5.1660    0.3880   -1.3740 hc        1 STB      0.081700
     30 H3'1       -5.1940    1.3370   -3.7090 hc        1 STB      0.083200
     31 H3'2       -4.6100   -0.2530   -4.3620 hc        1 STB      0.083200
     32 H4'1       -7.2400    0.1930   -2.7280 hx        1 STB      0.120200
     33 H4'2       -6.6510   -1.4120   -3.3910 hx        1 STB      0.120200
     34 HN5        -7.2900    0.9840   -5.0530 hn        1 STB      0.454800
     35 H6'1       -8.8690   -1.4370   -4.3020 hx        1 STB      0.149700
     36 H6'2       -9.1960   -0.4840   -5.8210 hx        1 STB      0.149700
     37 HS7       -10.3260    1.4320   -4.6900 hs        1 STB      0.252800
     38 HN31        3.3500    1.6640    4.8690 hn        1 STB      0.476800
     39 HN32        4.4470    0.8520    3.9490 hn        1 STB      0.476800
     40 HN3        -2.4020   -0.8600   -0.7320 hn        1 STB      0.466800
     41 H5'2       -6.9020   -0.5440   -5.5990 hn        1 STB      0.454800
     42 H3S3        3.3330    1.8260    3.2330 hn        1 STB      0.476800
@<TRIPOS>BOND
     1    1    2 ar  
     2    1    6 ar  
     3    1    7 1   
     4    2    3 ar  
     5    2   21 1   
     6    3    4 ar  
     7    3   22 1   
     8    4    5 ar  
     9    4   17 1   
    10    5    6 ar  
    11    5   23 1   
    12    6   24 1   
    13    7    8 2   
    14    7    9 1   
    15    9   10 1   
    16    9   25 1   
    17    9   40 1   
    18   10   11 1   
    19   10   26 1   
    20   10   27 1   
    21   11   12 1   
    22   11   28 1   
    23   11   29 1   
    24   12   13 1   
    25   12   30 1   
    26   12   31 1   
    27   13   14 1   
    28   13   32 1   
    29   13   33 1   
    30   14   15 1   
    31   14   34 1   
    32   14   41 1   
    33   15   16 1   
    34   15   35 1   
    35   15   36 1   
    36   16   37 1   
    37   17   18 2   
    38   17   19 2   
    39   17   20 1   
    40   20   38 1   
    41   20   39 1   
    42   20   42 1   
@<TRIPOS>SUBSTRUCTURE
     1 STB         1 TEMP              0 ****  ****    0 ROOT
