@<TRIPOS>MOLECULE
STC
   27    28     1     0     0
SMALL
bcc


@<TRIPOS>ATOM
      1 N1          1.4430    1.2660   -1.3210 n4        1 STC     -0.594300
      2 C2          2.2740    0.4520   -0.4560 ca        1 STC     -0.026400
      3 C3          1.9060    0.2740    0.8920 ca        1 STC     -0.087500
      4 C4          3.4410   -0.1550   -0.9600 ca        1 STC     -0.087500
      5 C5          2.6960   -0.5210    1.7190 ca        1 STC     -0.119500
      6 C6          4.2220   -0.9440   -0.1240 ca        1 STC     -0.119500
      7 C7          3.8500   -1.1270    1.2140 ca        1 STC      0.043400
      8 CL8         4.8100   -2.0900    2.2260 cl        1 STC     -0.065400
      9 S13         0.1740    0.2800   -2.2830 sy        1 STC      1.517200
     10 C15        -0.8360    1.4580   -2.6150 cc        1 STC     -0.594500
     11 O16        -0.2570   -0.7180   -1.4350 o         1 STC     -0.601800
     12 O17         0.9290   -0.1050   -3.3950 o         1 STC     -0.601800
     13 C18        -1.6600    2.2020   -1.7490 cd        1 STC     -0.048700
     14 C19        -1.0870    1.8520   -3.9840 cc        1 STC     -0.045000
     15 S20        -2.6410    3.2210   -2.5610 ss        1 STC      0.275200
     16 C21        -1.6670    2.1430   -0.2230 c         1 STC      0.930200
     17 C22        -2.0620    2.8100   -4.0700 cd        1 STC     -0.239100
     18 O23        -2.7690    2.1340    0.3540 o         1 STC     -0.769800
     19 O24        -0.5310    2.1390    0.3480 o         1 STC     -0.769800
     20 HN11        2.0420    1.7870   -1.9550 hn        1 STC      0.473800
     21 H31         0.9860    0.7520    1.2930 ha        1 STC      0.182000
     22 H41         3.7390   -0.0240   -2.0130 ha        1 STC      0.182000
     23 H51         2.4000   -0.6670    2.7710 ha        1 STC      0.164500
     24 H61         5.1300   -1.4250   -0.5200 ha        1 STC      0.164500
     25 H191       -0.5470    1.4060   -4.8280 ha        1 STC      0.176000
     26 H221       -2.4270    3.2540   -4.9960 h4        1 STC      0.186000
     27 H12         0.9230    1.9550   -0.7180 hn        1 STC      0.473800
@<TRIPOS>BOND
     1    1    2 1   
     2    1    9 1   
     3    1   20 1   
     4    1   27 1   
     5    2    3 ar  
     6    2    4 ar  
     7    3    5 ar  
     8    3   21 1   
     9    4    6 ar  
    10    4   22 1   
    11    5    7 ar  
    12    5   23 1   
    13    6    7 ar  
    14    6   24 1   
    15    7    8 1   
    16    9   10 1   
    17    9   11 2   
    18    9   12 2   
    19   10   13 2   
    20   10   14 1   
    21   13   15 1   
    22   13   16 1   
    23   14   17 2   
    24   14   25 1   
    25   15   17 1   
    26   16   18 1   
    27   16   19 1   
    28   17   26 1   
@<TRIPOS>SUBSTRUCTURE
     1 STC         1 TEMP              0 ****  ****    0 ROOT
