@<TRIPOS>MOLECULE
STC
   26    27     1     0     0
SMALL
bcc


@<TRIPOS>ATOM
      1 N1          0.9400   -0.0320   -0.1530 nh        1 STC     -0.768500
      2 C2          0.7560    0.0400   -1.5270 ca        1 STC      0.232600
      3 C3          0.8790    1.2970   -2.1790 ca        1 STC     -0.191000
      4 C4          0.4620   -1.0930   -2.3260 ca        1 STC     -0.191000
      5 C5          0.7200    1.4090   -3.5530 ca        1 STC     -0.095000
      6 C6          0.3020   -0.9690   -3.7010 ca        1 STC     -0.095000
      7 C7          0.4310    0.2760   -4.3170 ca        1 STC     -0.039600
      8 CL8         0.2360    0.4170   -6.0070 cl        1 STC     -0.138400
      9 S13         0.7430   -1.2600    0.9160 sy        1 STC      1.554200
     10 C15        -0.4300   -0.6930    1.9330 cc        1 STC     -0.460500
     11 O16         1.9550   -1.5020    1.5880 o         1 STC     -0.676800
     12 O17         0.2480   -2.4200    0.2560 o         1 STC     -0.676800
     13 C18        -0.4500    0.4370    2.7450 cd        1 STC      0.010300
     14 C19        -1.6510   -1.4460    2.0830 cc        1 STC     -0.066000
     15 S20        -1.8610    0.5280    3.6230 ss        1 STC      0.084200
     16 C21         0.5930    1.5350    2.9020 c         1 STC      0.928200
     17 C22        -2.5120   -0.8700    2.9810 cd        1 STC     -0.240100
     18 O23         0.8000    1.9640    4.0640 o         1 STC     -0.796300
     19 O24         1.1490    1.9770    1.8580 o         1 STC     -0.796300
     20 HN11        1.1850    0.8670    0.2510 hn        1 STC      0.502800
     21 H31         1.1030    2.2000   -1.5870 ha        1 STC      0.166000
     22 H41         0.3480   -2.0910   -1.8680 ha        1 STC      0.166000
     23 H51         0.8210    2.3930   -4.0340 ha        1 STC      0.134000
     24 H61         0.0730   -1.8630   -4.3000 ha        1 STC      0.134000
     25 H191       -1.8300   -2.3700    1.5230 ha        1 STC      0.164000
     26 H221       -3.4900   -1.2560    3.2560 h4        1 STC      0.157000
@<TRIPOS>BOND
     1    1    2 1   
     2    1    9 1   
     3    1   20 1   
     4    2    3 ar  
     5    2    4 ar  
     6    3    5 ar  
     7    3   21 1   
     8    4    6 ar  
     9    4   22 1   
    10    5    7 ar  
    11    5   23 1   
    12    6    7 ar  
    13    6   24 1   
    14    7    8 1   
    15    9   10 1   
    16    9   11 2   
    17    9   12 2   
    18   10   13 2   
    19   10   14 1   
    20   13   15 1   
    21   13   16 1   
    22   14   17 2   
    23   14   25 1   
    24   15   17 1   
    25   16   18 1   
    26   16   19 1   
    27   17   26 1   
@<TRIPOS>SUBSTRUCTURE
     1 STC         1 TEMP              0 ****  ****    0 ROOT
