@<TRIPOS>MOLECULE
STC
   26    27     1     0     0
SMALL
bcc


@<TRIPOS>ATOM
      1 N1          0.4780    0.3560   -0.5490 nu        1 STC     -0.768500
      2 C2          1.7730   -0.0140   -0.2150 ca        1 STC      0.232600
      3 C3          2.3660    0.5210    0.9610 ca        1 STC     -0.191000
      4 C4          2.5390   -0.9210   -0.9880 ca        1 STC     -0.191000
      5 C5          3.6510    0.1620    1.3410 ca        1 STC     -0.095500
      6 C6          3.8270   -1.2720   -0.6000 ca        1 STC     -0.095500
      7 C7          4.3850   -0.7350    0.5610 ca        1 STC     -0.039600
      8 Cl8         5.9660   -1.1750    1.0300 cl        1 STC     -0.138400
      9 S13        -0.4410    0.0560   -1.8740 sy        1 STC      1.554200
     10 C15        -0.7190    1.5620   -2.4950 cc        1 STC     -0.460500
     11 O16        -1.6320   -0.5860   -1.4890 o         1 STC     -0.676800
     12 O17         0.2970   -0.6990   -2.8310 o         1 STC     -0.676800
     13 C18        -1.3410    2.6700   -1.9280 cd        1 STC      0.010300
     14 C19        -0.3060    1.8510   -3.8460 cc        1 STC     -0.066000
     15 S20        -1.4130    3.9410   -3.0000 ss        1 STC      0.084200
     16 C21        -1.9120    2.8470   -0.5270 c         1 STC      0.928200
     17 C22        -0.6310    3.1260   -4.2300 cd        1 STC     -0.240100
     18 O23        -2.9950    3.4760   -0.4260 o         1 STC     -0.796300
     19 O24        -1.2450    2.3970    0.4460 o         1 STC     -0.796300
     20 HN11        0.0650    0.9790    0.1380 hn        1 STC      0.502800
     21 H31         1.7990    1.2330    1.5840 ha        1 STC      0.166000
     22 H41         2.1280   -1.3590   -1.9140 ha        1 STC      0.166000
     23 H51         4.0880    0.5890    2.2560 ha        1 STC      0.134000
     24 H61         4.4020   -1.9780   -1.2170 ha        1 STC      0.134000
     25 H191        0.2070    1.1060   -4.4630 ha        1 STC      0.164000
     26 H221       -0.4210    3.5680   -5.2000 h4        1 STC      0.156000
@<TRIPOS>BOND
     1    1    2 1   
     2    1    9 1   
     3    1   20 1   
     4    2    3 ar  
     5    2    4 ar  
     6    3    5 ar  
     7    3   21 1   
     8    4    6 ar  
     9    4   22 1   
    10    5    7 ar  
    11    5   23 1   
    12    6    7 ar  
    13    6   24 1   
    14    7    8 1   
    15    9   10 1   
    16    9   11 2   
    17    9   12 2   
    18   10   13 2   
    19   10   14 1   
    20   13   15 1   
    21   13   16 1   
    22   14   17 2   
    23   14   25 1   
    24   15   17 1   
    25   16   18 1   
    26   16   19 1   
    27   17   26 1   
@<TRIPOS>SUBSTRUCTURE
     1 STC         1 TEMP              0 ****  ****    0 ROOT
