@<TRIPOS>MOLECULE
STC
   26    27     1     0     0
SMALL
bcc


@<TRIPOS>ATOM
      1 N1          0.4730    0.3510   -0.5470 nh        1 STC     -0.768500
      2 C2          1.7700   -0.0160   -0.2140 ca        1 STC      0.232600
      3 C3          2.3630    0.5200    0.9610 ca        1 STC     -0.191000
      4 C4          2.5380   -0.9200   -0.9890 ca        1 STC     -0.191000
      5 C5          3.6500    0.1650    1.3390 ca        1 STC     -0.095500
      6 C6          3.8270   -1.2680   -0.6030 ca        1 STC     -0.095500
      7 C7          4.3850   -0.7300    0.5580 ca        1 STC     -0.039600
      8 CL8         5.9680   -1.1660    1.0250 cl        1 STC     -0.138400
      9 S13        -0.4440    0.0530   -1.8730 sy        1 STC      1.554200
     10 C15        -0.7180    1.5610   -2.4940 cc        1 STC     -0.460500
     11 O16        -1.6370   -0.5860   -1.4890 o         1 STC     -0.676800
     12 O17         0.2930   -0.7030   -2.8290 o         1 STC     -0.676800
     13 C18        -1.3380    2.6690   -1.9270 cd        1 STC      0.010300
     14 C19        -0.3030    1.8490   -3.8440 cc        1 STC     -0.066000
     15 S20        -1.4060    3.9410   -2.9990 ss        1 STC      0.084200
     16 C21        -1.9110    2.8480   -0.5270 c         1 STC      0.928200
     17 C22        -0.6240    3.1250   -4.2280 cd        1 STC     -0.240100
     18 O23        -2.9910    3.4810   -0.4280 o         1 STC     -0.796300
     19 O24        -1.2480    2.3930    0.4470 o         1 STC     -0.796300
     20 HN11        0.0590    0.9710    0.1420 hn        1 STC      0.502800
     21 H31         1.7960    1.2310    1.5850 ha        1 STC      0.166000
     22 H41         2.1270   -1.3590   -1.9150 ha        1 STC      0.166000
     23 H51         4.0870    0.5930    2.2530 ha        1 STC      0.134000
     24 H61         4.4030   -1.9720   -1.2210 ha        1 STC      0.134000
     25 H191        0.2100    1.1030   -4.4610 ha        1 STC      0.164000
     26 H221       -0.4110    3.5660   -5.1980 h4        1 STC      0.156000
@<TRIPOS>BOND
     1    1    2 1   
     2    1    9 1   
     3    1   20 1   
     4    2    3 ar  
     5    2    4 ar  
     6    3    5 ar  
     7    3   21 1   
     8    4    6 ar  
     9    4   22 1   
    10    5    7 ar  
    11    5   23 1   
    12    6    7 ar  
    13    6   24 1   
    14    7    8 1   
    15    9   10 1   
    16    9   11 2   
    17    9   12 2   
    18   10   13 2   
    19   10   14 1   
    20   13   15 1   
    21   13   16 1   
    22   14   17 2   
    23   14   25 1   
    24   15   17 1   
    25   16   18 1   
    26   16   19 1   
    27   17   26 1   
@<TRIPOS>SUBSTRUCTURE
     1 STC         1 TEMP              0 ****  ****    0 ROOT
