@<TRIPOS>MOLECULE
STE
   55    54     1     0     0
SMALL
bcc


@<TRIPOS>ATOM
      1 C1          0.0270   -0.1300    0.0430 c         1 STE      0.907600
      2 O1          0.9420   -1.0000    0.1290 o         1 STE     -0.853800
      3 O2         -0.3180    0.6230    0.9990 o         1 STE     -0.853800
      4 C2         -0.7310    0.0110   -1.2890 c3        1 STE     -0.193400
      5 C3          0.2200    0.0400   -2.4610 c3        1 STE     -0.065400
      6 C4         -0.5140   -0.0080   -3.7850 c3        1 STE     -0.078400
      7 C5          0.4470    0.0400   -4.9540 c3        1 STE     -0.078400
      8 C6         -0.2850   -0.0170   -6.2770 c3        1 STE     -0.078400
      9 C7          0.6780    0.0330   -7.4440 c3        1 STE     -0.079400
     10 C8         -0.0540   -0.0240   -8.7680 c3        1 STE     -0.078400
     11 C9          0.9100    0.0250   -9.9340 c3        1 STE     -0.079400
     12 C10         0.1780   -0.0320  -11.2570 c3        1 STE     -0.078400
     13 C11         1.1420    0.0180  -12.4230 c3        1 STE     -0.079400
     14 C12         0.4090   -0.0380  -13.7460 c3        1 STE     -0.078400
     15 C13         1.3740    0.0120  -14.9120 c3        1 STE     -0.079400
     16 C14         0.6410   -0.0440  -16.2350 c3        1 STE     -0.078400
     17 C15         1.6060    0.0070  -17.4000 c3        1 STE     -0.079400
     18 C16         0.8730   -0.0490  -18.7230 c3        1 STE     -0.079400
     19 C17         1.8370    0.0020  -19.8900 c3        1 STE     -0.080400
     20 C18         1.1110   -0.0530  -21.2100 c3        1 STE     -0.092100
     21 H21        -1.3500    0.9410   -1.2660 hc        1 STE      0.018700
     22 H22        -1.4250   -0.8630   -1.3810 hc        1 STE      0.018700
     23 H31         0.9210   -0.8330   -2.3760 hc        1 STE      0.043700
     24 H32         0.8440    0.9700   -2.4120 hc        1 STE      0.043700
     25 H41        -1.2290    0.8540   -3.8510 hc        1 STE      0.025700
     26 H42        -1.1250   -0.9470   -3.8410 hc        1 STE      0.025700
     27 H51         1.0540    0.9820   -4.9000 hc        1 STE      0.036700
     28 H52         1.1650   -0.8190   -4.8830 hc        1 STE      0.036700
     29 H61        -1.0030    0.8420   -6.3470 hc        1 STE      0.034200
     30 H62        -0.8910   -0.9590   -6.3310 hc        1 STE      0.034200
     31 H71         1.2850    0.9750   -7.3900 hc        1 STE      0.037200
     32 H72         1.3970   -0.8260   -7.3740 hc        1 STE      0.037200
     33 H81        -0.7720    0.8350   -8.8370 hc        1 STE      0.036700
     34 H82        -0.6600   -0.9670   -8.8210 hc        1 STE      0.036700
     35 H91         1.5170    0.9670   -9.8800 hc        1 STE      0.038200
     36 H92         1.6280   -0.8340   -9.8640 hc        1 STE      0.038200
     37 H101       -0.5400    0.8280  -11.3260 hc        1 STE      0.038200
     38 H102       -0.4290   -0.9740  -11.3110 hc        1 STE      0.038200
     39 H111        1.8600   -0.8410  -12.3530 hc        1 STE      0.038700
     40 H112        1.7490    0.9600  -12.3680 hc        1 STE      0.038700
     41 H121       -0.1970   -0.9800  -13.8000 hc        1 STE      0.038700
     42 H122       -0.3090    0.8210  -13.8150 hc        1 STE      0.038700
     43 H131        1.9810    0.9540  -14.8570 hc        1 STE      0.038700
     44 H132        2.0920   -0.8470  -14.8420 hc        1 STE      0.038700
     45 H141       -0.0770    0.8150  -16.3030 hc        1 STE      0.038700
     46 H142        0.0350   -0.9860  -16.2890 hc        1 STE      0.038700
     47 H151        2.3240   -0.8530  -17.3310 hc        1 STE      0.038700
     48 H152        2.2120    0.9490  -17.3450 hc        1 STE      0.038700
     49 H161        0.2660   -0.9910  -18.7780 hc        1 STE      0.038700
     50 H162        0.1550    0.8100  -18.7920 hc        1 STE      0.038700
     51 H171        2.5550   -0.8580  -19.8190 hc        1 STE      0.037700
     52 H172        2.4440    0.9440  -19.8320 hc        1 STE      0.037700
     53 H181        1.8400   -0.0140  -22.0550 hc        1 STE      0.031033
     54 H182        0.4090    0.8100  -21.3090 hc        1 STE      0.031033
     55 H183        0.5200   -0.9960  -21.2960 hc        1 STE      0.031033
@<TRIPOS>BOND
     1    1    2 1   
     2    1    3 1   
     3    1    4 1   
     4    4    5 1   
     5    4   21 1   
     6    4   22 1   
     7    5    6 1   
     8    5   23 1   
     9    5   24 1   
    10    6    7 1   
    11    6   25 1   
    12    6   26 1   
    13    7    8 1   
    14    7   27 1   
    15    7   28 1   
    16    8    9 1   
    17    8   29 1   
    18    8   30 1   
    19    9   10 1   
    20    9   31 1   
    21    9   32 1   
    22   10   11 1   
    23   10   33 1   
    24   10   34 1   
    25   11   12 1   
    26   11   35 1   
    27   11   36 1   
    28   12   13 1   
    29   12   37 1   
    30   12   38 1   
    31   13   14 1   
    32   13   39 1   
    33   13   40 1   
    34   14   15 1   
    35   14   41 1   
    36   14   42 1   
    37   15   16 1   
    38   15   43 1   
    39   15   44 1   
    40   16   17 1   
    41   16   45 1   
    42   16   46 1   
    43   17   18 1   
    44   17   47 1   
    45   17   48 1   
    46   18   19 1   
    47   18   49 1   
    48   18   50 1   
    49   19   20 1   
    50   19   51 1   
    51   19   52 1   
    52   20   53 1   
    53   20   54 1   
    54   20   55 1   
@<TRIPOS>SUBSTRUCTURE
     1 STE         1 TEMP              0 ****  ****    0 ROOT
