@<TRIPOS>MOLECULE
STE
   55    54     1     0     0
SMALL
bcc


@<TRIPOS>ATOM
      1 C1          0.1880   -0.1350   -9.4630 c         1 STE      0.907600
      2 O1          1.0950   -1.0180   -9.4820 o         1 STE     -0.853800
      3 O2         -0.0770    0.6210  -10.4420 o         1 STE     -0.853800
      4 C2         -0.6620    0.0190   -8.1890 c3        1 STE     -0.193400
      5 C3          0.2020    0.0380   -6.9520 c3        1 STE     -0.065400
      6 C4         -0.6260    0.0030   -5.6840 c3        1 STE     -0.078400
      7 C5          0.2490    0.0410   -4.4490 c3        1 STE     -0.078400
      8 C6         -0.5760   -0.0030   -3.1820 c3        1 STE     -0.078400
      9 C7          0.3010    0.0370   -1.9490 c3        1 STE     -0.079400
     10 C8         -0.5250   -0.0070   -0.6810 c3        1 STE     -0.078400
     11 C9          0.3530    0.0330    0.5510 c3        1 STE     -0.079400
     12 C10        -0.4740   -0.0110    1.8180 c3        1 STE     -0.078400
     13 C11         0.4050    0.0290    3.0500 c3        1 STE     -0.079400
     14 C12        -0.4220   -0.0160    4.3180 c3        1 STE     -0.078400
     15 C13         0.4570    0.0240    5.5490 c3        1 STE     -0.079400
     16 C14        -0.3700   -0.0210    6.8170 c3        1 STE     -0.078400
     17 C15         0.5090    0.0200    8.0480 c3        1 STE     -0.079400
     18 C16        -0.3170   -0.0250    9.3160 c3        1 STE     -0.079400
     19 C17         0.5600    0.0150   10.5480 c3        1 STE     -0.080400
     20 C18        -0.2580   -0.0290   11.8120 c3        1 STE     -0.092100
     21 H21        -1.3720   -0.8460   -8.1460 hc        1 STE      0.018700
     22 H22        -1.2660    0.9570   -8.2570 hc        1 STE      0.018700
     23 H31         0.8400    0.9600   -6.9570 hc        1 STE      0.043700
     24 H32         0.8960   -0.8440   -6.9850 hc        1 STE      0.043700
     25 H41        -1.2520   -0.9280   -5.6700 hc        1 STE      0.025700
     26 H42        -1.3320    0.8750   -5.6710 hc        1 STE      0.025700
     27 H51         0.8720    0.9750   -4.4600 hc        1 STE      0.036700
     28 H52         0.9590   -0.8280   -4.4670 hc        1 STE      0.036700
     29 H61        -1.1980   -0.9370   -3.1710 hc        1 STE      0.034200
     30 H62        -1.2870    0.8660   -3.1660 hc        1 STE      0.034200
     31 H71         0.9220    0.9720   -1.9600 hc        1 STE      0.037200
     32 H72         1.0110   -0.8310   -1.9650 hc        1 STE      0.037200
     33 H81        -1.1460   -0.9420   -0.6700 hc        1 STE      0.036700
     34 H82        -1.2360    0.8610   -0.6650 hc        1 STE      0.036700
     35 H91         0.9740    0.9680    0.5400 hc        1 STE      0.038200
     36 H92         1.0630   -0.8350    0.5340 hc        1 STE      0.038200
     37 H101       -1.0940   -0.9460    1.8290 hc        1 STE      0.038200
     38 H102       -1.1840    0.8570    1.8350 hc        1 STE      0.038200
     39 H111        1.0250    0.9640    3.0390 hc        1 STE      0.038700
     40 H112        1.1150   -0.8390    3.0340 hc        1 STE      0.038700
     41 H121       -1.0420   -0.9510    4.3290 hc        1 STE      0.038700
     42 H122       -1.1320    0.8520    4.3340 hc        1 STE      0.038700
     43 H131        1.0770    0.9590    5.5380 hc        1 STE      0.038700
     44 H132        1.1670   -0.8440    5.5330 hc        1 STE      0.038700
     45 H141       -0.9900   -0.9550    6.8280 hc        1 STE      0.038700
     46 H142       -1.0800    0.8480    6.8330 hc        1 STE      0.038700
     47 H151        1.1290    0.9550    8.0370 hc        1 STE      0.038700
     48 H152        1.2200   -0.8480    8.0320 hc        1 STE      0.038700
     49 H161       -0.9380   -0.9600    9.3270 hc        1 STE      0.038700
     50 H162       -1.0280    0.8430    9.3320 hc        1 STE      0.038700
     51 H171        1.1810    0.9500   10.5340 hc        1 STE      0.037700
     52 H172        1.2720   -0.8530   10.5290 hc        1 STE      0.037700
     53 H181        0.4080    0.0010   12.7080 hc        1 STE      0.031033
     54 H182       -0.9560    0.8410   11.8610 hc        1 STE      0.031033
     55 H183       -0.8650   -0.9660   11.8560 hc        1 STE      0.031033
@<TRIPOS>BOND
     1    1    2 1   
     2    1    3 1   
     3    1    4 1   
     4    4    5 1   
     5    4   21 1   
     6    4   22 1   
     7    5    6 1   
     8    5   23 1   
     9    5   24 1   
    10    6    7 1   
    11    6   25 1   
    12    6   26 1   
    13    7    8 1   
    14    7   27 1   
    15    7   28 1   
    16    8    9 1   
    17    8   29 1   
    18    8   30 1   
    19    9   10 1   
    20    9   31 1   
    21    9   32 1   
    22   10   11 1   
    23   10   33 1   
    24   10   34 1   
    25   11   12 1   
    26   11   35 1   
    27   11   36 1   
    28   12   13 1   
    29   12   37 1   
    30   12   38 1   
    31   13   14 1   
    32   13   39 1   
    33   13   40 1   
    34   14   15 1   
    35   14   41 1   
    36   14   42 1   
    37   15   16 1   
    38   15   43 1   
    39   15   44 1   
    40   16   17 1   
    41   16   45 1   
    42   16   46 1   
    43   17   18 1   
    44   17   47 1   
    45   17   48 1   
    46   18   19 1   
    47   18   49 1   
    48   18   50 1   
    49   19   20 1   
    50   19   51 1   
    51   19   52 1   
    52   20   53 1   
    53   20   54 1   
    54   20   55 1   
@<TRIPOS>SUBSTRUCTURE
     1 STE         1 TEMP              0 ****  ****    0 ROOT
