@<TRIPOS>MOLECULE
STE
   55    54     1     0     0
SMALL
bcc


@<TRIPOS>ATOM
      1 C1          0.0240   -0.1360    0.0430 c         1 STE      0.907600
      2 O1          0.9190   -1.0260    0.1280 o         1 STE     -0.853800
      3 O2         -0.3050    0.6240    0.9990 o         1 STE     -0.853800
      4 C2         -0.7310    0.0230   -1.2890 c3        1 STE     -0.193400
      5 C3          0.2200    0.0330   -2.4610 c3        1 STE     -0.065400
      6 C4         -0.5150    0.0040   -3.7850 c3        1 STE     -0.078400
      7 C5          0.4470    0.0330   -4.9530 c3        1 STE     -0.078400
      8 C6         -0.2850   -0.0060   -6.2770 c3        1 STE     -0.078400
      9 C7          0.6790    0.0250   -7.4440 c3        1 STE     -0.079400
     10 C8         -0.0540   -0.0140   -8.7680 c3        1 STE     -0.078400
     11 C9          0.9110    0.0170   -9.9340 c3        1 STE     -0.079400
     12 C10         0.1770   -0.0220  -11.2570 c3        1 STE     -0.078400
     13 C11         1.1430    0.0090  -12.4230 c3        1 STE     -0.079400
     14 C12         0.4090   -0.0290  -13.7460 c3        1 STE     -0.078400
     15 C13         1.3750    0.0020  -14.9110 c3        1 STE     -0.079400
     16 C14         0.6410   -0.0370  -16.2350 c3        1 STE     -0.078400
     17 C15         1.6070   -0.0050  -17.4000 c3        1 STE     -0.079400
     18 C16         0.8730   -0.0430  -18.7230 c3        1 STE     -0.079400
     19 C17         1.8380   -0.0120  -19.8900 c3        1 STE     -0.080400
     20 C18         1.1120   -0.0500  -21.2100 c3        1 STE     -0.092100
     21 H21        -1.3310    0.9670   -1.2650 hc        1 STE      0.018700
     22 H22        -1.4440   -0.8360   -1.3830 hc        1 STE      0.018700
     23 H31         0.9030   -0.8540   -2.3770 hc        1 STE      0.043700
     24 H32         0.8640    0.9500   -2.4110 hc        1 STE      0.043700
     25 H41        -1.2110    0.8810   -3.8500 hc        1 STE      0.025700
     26 H42        -1.1450   -0.9220   -3.8430 hc        1 STE      0.025700
     27 H51         1.0750    0.9610   -4.8980 hc        1 STE      0.036700
     28 H52         1.1460   -0.8420   -4.8840 hc        1 STE      0.036700
     29 H61        -0.9850    0.8680   -6.3450 hc        1 STE      0.034200
     30 H62        -0.9120   -0.9350   -6.3320 hc        1 STE      0.034200
     31 H71         1.3050    0.9540   -7.3880 hc        1 STE      0.037200
     32 H72         1.3790   -0.8490   -7.3750 hc        1 STE      0.037200
     33 H81        -0.7540    0.8600   -8.8360 hc        1 STE      0.036700
     34 H82        -0.6800   -0.9430   -8.8230 hc        1 STE      0.036700
     35 H91         1.5370    0.9460   -9.8780 hc        1 STE      0.038200
     36 H92         1.6110   -0.8570   -9.8650 hc        1 STE      0.038200
     37 H101       -0.5220    0.8520  -11.3250 hc        1 STE      0.038200
     38 H102       -0.4490   -0.9510  -11.3120 hc        1 STE      0.038200
     39 H111        1.8420   -0.8650  -12.3540 hc        1 STE      0.038700
     40 H112        1.7690    0.9380  -12.3670 hc        1 STE      0.038700
     41 H121       -0.2170   -0.9590  -13.8020 hc        1 STE      0.038700
     42 H122       -0.2900    0.8450  -13.8140 hc        1 STE      0.038700
     43 H131        2.0010    0.9310  -14.8550 hc        1 STE      0.038700
     44 H132        2.0740   -0.8730  -14.8440 hc        1 STE      0.038700
     45 H141       -0.0590    0.8380  -16.3020 hc        1 STE      0.038700
     46 H142        0.0150   -0.9660  -16.2910 hc        1 STE      0.038700
     47 H151        2.3060   -0.8800  -17.3320 hc        1 STE      0.038700
     48 H152        2.2330    0.9240  -17.3440 hc        1 STE      0.038700
     49 H161        0.2470   -0.9730  -18.7800 hc        1 STE      0.038700
     50 H162        0.1740    0.8310  -18.7910 hc        1 STE      0.038700
     51 H171        2.5380   -0.8860  -19.8190 hc        1 STE      0.037700
     52 H172        2.4650    0.9170  -19.8310 hc        1 STE      0.037700
     53 H181        1.8410   -0.0260  -22.0550 hc        1 STE      0.031033
     54 H182        0.4280    0.8270  -21.3090 hc        1 STE      0.031033
     55 H183        0.5010   -0.9810  -21.2970 hc        1 STE      0.031033
@<TRIPOS>BOND
     1    1    2 1   
     2    1    3 1   
     3    1    4 1   
     4    4    5 1   
     5    4   21 1   
     6    4   22 1   
     7    5    6 1   
     8    5   23 1   
     9    5   24 1   
    10    6    7 1   
    11    6   25 1   
    12    6   26 1   
    13    7    8 1   
    14    7   27 1   
    15    7   28 1   
    16    8    9 1   
    17    8   29 1   
    18    8   30 1   
    19    9   10 1   
    20    9   31 1   
    21    9   32 1   
    22   10   11 1   
    23   10   33 1   
    24   10   34 1   
    25   11   12 1   
    26   11   35 1   
    27   11   36 1   
    28   12   13 1   
    29   12   37 1   
    30   12   38 1   
    31   13   14 1   
    32   13   39 1   
    33   13   40 1   
    34   14   15 1   
    35   14   41 1   
    36   14   42 1   
    37   15   16 1   
    38   15   43 1   
    39   15   44 1   
    40   16   17 1   
    41   16   45 1   
    42   16   46 1   
    43   17   18 1   
    44   17   47 1   
    45   17   48 1   
    46   18   19 1   
    47   18   49 1   
    48   18   50 1   
    49   19   20 1   
    50   19   51 1   
    51   19   52 1   
    52   20   53 1   
    53   20   54 1   
    54   20   55 1   
@<TRIPOS>SUBSTRUCTURE
     1 STE         1 TEMP              0 ****  ****    0 ROOT
