@<TRIPOS>MOLECULE
STF
   26    27     1     0     0
SMALL
bcc


@<TRIPOS>ATOM
      1 C8          0.1180    0.0660    0.0690 c3        1 STF     -0.112600
      2 S12         1.8720   -0.2120    0.2650 ss        1 STF     -0.260300
      3 C11         1.7300   -0.3360    2.0070 c2        1 STF      0.476100
      4 N10         0.5320   -0.1920    2.5100 ne        1 STF     -0.611100
      5 C9         -0.4580    0.0470    1.5040 c         1 STF      0.684500
      6 O17        -1.6530    0.2150    1.7360 o         1 STF     -0.476100
      7 S18         3.1020   -0.6300    2.9390 sh        1 STF     -0.091000
      8 C7         -0.2180    1.3650   -0.6280 c3        1 STF     -0.026100
      9 C1         -0.0780    1.2660   -2.1070 ca        1 STF     -0.061300
     10 C6         -0.9870    0.4990   -2.8480 ca        1 STF     -0.128000
     11 C5         -0.8740    0.4170   -4.2340 ca        1 STF     -0.078500
     12 C4          0.1520    1.1060   -4.8850 ca        1 STF     -0.166300
     13 C3          1.0610    1.8760   -4.1570 ca        1 STF     -0.078500
     14 C2          0.9450    1.9540   -2.7700 ca        1 STF     -0.128000
     15 C13         0.2680    1.0330   -6.4020 c3        1 STF      0.687200
     16 F16        -0.1820   -0.1430   -6.9530 f         1 STF     -0.235967
     17 F15         1.5480    1.1620   -6.8840 f         1 STF     -0.235967
     18 F14        -0.4400    2.0050   -7.0680 f         1 STF     -0.235967
     19 H7         -0.3200   -0.8000   -0.4940 h1        1 STF      0.122700
     20 H19         3.9840   -0.6830    1.9470 hs        1 STF      0.192800
     21 H6         -1.2870    1.6300   -0.3790 hc        1 STF      0.080200
     22 H5          0.4320    2.1900   -0.2300 hc        1 STF      0.080200
     23 H4         -1.7980   -0.0370   -2.3330 ha        1 STF      0.146000
     24 H3         -1.5860   -0.1890   -4.8160 ha        1 STF      0.154500
     25 H2          1.8690    2.4140   -4.6790 ha        1 STF      0.154500
     26 H1          1.6620    2.5620   -2.1970 ha        1 STF      0.146000
@<TRIPOS>BOND
     1    1    2 1   
     2    1    5 1   
     3    1    8 1   
     4    1   19 1   
     5    2    3 1   
     6    3    4 2   
     7    3    7 1   
     8    4    5 1   
     9    5    6 2   
    10    7   20 1   
    11    8    9 1   
    12    8   21 1   
    13    8   22 1   
    14    9   10 ar  
    15    9   14 ar  
    16   10   11 ar  
    17   10   23 1   
    18   11   12 ar  
    19   11   24 1   
    20   12   13 ar  
    21   12   15 1   
    22   13   14 ar  
    23   13   25 1   
    24   14   26 1   
    25   15   16 1   
    26   15   17 1   
    27   15   18 1   
@<TRIPOS>SUBSTRUCTURE
     1 STF         1 TEMP              0 ****  ****    0 ROOT
