@<TRIPOS>MOLECULE
STF
   26    27     1     0     0
SMALL
bcc


@<TRIPOS>ATOM
      1 C8          0.1200    0.0680    0.0740 c3        1 STF     -0.112600
      2 S12         1.8740   -0.2080    0.2720 ss        1 STF     -0.260300
      3 C11         1.7310   -0.3270    2.0140 c2        1 STF      0.476100
      4 N10         0.5330   -0.1820    2.5160 ne        1 STF     -0.611100
      5 C9         -0.4560    0.0530    1.5090 c         1 STF      0.684500
      6 O17        -1.6520    0.2210    1.7390 o         1 STF     -0.476100
      7 S18         3.1030   -0.6180    2.9480 sh        1 STF     -0.091000
      8 C7         -0.2160    1.3660   -0.6270 c3        1 STF     -0.026100
      9 C1         -0.0750    1.2620   -2.1060 ca        1 STF     -0.061300
     10 C6         -0.9850    0.4940   -2.8450 ca        1 STF     -0.128000
     11 C5         -0.8710    0.4080   -4.2300 ca        1 STF     -0.078500
     12 C4          0.1560    1.0940   -4.8830 ca        1 STF     -0.166300
     13 C3          1.0650    1.8650   -4.1570 ca        1 STF     -0.078500
     14 C2          0.9490    1.9470   -2.7700 ca        1 STF     -0.128000
     15 C13         0.2720    1.0160   -6.4000 c3        1 STF      0.687200
     16 F16        -0.1830   -0.1590   -6.9480 f         1 STF     -0.235967
     17 F15         1.5530    1.1370   -6.8810 f         1 STF     -0.235967
     18 F14        -0.4300    1.9910   -7.0690 f         1 STF     -0.235967
     19 H7         -0.3160   -0.7990   -0.4870 h1        1 STF      0.122700
     20 H19         3.9860   -0.6720    1.9570 hs        1 STF      0.191800
     21 H6         -1.2850    1.6310   -0.3790 hc        1 STF      0.080200
     22 H5          0.4340    2.1920   -0.2310 hc        1 STF      0.080200
     23 H4         -1.7970   -0.0400   -2.3280 ha        1 STF      0.146000
     24 H3         -1.5840   -0.1980   -4.8110 ha        1 STF      0.154500
     25 H2          1.8740    2.4000   -4.6800 ha        1 STF      0.154500
     26 H1          1.6660    2.5560   -2.1990 ha        1 STF      0.146000
@<TRIPOS>BOND
     1    1    2 1   
     2    1    5 1   
     3    1    8 1   
     4    1   19 1   
     5    2    3 1   
     6    3    4 2   
     7    3    7 1   
     8    4    5 1   
     9    5    6 2   
    10    7   20 1   
    11    8    9 1   
    12    8   21 1   
    13    8   22 1   
    14    9   10 ar  
    15    9   14 ar  
    16   10   11 ar  
    17   10   23 1   
    18   11   12 ar  
    19   11   24 1   
    20   12   13 ar  
    21   12   15 1   
    22   13   14 ar  
    23   13   25 1   
    24   14   26 1   
    25   15   16 1   
    26   15   17 1   
    27   15   18 1   
@<TRIPOS>SUBSTRUCTURE
     1 STF         1 TEMP              0 ****  ****    0 ROOT
