@<TRIPOS>MOLECULE
STF
   26    24     1     0     0
SMALL
bcc


@<TRIPOS>ATOM
      1 C8          1.7810   -0.8880   -0.3250 c3        1 STF     -0.293000
      2 S12         1.5780   -2.3520   -1.1720 ss        1 STF      0.204000
      3 C11         3.0460   -2.6830   -1.7200 c2        1 STF     -0.259000
      4 N10         4.0140   -1.8730   -1.2410 n1        1 STF     -0.226000
      5 C9          3.5200   -0.7600   -0.3060 c1        1 STF      0.260000
      6 O17         4.1910    0.0920    0.2470 o         1 STF     -0.242000
      7 S18         3.2480   -3.4710   -3.2950 sh        1 STF      0.266000
      8 C7          1.1000    0.2470   -0.9110 c3        1 STF     -0.111000
      9 C1         -0.1820    0.5630   -0.0920 c2        1 STF     -0.055000
     10 C6         -1.3630   -0.1200   -0.3620 c1        1 STF     -0.134000
     11 C5         -2.5440    0.2440    0.2870 c1        1 STF     -0.077000
     12 C4         -2.5400    1.2870    1.2000 c1        1 STF     -0.159000
     13 C3         -1.3570    1.9710    1.4700 c1        1 STF     -0.079000
     14 C2         -0.1790    1.6070    0.8220 c2        1 STF     -0.125000
     15 C13        -3.8130    1.6430    1.9540 c3        1 STF      0.466000
     16 F16        -3.4960    2.1050    3.1700 f         1 STF     -0.165000
     17 F15        -4.4820    2.5850    1.2790 f         1 STF     -0.165000
     18 F14        -4.5800    0.5530    2.0760 f         1 STF     -0.165000
     19 H7          1.3960   -0.9160    0.5740 h1        1 STF      0.165000
     20 H19         3.5600   -4.5980   -3.1340 hs        1 STF      0.048000
     21 H6          1.6950    1.0260   -0.9010 hc        1 STF      0.119500
     22 H5          0.8530    0.0360   -1.8360 hc        1 STF      0.119500
     23 H4         -1.3660   -0.8540   -1.0050 ha        1 STF      0.151000
     24 H3         -3.3750   -0.2360    0.0970 ha        1 STF      0.154000
     25 H2         -1.3540    2.7070    2.1140 ha        1 STF      0.154000
     26 H1          0.6490    2.0860    1.0120 ha        1 STF      0.147000
@<TRIPOS>BOND
     1    1    2 1   
     2    1    5 1   
     3    1    8 1   
     4    1   19 1   
     5    2    3 1   
     6    3    4 1   
     7    3    7 1   
     8    5    6 1   
     9    7   20 1   
    10    8    9 1   
    11    8   21 1   
    12    8   22 1   
    13    9   10 1   
    14    9   14 1   
    15   10   23 1   
    16   11   12 1   
    17   11   24 1   
    18   12   15 1   
    19   13   14 1   
    20   13   25 1   
    21   14   26 1   
    22   15   16 1   
    23   15   17 1   
    24   15   18 1   
@<TRIPOS>SUBSTRUCTURE
     1 STF         1 TEMP              0 ****  ****    0 ROOT
