@<TRIPOS>MOLECULE
STF
   26    27     1     0     0
SMALL
bcc


@<TRIPOS>ATOM
      1 C8         -1.8660    0.8830   -0.2280 c3        1 STF     -0.125600
      2 S12        -2.3830   -0.8230   -0.3890 ss        1 STF     -0.186300
      3 C11        -4.0660   -0.3870   -0.2700 c2        1 STF      0.475100
      4 N10        -4.3450    0.8840   -0.1150 ne        1 STF     -0.654100
      5 C9         -3.1700    1.6960   -0.0700 c         1 STF      0.687500
      6 O17        -3.1750    2.9180    0.0710 o         1 STF     -0.482100
      7 S18        -5.1590   -1.6480   -0.3680 sh        1 STF     -0.130000
      8 C7         -0.9360    1.1230    0.9410 c3        1 STF     -0.025100
      9 C1          0.4690    0.7370    0.6320 ca        1 STF     -0.062300
     10 C6          1.2260    1.5050   -0.2620 ca        1 STF     -0.127500
     11 C5          2.5470    1.1630   -0.5400 ca        1 STF     -0.078500
     12 C4          3.1170    0.0480    0.0800 ca        1 STF     -0.166300
     13 C3          2.3720   -0.7230    0.9740 ca        1 STF     -0.078500
     14 C2          1.0500   -0.3760    1.2490 ca        1 STF     -0.127500
     15 C13         4.5670   -0.3180   -0.2090 c3        1 STF      0.687200
     16 F16         5.0030    0.0220   -1.4670 f         1 STF     -0.236300
     17 F15         4.8500   -1.6590   -0.1060 f         1 STF     -0.236300
     18 F14         5.4760    0.2800    0.6320 f         1 STF     -0.236300
     19 H7         -1.3730    1.1950   -1.1850 h1        1 STF      0.122700
     20 H19        -6.3210   -1.0130   -0.2600 hs        1 STF      0.219800
     21 H6         -0.9670    2.2230    1.1920 hc        1 STF      0.080200
     22 H5         -1.3050    0.5640    1.8420 hc        1 STF      0.080200
     23 H4          0.7760    2.3870   -0.7440 ha        1 STF      0.146500
     24 H3          3.1420    1.7630   -1.2460 ha        1 STF      0.154000
     25 H2          2.8290   -1.6020    1.4560 ha        1 STF      0.154000
     26 H1          0.4640   -0.9850    1.9550 ha        1 STF      0.146500
@<TRIPOS>BOND
     1    1    2 1   
     2    1    5 1   
     3    1    8 1   
     4    1   19 1   
     5    2    3 1   
     6    3    4 2   
     7    3    7 1   
     8    4    5 1   
     9    5    6 2   
    10    7   20 1   
    11    8    9 1   
    12    8   21 1   
    13    8   22 1   
    14    9   10 ar  
    15    9   14 ar  
    16   10   11 ar  
    17   10   23 1   
    18   11   12 ar  
    19   11   24 1   
    20   12   13 ar  
    21   12   15 1   
    22   13   14 ar  
    23   13   25 1   
    24   14   26 1   
    25   15   16 1   
    26   15   17 1   
    27   15   18 1   
@<TRIPOS>SUBSTRUCTURE
     1 STF         1 TEMP              0 ****  ****    0 ROOT
