@<TRIPOS>MOLECULE
STF
   26    27     1     0     0
SMALL
bcc


@<TRIPOS>ATOM
      1 C8          0.1170    0.0700    0.0740 c3        1 STF     -0.112600
      2 S12         1.8670   -0.2340    0.2660 ss        1 STF     -0.260300
      3 C11         1.7280   -0.3520    2.0090 c2        1 STF      0.476100
      4 N10         0.5340   -0.1890    2.5140 ne        1 STF     -0.611100
      5 C9         -0.4550    0.0620    1.5110 c         1 STF      0.684500
      6 O17        -1.6470    0.2480    1.7450 o         1 STF     -0.476100
      7 S18         3.0980   -0.6660    2.9380 sh        1 STF     -0.091000
      8 C7         -0.2010    1.3730   -0.6240 c3        1 STF     -0.026100
      9 C1         -0.0670    1.2690   -2.1040 ca        1 STF     -0.061300
     10 C6         -0.9900    0.5150   -2.8400 ca        1 STF     -0.128000
     11 C5         -0.8830    0.4290   -4.2260 ca        1 STF     -0.078500
     12 C4          0.1520    1.1010   -4.8820 ca        1 STF     -0.166300
     13 C3          1.0750    1.8570   -4.1580 ca        1 STF     -0.078500
     14 C2          0.9650    1.9400   -2.7710 ca        1 STF     -0.128000
     15 C13         0.2620    1.0230   -6.3990 c3        1 STF      0.687200
     16 F16        -0.2110   -0.1450   -6.9470 f         1 STF     -0.235967
     17 F15         1.5430    1.1270   -6.8850 f         1 STF     -0.235967
     18 F14        -0.4290    2.0070   -7.0650 f         1 STF     -0.235967
     19 H7         -0.3350   -0.7900   -0.4860 h1        1 STF      0.122700
     20 H19         3.9770   -0.7330    1.9440 hs        1 STF      0.191800
     21 H6         -1.2640    1.6550   -0.3720 hc        1 STF      0.080200
     22 H5          0.4630    2.1880   -0.2300 hc        1 STF      0.080200
     23 H4         -1.8090   -0.0070   -2.3220 ha        1 STF      0.146000
     24 H3         -1.6060   -0.1660   -4.8060 ha        1 STF      0.154500
     25 H2          1.8900    2.3810   -4.6840 ha        1 STF      0.154500
     26 H1          1.6930    2.5370   -2.2020 ha        1 STF      0.146000
@<TRIPOS>BOND
     1    1    2 1   
     2    1    5 1   
     3    1    8 1   
     4    1   19 1   
     5    2    3 1   
     6    3    4 2   
     7    3    7 1   
     8    4    5 1   
     9    5    6 2   
    10    7   20 1   
    11    8    9 1   
    12    8   21 1   
    13    8   22 1   
    14    9   10 ar  
    15    9   14 ar  
    16   10   11 ar  
    17   10   23 1   
    18   11   12 ar  
    19   11   24 1   
    20   12   13 ar  
    21   12   15 1   
    22   13   14 ar  
    23   13   25 1   
    24   14   26 1   
    25   15   16 1   
    26   15   17 1   
    27   15   18 1   
@<TRIPOS>SUBSTRUCTURE
     1 STF         1 TEMP              0 ****  ****    0 ROOT
