@<TRIPOS>MOLECULE
STH
   22    23     1     0     0
SMALL
bcc


@<TRIPOS>ATOM
      1 C8         -0.0580    0.4250   -0.1870 c3        1 STH      0.349500
      2 O8         -0.3410    1.7340   -0.5750 oh        1 STH     -0.531800
      3 C1          1.4170    0.2630   -0.0610 ca        1 STH     -0.127300
      4 C2          2.1070    0.6910    1.0840 ca        1 STH      0.042100
      5 C3          3.4980    0.5780    1.1920 ca        1 STH     -0.119000
      6 C4          4.2080    0.0240    0.1280 ca        1 STH     -0.085000
      7 C5          3.5380   -0.4240   -1.0110 ca        1 STH     -0.106000
      8 C6          2.1500   -0.3060   -1.1080 ca        1 STH     -0.072000
      9 C7          0.2840    0.7380    2.6170 c3        1 STH      0.413400
     10 O2          1.4590    1.3440    2.1410 os        1 STH     -0.275900
     11 N7          0.6780   -0.3510    3.6150 n4        1 STH     -0.886600
     12 S7         -0.8310    0.0050    1.4330 ss        1 STH     -0.356200
     13 H8         -0.5230   -0.3410   -0.8680 h2        1 STH      0.107700
     14 HO8        -1.2560    1.7660   -0.8960 ho        1 STH      0.440000
     15 H3          4.0170    0.9570    2.0860 ha        1 STH      0.163000
     16 H4          5.3070   -0.0550    0.1890 ha        1 STH      0.167000
     17 H5          4.1070   -0.8630   -1.8470 ha        1 STH      0.167000
     18 H6          1.6300   -0.6450   -2.0190 ha        1 STH      0.161000
     19 H7         -0.2360    1.5590    3.2030 hx        1 STH      0.167700
     20 HN71        1.5550   -0.0940    4.0810 hn        1 STH      0.460467
     21 HN72        0.8030   -1.2430    3.1230 hn        1 STH      0.460467
     22 H73        -0.0590   -0.4610    4.3160 hn        1 STH      0.460467
@<TRIPOS>BOND
     1    1    2 1   
     2    1    3 1   
     3    1   12 1   
     4    1   13 1   
     5    2   14 1   
     6    3    4 ar  
     7    3    8 ar  
     8    4    5 ar  
     9    4   10 1   
    10    5    6 ar  
    11    5   15 1   
    12    6    7 ar  
    13    6   16 1   
    14    7    8 ar  
    15    7   17 1   
    16    8   18 1   
    17    9   10 1   
    18    9   11 1   
    19    9   12 1   
    20    9   19 1   
    21   11   20 1   
    22   11   21 1   
    23   11   22 1   
@<TRIPOS>SUBSTRUCTURE
     1 STH         1 TEMP              0 ****  ****    0 ROOT
