@<TRIPOS>MOLECULE
STH
   22    23     1     0     0
SMALL
bcc


@<TRIPOS>ATOM
      1 C8         -0.0800    0.4080   -0.1580 c3        1 STH      0.349500
      2 O8         -0.3360    1.7010   -0.6120 oh        1 STH     -0.531800
      3 C1          1.3930    0.2100   -0.0580 ca        1 STH     -0.127300
      4 C2          2.1220    0.6810    1.0450 ca        1 STH      0.042100
      5 C3          3.5120    0.5350    1.1280 ca        1 STH     -0.119000
      6 C4          4.1800   -0.0990    0.0800 ca        1 STH     -0.085000
      7 C5          3.4690   -0.5890   -1.0160 ca        1 STH     -0.106000
      8 C6          2.0840   -0.4360   -1.0870 ca        1 STH     -0.072000
      9 C7          0.3400    0.8660    2.6160 c3        1 STH      0.413400
     10 O2          1.5190    1.4100    2.0790 os        1 STH     -0.275900
     11 N7          0.7280   -0.1760    3.6640 n4        1 STH     -0.886600
     12 S7         -0.8250    0.1010    1.5000 ss        1 STH     -0.356200
     13 H8         -0.5830   -0.3800   -0.7830 h2        1 STH      0.107700
     14 HO8        -1.2580    1.7410   -0.9130 ho        1 STH      0.440000
     15 H3          4.0630    0.9470    1.9860 ha        1 STH      0.163000
     16 H4          5.2770   -0.2050    0.1200 ha        1 STH      0.167000
     17 H5          4.0050   -1.0910   -1.8390 ha        1 STH      0.167000
     18 H6          1.5320   -0.8110   -1.9650 ha        1 STH      0.161000
     19 H7         -0.1430    1.7330    3.1660 hx        1 STH      0.167700
     20 HN71        0.0070   -0.2230    4.3880 hn        1 STH      0.460467
     21 HN72        1.6250    0.0790    4.0920 hn        1 STH      0.460467
     22 H73         0.8130   -1.0980    3.2200 hn        1 STH      0.460467
@<TRIPOS>BOND
     1    1    2 1   
     2    1    3 1   
     3    1   12 1   
     4    1   13 1   
     5    2   14 1   
     6    3    4 ar  
     7    3    8 ar  
     8    4    5 ar  
     9    4   10 1   
    10    5    6 ar  
    11    5   15 1   
    12    6    7 ar  
    13    6   16 1   
    14    7    8 ar  
    15    7   17 1   
    16    8   18 1   
    17    9   10 1   
    18    9   11 1   
    19    9   12 1   
    20    9   19 1   
    21   11   20 1   
    22   11   21 1   
    23   11   22 1   
@<TRIPOS>SUBSTRUCTURE
     1 STH         1 TEMP              0 ****  ****    0 ROOT
