@<TRIPOS>MOLECULE
STH
   22    23     1     0     0
SMALL
bcc


@<TRIPOS>ATOM
      1 C8         -0.0800    0.4640   -0.1470 c3        1 STH      0.349500
      2 O8         -0.3420    1.7800   -0.5260 oh        1 STH     -0.531800
      3 C1          1.3930    0.2670   -0.0580 ca        1 STH     -0.127300
      4 C2          2.1210    0.6760    1.0700 ca        1 STH      0.042100
      5 C3          3.5110    0.5310    1.1440 ca        1 STH     -0.119000
      6 C4          4.1810   -0.0400    0.0620 ca        1 STH     -0.085000
      7 C5          3.4720   -0.4690   -1.0600 ca        1 STH     -0.106000
      8 C6          2.0860   -0.3180   -1.1230 ca        1 STH     -0.072000
      9 C7          0.3380    0.7650    2.6480 c3        1 STH      0.413400
     10 O2          1.5150    1.3430    2.1440 os        1 STH     -0.275900
     11 N7          0.7310   -0.3340    3.6350 nz        1 STH     -0.886600
     12 S7         -0.8240    0.0610    1.4910 ss        1 STH     -0.356200
     13 H8         -0.5810   -0.2890   -0.8160 h2        1 STH      0.107700
     14 HO8        -1.2630    1.8340   -0.8250 ho        1 STH      0.440000
     15 H3          4.0610    0.8950    2.0250 ha        1 STH      0.163000
     16 H4          5.2790   -0.1440    0.0960 ha        1 STH      0.167000
     17 H5          4.0100   -0.9210   -1.9110 ha        1 STH      0.167000
     18 H6          1.5360   -0.6430   -2.0210 ha        1 STH      0.161000
     19 H7         -0.1480    1.5970    3.2470 hx        1 STH      0.167700
     20 HN71        0.0080   -0.4270    4.3530 hn        1 STH      0.460467
     21 HN72        0.8220   -1.2280    3.1390 hn        1 STH      0.460467
     22 H73         1.6240   -0.0990    4.0800 hn        1 STH      0.460467
@<TRIPOS>BOND
     1    1    2 1   
     2    1    3 1   
     3    1   12 1   
     4    1   13 1   
     5    2   14 1   
     6    3    4 ar  
     7    3    8 ar  
     8    4    5 ar  
     9    4   10 1   
    10    5    6 ar  
    11    5   15 1   
    12    6    7 ar  
    13    6   16 1   
    14    7    8 ar  
    15    7   17 1   
    16    8   18 1   
    17    9   10 1   
    18    9   11 1   
    19    9   12 1   
    20    9   19 1   
    21   11   20 1   
    22   11   21 1   
    23   11   22 1   
@<TRIPOS>SUBSTRUCTURE
     1 STH         1 TEMP              0 ****  ****    0 ROOT
