@<TRIPOS>MOLECULE
STH
   21    22     1     0     0
SMALL
bcc


@<TRIPOS>ATOM
      1 C8          0.3630   -1.5260   -0.2880 c3        1 STH      0.294500
      2 O8          0.4320   -2.3470    0.8630 oh        1 STH     -0.578800
      3 C1         -0.7770   -0.5820   -0.1040 ca        1 STH     -0.155300
      4 C2         -0.6270    0.7890    0.1560 ca        1 STH      0.154100
      5 C3         -1.7580    1.6250    0.2750 ca        1 STH     -0.156000
      6 C4         -3.0290    1.0820    0.1490 ca        1 STH     -0.089000
      7 C5         -3.1910   -0.2860   -0.0870 ca        1 STH     -0.163000
      8 C6         -2.0750   -1.1050   -0.2090 ca        1 STH     -0.068000
      9 C7          1.7460    0.6570    0.5610 c3        1 STH      0.476400
     10 O2          0.5730    1.4570    0.2710 os        1 STH     -0.372900
     11 N7          2.8920    1.5090    0.5430 n3        1 STH     -0.883800
     12 S7          1.9210   -0.6970   -0.6380 ss        1 STH     -0.368200
     13 H8          0.1970   -2.1640   -1.2020 h2        1 STH      0.079700
     14 HO8         1.2080   -2.9150    0.7570 ho        1 STH      0.417000
     15 H3         -1.6100    2.6970    0.4640 ha        1 STH      0.151000
     16 H4         -3.9120    1.7320    0.2420 ha        1 STH      0.137000
     17 H5         -4.2000   -0.7140   -0.1740 ha        1 STH      0.138000
     18 H6         -2.1970   -2.1850   -0.3870 ha        1 STH      0.140000
     19 H7          1.6080    0.1990    1.5810 h3        1 STH      0.095700
     20 HN71        3.0490    1.9000   -0.3660 hn        1 STH      0.376300
     21 HN72        2.8020    2.2460    1.2170 hn        1 STH      0.376300
@<TRIPOS>BOND
     1    1    2 1   
     2    1    3 1   
     3    1   12 1   
     4    1   13 1   
     5    2   14 1   
     6    3    4 ar  
     7    3    8 ar  
     8    4    5 ar  
     9    4   10 1   
    10    5    6 ar  
    11    5   15 1   
    12    6    7 ar  
    13    6   16 1   
    14    7    8 ar  
    15    7   17 1   
    16    8   18 1   
    17    9   10 1   
    18    9   11 1   
    19    9   12 1   
    20    9   19 1   
    21   11   20 1   
    22   11   21 1   
@<TRIPOS>SUBSTRUCTURE
     1 STH         1 TEMP              0 ****  ****    0 ROOT
