@<TRIPOS>MOLECULE
STI
   68    72     1     0     0
SMALL
bcc


@<TRIPOS>ATOM
      1 C1         -0.1570   -0.3810   -0.9110 ca        1 STI     -0.254300
      2 C6          1.2140   -0.3610   -0.6500 ca        1 STI     -0.051000
      3 C5          1.6480   -0.2580    0.6790 cp        1 STI     -0.274800
      4 C4          0.6690   -0.1950    1.6970 ca        1 STI      0.416200
      5 N3         -0.6530   -0.2150    1.4570 nb        1 STI     -0.667000
      6 C2         -1.0510   -0.3040    0.1720 ca        1 STI      0.405200
      7 C7          3.0760   -0.2160    1.0300 cp        1 STI      0.536800
      8 C12         3.4990    0.6090    2.0970 ca        1 STI     -0.408600
      9 C11         4.8740    0.6150    2.3860 ca        1 STI      0.461200
     10 N10         5.7790   -0.1130    1.7170 nb        1 STI     -0.729000
     11 C9          5.2820   -0.9040    0.6860 ca        1 STI      0.870900
     12 N8          3.9450   -0.9630    0.3100 nb        1 STI     -0.749000
     13 N13         6.1550   -1.7730   -0.0040 nu        1 STI     -0.704300
     14 C14         7.5520   -1.5350   -0.0550 ca        1 STI      0.149600
     15 C19         8.1960   -1.3280   -1.3020 ca        1 STI     -0.135300
     16 C18         9.5830   -1.1830   -1.3220 ca        1 STI     -0.094000
     17 C17        10.3480   -1.2250   -0.1630 ca        1 STI     -0.159000
     18 C16         9.7210   -1.4270    1.0820 ca        1 STI      0.076600
     19 C15         8.3160   -1.5920    1.1210 ca        1 STI     -0.158000
     20 N21        10.4210   -1.4900    2.2980 ns        1 STI     -0.468100
     21 C22        11.7830   -1.3070    2.5030 c         1 STI      0.681700
     22 C23        12.2450   -1.4190    3.9190 ca        1 STI     -0.148600
     23 C25        13.1880   -0.4940    4.3810 ca        1 STI     -0.094500
     24 C26        13.6590   -0.5740    5.6900 ca        1 STI     -0.126500
     25 C27        13.1970   -1.5800    6.5450 ca        1 STI     -0.062300
     26 C28        12.2610   -2.5090    6.0750 ca        1 STI     -0.126500
     27 C29        11.7860   -2.4310    4.7670 ca        1 STI     -0.094500
     28 C46        13.7380   -1.7130    7.9390 c3        1 STI      0.209100
     29 N48        13.7560   -0.4630    8.6890 n3        1 STI     -0.729600
     30 C53        14.5360   -0.5840    9.9150 c3        1 STI      0.166300
     31 C52        14.5470    0.7140   10.7450 c3        1 STI      0.168300
     32 N51        13.2130    1.2420   10.9920 n3        1 STI     -0.733600
     33 C54        13.2380    2.4710   11.7510 c3        1 STI      0.157100
     34 C50        12.4330    1.3590    9.7680 c3        1 STI      0.168300
     35 C49        12.4210    0.0610    8.9400 c3        1 STI      0.166300
     36 O29        12.5830   -1.0510    1.5840 o         1 STI     -0.584100
     37 C20         7.4310   -1.2720   -2.5690 c3        1 STI     -0.053800
     38 H11        -0.5340   -0.4580   -1.9390 ha        1 STI      0.147000
     39 H61         1.9410   -0.4260   -1.4740 ha        1 STI      0.155000
     40 H41         0.9630   -0.1330    2.7610 h4        1 STI      0.027100
     41 H21        -2.1440   -0.3160    0.0080 h4        1 STI      0.025100
     42 H121        2.7930    1.2250    2.6620 ha        1 STI      0.158000
     43 H111        5.2820    1.2440    3.2000 h4        1 STI      0.028100
     44 H131        5.7770   -2.1450   -0.8550 hn        1 STI      0.438800
     45 H181       10.0920   -1.0250   -2.2870 ha        1 STI      0.136000
     46 H171       11.4410   -1.0970   -0.2340 ha        1 STI      0.176000
     47 H151        7.8110   -1.7630    2.0860 ha        1 STI      0.150000
     48 H211        9.8590   -1.6300    3.1100 hn        1 STI      0.321500
     49 H251       13.5630    0.2850    3.6980 ha        1 STI      0.146000
     50 H261       14.3990    0.1570    6.0530 ha        1 STI      0.146000
     51 H281       11.8990   -3.3090    6.7380 ha        1 STI      0.146000
     52 H291       11.0660   -3.1820    4.4090 ha        1 STI      0.146000
     53 H461       13.1540   -2.5140    8.4860 h1        1 STI      0.043700
     54 H462       14.8050   -2.0740    7.8540 h1        1 STI      0.043700
     55 H531       15.5990   -0.8150    9.6260 h1        1 STI      0.039200
     56 H532       14.1610   -1.4270   10.5660 h1        1 STI      0.039200
     57 H521       15.0130    0.4780   11.7420 h1        1 STI      0.037700
     58 H522       15.2060    1.4690   10.2250 h1        1 STI      0.037700
     59 H541       12.1830    2.7750   11.9790 h1        1 STI      0.032700
     60 H542       13.7780    2.2880   12.7160 h1        1 STI      0.032700
     61 H543       13.7460    3.3190   11.2130 h1        1 STI      0.032700
     62 H501       12.8040    2.2020    9.1150 h1        1 STI      0.037700
     63 H502       11.3700    1.5910   10.0600 h1        1 STI      0.037700
     64 H491       11.7680   -0.6960    9.4650 h1        1 STI      0.039200
     65 H492       11.9530    0.2890    7.9410 h1        1 STI      0.039200
     66 H201        6.9700   -2.2660   -2.7970 hc        1 STI      0.044367
     67 H202        6.6160   -0.5080   -2.5110 hc        1 STI      0.044367
     68 H203        8.0970   -0.9990   -3.4260 hc        1 STI      0.044367
@<TRIPOS>BOND
     1    1    2 ar  
     2    1    6 ar  
     3    1   38 1   
     4    2    3 ar  
     5    2   39 1   
     6    3    4 ar  
     7    3    7 1   
     8    4    5 ar  
     9    4   40 1   
    10    5    6 ar  
    11    6   41 1   
    12    7    8 ar  
    13    7   12 ar  
    14    8    9 ar  
    15    8   42 1   
    16    9   10 ar  
    17    9   43 1   
    18   10   11 ar  
    19   11   12 ar  
    20   11   13 1   
    21   13   14 1   
    22   13   44 1   
    23   14   15 ar  
    24   14   19 ar  
    25   15   16 ar  
    26   15   37 1   
    27   16   17 ar  
    28   16   45 1   
    29   17   18 ar  
    30   17   46 1   
    31   18   19 ar  
    32   18   20 1   
    33   19   47 1   
    34   20   21 1   
    35   20   48 1   
    36   21   22 1   
    37   21   36 2   
    38   22   23 ar  
    39   22   27 ar  
    40   23   24 ar  
    41   23   49 1   
    42   24   25 ar  
    43   24   50 1   
    44   25   26 ar  
    45   25   28 1   
    46   26   27 ar  
    47   26   51 1   
    48   27   52 1   
    49   28   29 1   
    50   28   53 1   
    51   28   54 1   
    52   29   30 1   
    53   29   35 1   
    54   30   31 1   
    55   30   55 1   
    56   30   56 1   
    57   31   32 1   
    58   31   57 1   
    59   31   58 1   
    60   32   33 1   
    61   32   34 1   
    62   33   59 1   
    63   33   60 1   
    64   33   61 1   
    65   34   35 1   
    66   34   62 1   
    67   34   63 1   
    68   35   64 1   
    69   35   65 1   
    70   37   66 1   
    71   37   67 1   
    72   37   68 1   
@<TRIPOS>SUBSTRUCTURE
     1 STI         1 TEMP              0 ****  ****    0 ROOT
