@<TRIPOS>MOLECULE
STI
   68    72     1     0     0
SMALL
bcc


@<TRIPOS>ATOM
      1 C1          2.0300   -0.1920    9.5900 ca        1 STI     -0.254300
      2 C6          1.4150   -0.0090    8.3510 ca        1 STI     -0.051000
      3 C5          2.1770   -0.1740    7.1860 cp        1 STI     -0.274800
      4 C4          3.5370   -0.5350    7.3250 ca        1 STI      0.416200
      5 N3          4.1390   -0.7150    8.5140 nb        1 STI     -0.667000
      6 C2          3.3910   -0.5420    9.6220 ca        1 STI      0.405200
      7 C7          1.6010    0.0180    5.8460 cp        1 STI      0.536800
      8 C12         2.3930    0.6040    4.8330 ca        1 STI     -0.408600
      9 C11         1.7930    0.7680    3.5740 ca        1 STI      0.461200
     10 N10         0.5360    0.3950    3.2950 nb        1 STI     -0.729000
     11 C9         -0.1750   -0.1810    4.3410 ca        1 STI      0.870900
     12 N8          0.3220   -0.3660    5.6260 nb        1 STI     -0.749000
     13 N13        -1.4720   -0.6870    4.1040 nh        1 STI     -0.704300
     14 C14        -2.2680   -0.2130    3.0310 ca        1 STI      0.149600
     15 C19        -3.5170    0.4070    3.2900 ca        1 STI     -0.135300
     16 C18        -4.3140    0.7830    2.2090 ca        1 STI     -0.094000
     17 C17        -3.9190    0.5790    0.8930 ca        1 STI     -0.159000
     18 C16        -2.6800   -0.0340    0.6210 ca        1 STI      0.076600
     19 C15        -1.8640   -0.4370    1.7060 ca        1 STI     -0.158000
     20 N21        -2.2100   -0.2840   -0.6780 n         1 STI     -0.468100
     21 C22        -2.8140    0.0650   -1.8800 c         1 STI      0.681700
     22 C23        -2.0680   -0.3230   -3.1150 ca        1 STI     -0.148600
     23 C25        -2.0100    0.5980   -4.1670 ca        1 STI     -0.094500
     24 C26        -1.3400    0.2710   -5.3440 ca        1 STI     -0.126500
     25 C27        -0.7280   -0.9800   -5.4810 ca        1 STI     -0.062300
     26 C28        -0.7990   -1.9020   -4.4310 ca        1 STI     -0.126500
     27 C29        -1.4670   -1.5770   -3.2520 ca        1 STI     -0.094500
     28 C46        -0.0520   -1.3690   -6.7640 c3        1 STI      0.209100
     29 N48         0.8690   -0.3630   -7.2770 n3        1 STI     -0.729600
     30 C53         1.2800   -0.6580   -8.6440 c3        1 STI      0.166300
     31 C52         2.2800    0.3720   -9.2010 c3        1 STI      0.168300
     32 N51         3.4170    0.5950   -8.3210 n3        1 STI     -0.733600
     33 C54         4.3360    1.5810   -8.8440 c3        1 STI      0.157100
     34 C50         3.0060    0.8870   -6.9550 c3        1 STI      0.168300
     35 C49         2.0080   -0.1450   -6.3970 c3        1 STI      0.166300
     36 O29        -3.8980    0.6720   -1.9480 o         1 STI     -0.584100
     37 C20        -3.9890    0.6530    4.6730 c3        1 STI     -0.053800
     38 H11         1.4650   -0.0690   10.5230 ha        1 STI      0.147000
     39 H61         0.3490    0.2600    8.2900 ha        1 STI      0.155000
     40 H41         4.1730   -0.6950    6.4350 h4        1 STI      0.027100
     41 H21         3.9160   -0.6960   10.5820 h4        1 STI      0.025100
     42 H121        3.4210    0.9300    5.0230 ha        1 STI      0.158000
     43 H111        2.3460    1.2300    2.7340 h4        1 STI      0.028100
     44 H131       -1.9920   -0.8900    4.9360 hn        1 STI      0.438800
     45 H181       -5.2870    1.2640    2.4010 ha        1 STI      0.136000
     46 H171       -4.5830    0.9020    0.0740 ha        1 STI      0.176000
     47 H151       -0.8970   -0.9280    1.5110 ha        1 STI      0.150000
     48 H211       -1.3130   -0.7160   -0.7340 hn        1 STI      0.321500
     49 H251       -2.5080    1.5750   -4.0600 ha        1 STI      0.146000
     50 H261       -1.2910    0.9980   -6.1690 ha        1 STI      0.146000
     51 H281       -0.3300   -2.8920   -4.5340 ha        1 STI      0.146000
     52 H291       -1.5300   -2.3220   -2.4440 ha        1 STI      0.146000
     53 H461       -0.8600   -1.5170   -7.5410 h1        1 STI      0.043700
     54 H462        0.4630   -2.3670   -6.6220 h1        1 STI      0.043700
     55 H531        0.3620   -0.6320   -9.2950 h1        1 STI      0.039200
     56 H532        1.7370   -1.6880   -8.7280 h1        1 STI      0.039200
     57 H521        1.7260    1.3320   -9.4190 h1        1 STI      0.037700
     58 H522        2.6750   -0.0270  -10.1770 h1        1 STI      0.037700
     59 H541        5.2260    1.6410   -8.1640 h1        1 STI      0.032700
     60 H542        4.6780    1.2520   -9.8600 h1        1 STI      0.032700
     61 H543        3.8850    2.6080   -8.9340 h1        1 STI      0.032700
     62 H501        3.9260    0.8600   -6.3070 h1        1 STI      0.037700
     63 H502        2.5510    1.9170   -6.8670 h1        1 STI      0.037700
     64 H491        1.6120    0.2470   -5.4190 h1        1 STI      0.039200
     65 H492        2.5630   -1.1060   -6.1880 h1        1 STI      0.039200
     66 H201       -4.1850   -0.3140    5.2020 hc        1 STI      0.044367
     67 H202       -3.2290    1.2290    5.2580 hc        1 STI      0.044367
     68 H203       -4.9400    1.2410    4.6720 hc        1 STI      0.044367
@<TRIPOS>BOND
     1    1    2 ar  
     2    1    6 ar  
     3    1   38 1   
     4    2    3 ar  
     5    2   39 1   
     6    3    4 ar  
     7    3    7 1   
     8    4    5 ar  
     9    4   40 1   
    10    5    6 ar  
    11    6   41 1   
    12    7    8 ar  
    13    7   12 ar  
    14    8    9 ar  
    15    8   42 1   
    16    9   10 ar  
    17    9   43 1   
    18   10   11 ar  
    19   11   12 ar  
    20   11   13 1   
    21   13   14 1   
    22   13   44 1   
    23   14   15 ar  
    24   14   19 ar  
    25   15   16 ar  
    26   15   37 1   
    27   16   17 ar  
    28   16   45 1   
    29   17   18 ar  
    30   17   46 1   
    31   18   19 ar  
    32   18   20 1   
    33   19   47 1   
    34   20   21 1   
    35   20   48 1   
    36   21   22 1   
    37   21   36 2   
    38   22   23 ar  
    39   22   27 ar  
    40   23   24 ar  
    41   23   49 1   
    42   24   25 ar  
    43   24   50 1   
    44   25   26 ar  
    45   25   28 1   
    46   26   27 ar  
    47   26   51 1   
    48   27   52 1   
    49   28   29 1   
    50   28   53 1   
    51   28   54 1   
    52   29   30 1   
    53   29   35 1   
    54   30   31 1   
    55   30   55 1   
    56   30   56 1   
    57   31   32 1   
    58   31   57 1   
    59   31   58 1   
    60   32   33 1   
    61   32   34 1   
    62   33   59 1   
    63   33   60 1   
    64   33   61 1   
    65   34   35 1   
    66   34   62 1   
    67   34   63 1   
    68   35   64 1   
    69   35   65 1   
    70   37   66 1   
    71   37   67 1   
    72   37   68 1   
@<TRIPOS>SUBSTRUCTURE
     1 STI         1 TEMP              0 ****  ****    0 ROOT
