@<TRIPOS>MOLECULE
STI
   70    74     1     0     0
SMALL
bcc


@<TRIPOS>ATOM
      1 C1          2.0480    2.1500   -1.6790 ca        1 STI     -0.245300
      2 C6          2.8970    1.2300   -1.0690 ca        1 STI     -0.037000
      3 C5          2.4940    0.6240    0.1340 cp        1 STI     -0.342800
      4 C4          1.2240    0.9700    0.6600 ca        1 STI      0.447200
      5 N3          0.4000    1.8540    0.0770 nb        1 STI     -0.641000
      6 C2          0.8080    2.4340   -1.0690 ca        1 STI      0.456200
      7 C7          3.3320   -0.3420    0.8390 cp        1 STI      0.574800
      8 C12         3.2830   -0.4280    2.2580 ca        1 STI     -0.301600
      9 C11         4.0890   -1.3840    2.8960 ca        1 STI      0.465200
     10 N10         4.9060   -2.2200    2.2170 nb        1 STI     -0.690000
     11 C9          4.8800   -2.0580    0.8570 ca        1 STI      0.703900
     12 N8          4.1550   -1.1640    0.1230 nb        1 STI     -0.686000
     13 N13         5.7490   -2.9990    0.0660 n4        1 STI     -0.614100
     14 C14         7.1600   -2.6010    0.0970 ca        1 STI     -0.034400
     15 C19         7.7380   -1.9580   -1.0210 ca        1 STI      0.026700
     16 C18         9.0970   -1.6150   -0.9530 ca        1 STI     -0.099000
     17 C17         9.8650   -1.8880    0.1700 ca        1 STI     -0.054000
     18 C16         9.2740   -2.5290    1.2780 ca        1 STI     -0.030400
     19 C15         7.9150   -2.8800    1.2510 ca        1 STI     -0.046000
     20 N21        10.0790   -2.8190    2.4620 n4        1 STI     -0.564200
     21 C22         9.7480   -1.9210    3.6830 c         1 STI      0.595700
     22 C23        10.8810   -1.5880    4.5260 ca        1 STI     -0.238600
     23 C25        10.7590   -0.4310    5.3220 ca        1 STI     -0.061000
     24 C26        11.7940   -0.0550    6.1710 ca        1 STI     -0.122000
     25 C27        12.9590   -0.8290    6.2570 ca        1 STI      0.032700
     26 C28        13.0690   -1.9930    5.4730 ca        1 STI     -0.122000
     27 C29        12.0470   -2.3720    4.6160 ca        1 STI     -0.061000
     28 C46        14.1200   -0.4370    7.1280 c3        1 STI      0.192100
     29 N48        13.7390    0.3220    8.3070 n3        1 STI     -0.744600
     30 C53        14.7790    1.2580    8.7220 c3        1 STI      0.165300
     31 C52        14.4160    2.0260   10.0080 c3        1 STI      0.169800
     32 N51        14.0020    1.1440   11.0870 n3        1 STI     -0.733600
     33 C54        13.7000    1.8540   12.3090 c3        1 STI      0.155100
     34 C50        12.9330    0.2490   10.6750 c3        1 STI      0.169800
     35 C49        13.2860   -0.5360    9.3960 c3        1 STI      0.165300
     36 O29         8.5730   -1.6040    3.7730 o         1 STI     -0.435100
     37 C20         6.9660   -1.6470   -2.2450 c3        1 STI     -0.113800
     38 H11         2.3310    2.6490   -2.6170 ha        1 STI      0.170000
     39 H61         3.8710    0.9930   -1.5220 ha        1 STI      0.142000
     40 H41         0.8390    0.5040    1.5870 h4        1 STI      0.033100
     41 H21         0.1020    3.1610   -1.5190 h4        1 STI      0.057100
     42 H121        2.6350    0.2450    2.8420 ha        1 STI      0.203000
     43 H111        4.0950   -1.5050    3.9990 h4        1 STI      0.075100
     44 H131        5.6510   -3.9430    0.4690 hn        1 STI      0.486300
     45 H181        9.5680   -1.1120   -1.8200 ha        1 STI      0.197000
     46 H171       10.9320   -1.5970    0.1750 ha        1 STI      0.181000
     47 H151        7.4400   -3.3450    2.1360 ha        1 STI      0.192000
     48 H211       11.0740   -2.6950    2.2310 hn        1 STI      0.466300
     49 H251        9.8390    0.1760    5.2700 ha        1 STI      0.144000
     50 H261       11.6900    0.8580    6.7860 ha        1 STI      0.184000
     51 H281       13.9760   -2.6170    5.5500 ha        1 STI      0.184000
     52 H291       12.1610   -3.3090    4.0510 ha        1 STI      0.144000
     53 H461       14.6980   -1.3740    7.3950 h1        1 STI      0.069200
     54 H462       14.8000    0.1980    6.4820 h1        1 STI      0.069200
     55 H531       14.9120    2.0130    7.8970 h1        1 STI      0.041700
     56 H532       15.7650    0.7330    8.8800 h1        1 STI      0.041700
     57 H521       13.6240    2.7920    9.7610 h1        1 STI      0.044950
     58 H522       15.3390    2.5770   10.3450 h1        1 STI      0.044950
     59 H541       13.4800    1.1060   13.1150 h1        1 STI      0.041700
     60 H542       14.6010    2.4530   12.6080 h1        1 STI      0.041700
     61 H543       12.8210    2.5500   12.2140 h1        1 STI      0.041700
     62 H501       12.7680   -0.4990   11.5000 h1        1 STI      0.044950
     63 H502       11.9620    0.8000   10.5060 h1        1 STI      0.044950
     64 H491       12.3580   -1.0680    9.0470 h1        1 STI      0.041700
     65 H492       14.0590   -1.3180    9.6560 h1        1 STI      0.041700
     66 H201        7.5900   -1.0770   -2.9820 hc        1 STI      0.092033
     67 H202        6.0680   -1.0180   -2.0090 hc        1 STI      0.092033
     68 H203        6.6300   -2.5880   -2.7540 hc        1 STI      0.092033
     69 H132        5.4160   -3.0150   -0.9140 hn        1 STI      0.486300
     70 H212        9.9280   -3.7970    2.7380 hn        1 STI      0.466300
@<TRIPOS>BOND
     1    1    2 ar  
     2    1    6 ar  
     3    1   38 1   
     4    2    3 ar  
     5    2   39 1   
     6    3    4 ar  
     7    3    7 1   
     8    4    5 ar  
     9    4   40 1   
    10    5    6 ar  
    11    6   41 1   
    12    7    8 ar  
    13    7   12 ar  
    14    8    9 ar  
    15    8   42 1   
    16    9   10 ar  
    17    9   43 1   
    18   10   11 ar  
    19   11   12 ar  
    20   11   13 1   
    21   13   14 1   
    22   13   44 1   
    23   13   69 1   
    24   14   15 ar  
    25   14   19 ar  
    26   15   16 ar  
    27   15   37 1   
    28   16   17 ar  
    29   16   45 1   
    30   17   18 ar  
    31   17   46 1   
    32   18   19 ar  
    33   18   20 1   
    34   19   47 1   
    35   20   21 1   
    36   20   48 1   
    37   20   70 1   
    38   21   22 1   
    39   21   36 2   
    40   22   23 ar  
    41   22   27 ar  
    42   23   24 ar  
    43   23   49 1   
    44   24   25 ar  
    45   24   50 1   
    46   25   26 ar  
    47   25   28 1   
    48   26   27 ar  
    49   26   51 1   
    50   27   52 1   
    51   28   29 1   
    52   28   53 1   
    53   28   54 1   
    54   29   30 1   
    55   29   35 1   
    56   30   31 1   
    57   30   55 1   
    58   30   56 1   
    59   31   32 1   
    60   31   57 1   
    61   31   58 1   
    62   32   33 1   
    63   32   34 1   
    64   33   59 1   
    65   33   60 1   
    66   33   61 1   
    67   34   35 1   
    68   34   62 1   
    69   34   63 1   
    70   35   64 1   
    71   35   65 1   
    72   37   66 1   
    73   37   67 1   
    74   37   68 1   
@<TRIPOS>SUBSTRUCTURE
     1 STI         1 TEMP              0 ****  ****    0 ROOT
