@<TRIPOS>MOLECULE
STI
   68    72     1     0     0
SMALL
bcc


@<TRIPOS>ATOM
      1 C1         -0.1540   -0.3780   -0.9050 ca        1 STI     -0.254300
      2 C6          1.2170   -0.3600   -0.6450 ca        1 STI     -0.051000
      3 C5          1.6520   -0.2570    0.6840 cp        1 STI     -0.274800
      4 C4          0.6730   -0.1920    1.7020 ca        1 STI      0.416200
      5 N3         -0.6490   -0.2100    1.4620 nb        1 STI     -0.667000
      6 C2         -1.0480   -0.2990    0.1770 ca        1 STI      0.405200
      7 C7          3.0800   -0.2170    1.0340 cp        1 STI      0.536800
      8 C12         3.5050    0.6080    2.1010 ca        1 STI     -0.408600
      9 C11         4.8800    0.6130    2.3890 ca        1 STI      0.461200
     10 N10         5.7830   -0.1180    1.7200 nb        1 STI     -0.729000
     11 C9          5.2850   -0.9080    0.6900 ca        1 STI      0.870900
     12 N8          3.9480   -0.9650    0.3140 nb        1 STI     -0.749000
     13 N13         6.1560   -1.7780   -0.0000 nh        1 STI     -0.704300
     14 C14         7.5530   -1.5400   -0.0530 ca        1 STI      0.149600
     15 C19         8.1950   -1.3350   -1.3020 ca        1 STI     -0.135300
     16 C18         9.5820   -1.1900   -1.3240 ca        1 STI     -0.094000
     17 C17        10.3490   -1.2300   -0.1660 ca        1 STI     -0.159000
     18 C16         9.7240   -1.4320    1.0800 ca        1 STI      0.076600
     19 C15         8.3190   -1.5960    1.1220 ca        1 STI     -0.158000
     20 N21        10.4270   -1.4940    2.2950 n         1 STI     -0.468100
     21 C22        11.7870   -1.2980    2.4970 c         1 STI      0.681700
     22 C23        12.2520   -1.4100    3.9130 ca        1 STI     -0.148600
     23 C25        13.1870   -0.4770    4.3770 ca        1 STI     -0.094500
     24 C26        13.6600   -0.5560    5.6840 ca        1 STI     -0.126500
     25 C27        13.2090   -1.5700    6.5370 ca        1 STI     -0.062300
     26 C28        12.2830   -2.5070    6.0650 ca        1 STI     -0.126500
     27 C29        11.8060   -2.4300    4.7580 ca        1 STI     -0.094500
     28 C46        13.7540   -1.7020    7.9300 c3        1 STI      0.209100
     29 N48        13.7580   -0.4550    8.6850 n3        1 STI     -0.729600
     30 C53        14.5400   -0.5710    9.9090 c3        1 STI      0.166300
     31 C52        14.5360    0.7230   10.7450 c3        1 STI      0.168300
     32 N51        13.1950    1.2320   10.9960 n3        1 STI     -0.733600
     33 C54        13.2050    2.4580   11.7610 c3        1 STI      0.157100
     34 C50        12.4130    1.3450    9.7730 c3        1 STI      0.168300
     35 C49        12.4160    0.0510    8.9390 c3        1 STI      0.166300
     36 O29        12.5830   -1.0320    1.5790 o         1 STI     -0.584100
     37 C20         7.4280   -1.2800   -2.5680 c3        1 STI     -0.053800
     38 H11        -0.5310   -0.4550   -1.9330 ha        1 STI      0.147000
     39 H61         1.9430   -0.4260   -1.4690 ha        1 STI      0.155000
     40 H41         0.9680   -0.1300    2.7660 h4        1 STI      0.027100
     41 H21        -2.1400   -0.3100    0.0140 h4        1 STI      0.025100
     42 H121        2.8000    1.2250    2.6660 ha        1 STI      0.158000
     43 H111        5.2890    1.2410    3.2030 h4        1 STI      0.028100
     44 H131        5.7770   -2.1510   -0.8500 hn        1 STI      0.438800
     45 H181       10.0890   -1.0320   -2.2900 ha        1 STI      0.136000
     46 H171       11.4410   -1.1020   -0.2390 ha        1 STI      0.176000
     47 H151        7.8160   -1.7670    2.0880 ha        1 STI      0.150000
     48 H211        9.8670   -1.6400    3.1060 hn        1 STI      0.321500
     49 H251       13.5520    0.3080    3.6950 ha        1 STI      0.146000
     50 H261       14.3930    0.1810    6.0490 ha        1 STI      0.146000
     51 H281       11.9300   -3.3140    6.7260 ha        1 STI      0.146000
     52 H291       11.0930   -3.1870    4.3990 ha        1 STI      0.146000
     53 H461       14.8260   -2.0490    7.8420 h1        1 STI      0.043700
     54 H462       13.1810   -2.5130    8.4740 h1        1 STI      0.043700
     55 H531       15.6070   -0.7870    9.6180 h1        1 STI      0.039200
     56 H532       14.1780   -1.4220   10.5570 h1        1 STI      0.039200
     57 H521       15.1840    1.4890   10.2270 h1        1 STI      0.037700
     58 H522       15.0060    0.4890   11.7410 h1        1 STI      0.037700
     59 H541       12.1470    2.7470   11.9920 h1        1 STI      0.032700
     60 H542       13.7490    2.2770   12.7250 h1        1 STI      0.032700
     61 H543       13.7010    3.3150   11.2260 h1        1 STI      0.032700
     62 H501       12.7730    2.1960    9.1240 h1        1 STI      0.037700
     63 H502       11.3480    1.5620   10.0670 h1        1 STI      0.037700
     64 H491       11.7740   -0.7170    9.4620 h1        1 STI      0.039200
     65 H492       11.9440    0.2780    7.9420 h1        1 STI      0.039200
     66 H201        8.0920   -1.0080   -3.4260 hc        1 STI      0.044367
     67 H202        6.6130   -0.5150   -2.5080 hc        1 STI      0.044367
     68 H203        6.9660   -2.2740   -2.7940 hc        1 STI      0.044367
@<TRIPOS>BOND
     1    1    2 ar  
     2    1    6 ar  
     3    1   38 1   
     4    2    3 ar  
     5    2   39 1   
     6    3    4 ar  
     7    3    7 1   
     8    4    5 ar  
     9    4   40 1   
    10    5    6 ar  
    11    6   41 1   
    12    7    8 ar  
    13    7   12 ar  
    14    8    9 ar  
    15    8   42 1   
    16    9   10 ar  
    17    9   43 1   
    18   10   11 ar  
    19   11   12 ar  
    20   11   13 1   
    21   13   14 1   
    22   13   44 1   
    23   14   15 ar  
    24   14   19 ar  
    25   15   16 ar  
    26   15   37 1   
    27   16   17 ar  
    28   16   45 1   
    29   17   18 ar  
    30   17   46 1   
    31   18   19 ar  
    32   18   20 1   
    33   19   47 1   
    34   20   21 1   
    35   20   48 1   
    36   21   22 1   
    37   21   36 2   
    38   22   23 ar  
    39   22   27 ar  
    40   23   24 ar  
    41   23   49 1   
    42   24   25 ar  
    43   24   50 1   
    44   25   26 ar  
    45   25   28 1   
    46   26   27 ar  
    47   26   51 1   
    48   27   52 1   
    49   28   29 1   
    50   28   53 1   
    51   28   54 1   
    52   29   30 1   
    53   29   35 1   
    54   30   31 1   
    55   30   55 1   
    56   30   56 1   
    57   31   32 1   
    58   31   57 1   
    59   31   58 1   
    60   32   33 1   
    61   32   34 1   
    62   33   59 1   
    63   33   60 1   
    64   33   61 1   
    65   34   35 1   
    66   34   62 1   
    67   34   63 1   
    68   35   64 1   
    69   35   65 1   
    70   37   66 1   
    71   37   67 1   
    72   37   68 1   
@<TRIPOS>SUBSTRUCTURE
     1 STI         1 TEMP              0 ****  ****    0 ROOT
