@<TRIPOS>MOLECULE
STJ
   41    43     1     0     0
SMALL
bcc


@<TRIPOS>ATOM
      1 F1          0.1360    0.3540   -1.2030 f         1 STJ     -0.212300
      2 C2          1.0300   -0.0260   -0.2580 c3        1 STJ      0.821700
      3 F3          0.3720   -0.2540    0.9070 f         1 STJ     -0.212300
      4 F4          1.6540   -1.1610   -0.6520 f         1 STJ     -0.212300
      5 O5          2.0630    0.9130   -0.0940 os        1 STJ     -0.367900
      6 C6          1.7090    2.2270    0.2040 ca        1 STJ      0.086100
      7 C7          1.9980    3.2070   -0.7530 ca        1 STJ     -0.106500
      8 C9          1.7970    4.5480   -0.4400 ca        1 STJ     -0.125500
      9 C11         1.2860    4.9130    0.8220 ca        1 STJ      0.127600
     10 C12         0.9980    3.9070    1.7730 ca        1 STJ     -0.125500
     11 C14         1.2140    2.5690    1.4680 ca        1 STJ     -0.106500
     12 N16         1.1210    6.2700    1.1860 nu        1 STJ     -0.724300
     13 C18         0.4080    7.1980    0.4390 ca        1 STJ      0.702200
     14 N19        -0.0440    6.9040   -0.8270 nb        1 STJ     -0.727000
     15 C20        -0.6690    7.9060   -1.4850 ca        1 STJ      0.683900
     16 N22        -0.9150    9.1690   -1.0540 nb        1 STJ     -0.737000
     17 C23        -0.4770    9.4520    0.2050 cp        1 STJ      0.489800
     18 C24         0.1870    8.5070    1.0000 ca        1 STJ     -0.413600
     19 C26        -0.7210   10.8060    0.7400 cp        1 STJ     -0.129500
     20 C27        -0.5940   11.9210   -0.1010 ca        1 STJ      0.002000
     21 C29        -0.8490   13.2080    0.4040 ca        1 STJ     -0.216600
     22 C30        -1.2130   13.3810    1.7510 ca        1 STJ     -0.092000
     23 C32        -1.3310   12.2710    2.5760 ca        1 STJ     -0.121000
     24 C34        -1.0940   10.9850    2.0760 ca        1 STJ     -0.038000
     25 C36        -0.6950   14.3120   -0.5330 c         1 STJ      0.580700
     26 O37        -0.0890   14.3720   -1.5910 o         1 STJ     -0.407100
     27 N38        -1.4270   15.6050   -0.1810 nz        1 STJ     -0.765400
     28 H7          2.3970    2.9140   -1.7370 ha        1 STJ      0.164000
     29 H9          2.0400    5.3120   -1.1950 ha        1 STJ      0.149500
     30 H12         0.6060    4.1690    2.7680 ha        1 STJ      0.149500
     31 H14         0.9940    1.7810    2.2050 ha        1 STJ      0.164000
     32 HN16        1.1880    6.4640    2.1620 hn        1 STJ      0.442800
     33 H20        -1.0310    7.6570   -2.5080 h5        1 STJ      0.070100
     34 H24         0.5440    8.7600    2.0050 ha        1 STJ      0.153000
     35 H27        -0.3000   11.7900   -1.1590 ha        1 STJ      0.189000
     36 H30        -1.3890   14.3780    2.1810 ha        1 STJ      0.126000
     37 H32        -1.6140   12.3990    3.6340 ha        1 STJ      0.169000
     38 H34        -1.2090   10.1100    2.7390 ha        1 STJ      0.171000
     39 HN38       -0.9880   16.0420    0.6330 hn        1 STJ      0.466800
     40 HN3A       -2.4050   15.3990    0.0380 hn        1 STJ      0.466800
     41 H383       -1.3820   16.2560   -0.9750 hn        1 STJ      0.466800
@<TRIPOS>BOND
     1    1    2 1   
     2    2    3 1   
     3    2    4 1   
     4    2    5 1   
     5    5    6 1   
     6    6    7 ar  
     7    6   11 ar  
     8    7    8 ar  
     9    7   28 1   
    10    8    9 ar  
    11    8   29 1   
    12    9   10 ar  
    13    9   12 1   
    14   10   11 ar  
    15   10   30 1   
    16   11   31 1   
    17   12   13 1   
    18   12   32 1   
    19   13   14 ar  
    20   13   18 ar  
    21   14   15 ar  
    22   15   16 ar  
    23   15   33 1   
    24   16   17 ar  
    25   17   18 ar  
    26   17   19 1   
    27   18   34 1   
    28   19   20 ar  
    29   19   24 ar  
    30   20   21 ar  
    31   20   35 1   
    32   21   22 ar  
    33   21   25 1   
    34   22   23 ar  
    35   22   36 1   
    36   23   24 ar  
    37   23   37 1   
    38   24   38 1   
    39   25   26 2   
    40   25   27 1   
    41   27   39 1   
    42   27   40 1   
    43   27   41 1   
@<TRIPOS>SUBSTRUCTURE
     1 STJ         1 TEMP              0 ****  ****    0 ROOT
