@<TRIPOS>MOLECULE
STJ
   40    42     1     0     0
SMALL
bcc


@<TRIPOS>ATOM
      1 F1         -6.3910    1.2640    1.4500 f         1 STJ     -0.217300
      2 C2         -6.8990    0.3650    0.5710 c3        1 STJ      0.818700
      3 F3         -6.9600   -0.8520    1.1700 f         1 STJ     -0.217300
      4 F4         -8.1490    0.7460    0.2120 f         1 STJ     -0.217300
      5 O5         -6.1770    0.3190   -0.6320 os        1 STJ     -0.366900
      6 C6         -4.8130    0.0360   -0.5560 ca        1 STJ      0.062100
      7 C7         -3.9130    1.0640   -0.8580 ca        1 STJ     -0.102500
      8 C9         -2.5530    0.7810   -0.9380 ca        1 STJ     -0.138000
      9 C11        -2.0810   -0.5270   -0.6970 ca        1 STJ      0.150600
     10 C12        -3.0120   -1.5490   -0.3900 ca        1 STJ     -0.138000
     11 C14        -4.3710   -1.2710   -0.3260 ca        1 STJ     -0.102500
     12 N16        -0.7180   -0.8580   -0.8360 nh        1 STJ     -0.728300
     13 C18         0.3240   -0.1600   -0.2130 ca        1 STJ      0.677200
     14 N19         0.1040    1.0370    0.4230 nb        1 STJ     -0.743000
     15 C20         1.2030    1.6460    0.9310 ca        1 STJ      0.667900
     16 N22         2.4890    1.2220    0.9020 nb        1 STJ     -0.714000
     17 C23         2.7010    0.0280    0.2800 cp        1 STJ      0.522800
     18 C24         1.6460   -0.7070   -0.2930 ca        1 STJ     -0.412600
     19 C26         4.0710   -0.5100    0.2040 cp        1 STJ     -0.164500
     20 C27         5.1490    0.3350   -0.0820 ca        1 STJ     -0.035000
     21 C29         6.4440   -0.1910   -0.1560 ca        1 STJ     -0.147600
     22 C30         6.6630   -1.5560    0.0460 ca        1 STJ     -0.091000
     23 C32         5.5860   -2.3950    0.3320 ca        1 STJ     -0.144000
     24 C34         4.2950   -1.8770    0.4150 ca        1 STJ     -0.092000
     25 C36         7.5620    0.7400   -0.4840 c         1 STJ      0.669700
     26 O37         7.4370    1.6520   -1.3260 o         1 STJ     -0.602100
     27 N38         8.7580    0.5670    0.1720 n         1 STJ     -0.672000
     28 H7         -4.2840    2.0830   -1.0440 ha        1 STJ      0.156500
     29 H9         -1.8550    1.5940   -1.1920 ha        1 STJ      0.151000
     30 H12        -2.6710   -2.5790   -0.2040 ha        1 STJ      0.151000
     31 H14        -5.0980   -2.0630   -0.0870 ha        1 STJ      0.156500
     32 HN16       -0.5330   -1.8310   -0.9690 hn        1 STJ      0.432800
     33 H20         1.0180    2.6170    1.4410 h5        1 STJ      0.058100
     34 H24         1.8430   -1.6570   -0.8040 ha        1 STJ      0.155000
     35 H27         4.9910    1.4120   -0.2600 ha        1 STJ      0.173000
     36 H30         7.6760   -1.9800   -0.0330 ha        1 STJ      0.139000
     37 H32         5.7560   -3.4700    0.4930 ha        1 STJ      0.139000
     38 H34         3.4510   -2.5430    0.6530 ha        1 STJ      0.138000
     39 HN38        8.8430   -0.0820    0.9100 hn        1 STJ      0.312500
     40 HN3A        9.4970    1.2040    0.0060 hn        1 STJ      0.312500
@<TRIPOS>BOND
     1    1    2 1   
     2    2    3 1   
     3    2    4 1   
     4    2    5 1   
     5    5    6 1   
     6    6    7 ar  
     7    6   11 ar  
     8    7    8 ar  
     9    7   28 1   
    10    8    9 ar  
    11    8   29 1   
    12    9   10 ar  
    13    9   12 1   
    14   10   11 ar  
    15   10   30 1   
    16   11   31 1   
    17   12   13 1   
    18   12   32 1   
    19   13   14 ar  
    20   13   18 ar  
    21   14   15 ar  
    22   15   16 ar  
    23   15   33 1   
    24   16   17 ar  
    25   17   18 ar  
    26   17   19 1   
    27   18   34 1   
    28   19   20 ar  
    29   19   24 ar  
    30   20   21 ar  
    31   20   35 1   
    32   21   22 ar  
    33   21   25 1   
    34   22   23 ar  
    35   22   36 1   
    36   23   24 ar  
    37   23   37 1   
    38   24   38 1   
    39   25   26 2   
    40   25   27 1   
    41   27   39 1   
    42   27   40 1   
@<TRIPOS>SUBSTRUCTURE
     1 STJ         1 TEMP              0 ****  ****    0 ROOT
