@<TRIPOS>MOLECULE
STJ
   40    34     1     0     0
SMALL
bcc


@<TRIPOS>ATOM
      1 F1          6.9990    3.2770   -1.9950 f         1 STJ     -0.146000
      2 C2          5.9090    3.8860   -1.5100 c3        1 STJ      0.533000
      3 F3          5.9970    5.2030   -1.7350 f         1 STJ     -0.146000
      4 F4          4.8190    3.4010   -2.1180 f         1 STJ     -0.146000
      5 O5          5.8190    3.6520   -0.1280 os        1 STJ     -0.250000
      6 C6          4.6120    3.0510    0.2700 c2        1 STJ      0.017000
      7 C7          4.4330    1.6850    0.1120 c2        1 STJ     -0.093000
      8 C9          3.2390    1.0940    0.4930 c1        1 STJ     -0.167000
      9 C11         2.2230    1.8690    1.0320 c1        1 STJ      0.069000
     10 C12         2.4020    3.2340    1.1890 c1        1 STJ     -0.108000
     11 C14         3.5970    3.8250    0.8080 c1        1 STJ     -0.112000
     12 N16         1.0150    1.2580    1.4580 n3        1 STJ     -0.249000
     13 C18        -0.0090    0.9790    0.5160 c2        1 STJ      0.156000
     14 N19        -0.0790    1.6790   -0.6260 n2        1 STJ     -0.218000
     15 C20        -1.0380    1.3850   -1.5480 c1        1 STJ      0.004000
     16 N22        -1.9280    0.3800   -1.3110 n1        1 STJ     -0.194000
     17 C23        -1.8600   -0.3210   -0.1700 c1        1 STJ      0.085000
     18 C24        -0.8990   -0.0280    0.7540 c1        1 STJ     -0.279000
     19 C26        -2.7750   -1.3330    0.0780 c1        1 STJ     -0.057000
     20 C27        -2.5650   -2.6000   -0.4430 c1        1 STJ     -0.060000
     21 C29        -3.4980   -3.6020   -0.2250 c1        1 STJ     -0.127000
     22 C30        -4.6410   -3.3370    0.5130 c1        1 STJ     -0.118000
     23 C32        -4.8510   -2.0690    1.0340 c1        1 STJ     -0.118000
     24 C34        -3.9180   -1.0670    0.8170 c1        1 STJ     -0.064000
     25 C36        -3.3010   -4.9670   -0.8490 c2        1 STJ      0.345000
     26 O37        -2.3260   -5.1830   -1.5390 o         1 STJ     -0.374000
     27 N38        -4.2130   -6.0150   -0.5610 n         1 STJ     -0.431000
     28 H7          5.1490    1.1400   -0.2670 ha        1 STJ      0.155000
     29 H9          3.1130    0.1330    0.3830 ha        1 STJ      0.140000
     30 H12         1.6870    3.7800    1.5680 ha        1 STJ      0.163000
     31 H14         3.7220    4.7870    0.9190 ha        1 STJ      0.157000
     32 HN16        0.8880    1.0630    2.3400 hn        1 STJ      0.231000
     33 H20        -1.0890    1.8950   -2.3780 ha        1 STJ      0.194000
     34 H24        -0.8490   -0.5380    1.5850 ha        1 STJ      0.161000
     35 H27        -1.7610   -2.7870   -0.9630 ha        1 STJ      0.158000
     36 H30        -5.2980   -4.0420    0.6670 ha        1 STJ      0.139000
     37 H32        -5.6550   -1.8820    1.5540 ha        1 STJ      0.139000
     38 H34        -4.0650   -0.1750    1.1830 ha        1 STJ      0.156000
     39 HN38       -5.0440   -5.8210   -0.2340 hn        1 STJ      0.227500
     40 HN3A       -3.9590   -6.8860   -0.6740 hn        1 STJ      0.227500
@<TRIPOS>BOND
     1    1    2 1   
     2    2    3 1   
     3    2    4 1   
     4    2    5 1   
     5    5    6 1   
     6    6    7 1   
     7    6   11 1   
     8    7    8 1   
     9    7   28 1   
    10    8   29 1   
    11    9   10 1   
    12    9   12 1   
    13   10   30 1   
    14   11   31 1   
    15   12   13 1   
    16   12   32 1   
    17   13   14 1   
    18   13   18 1   
    19   14   15 1   
    20   15   33 1   
    21   16   17 1   
    22   18   34 1   
    23   19   24 1   
    24   20   21 1   
    25   20   35 1   
    26   21   25 1   
    27   22   23 1   
    28   22   36 1   
    29   23   37 1   
    30   24   38 1   
    31   25   26 1   
    32   25   27 1   
    33   27   39 1   
    34   27   40 1   
@<TRIPOS>SUBSTRUCTURE
     1 STJ         1 TEMP              0 ****  ****    0 ROOT
