@<TRIPOS>MOLECULE
STJ
   42    44     1     0     0
SMALL
bcc


@<TRIPOS>ATOM
      1 F1          1.2640    1.8060   -2.6600 f         1 STJ     -0.187967
      2 C2          2.1890    1.3510   -1.7830 c3        1 STJ      0.835700
      3 F3          1.6370    0.4190   -0.9730 f         1 STJ     -0.187967
      4 F4          3.2590    0.8500   -2.4340 f         1 STJ     -0.187967
      5 O5          2.7310    2.4240   -1.0260 os        1 STJ     -0.360900
      6 C6          1.9430    3.1850   -0.2000 ca        1 STJ      0.212100
      7 C7          2.6520    4.1840    0.5050 ca        1 STJ     -0.147000
      8 C9          1.9700    5.0250    1.3660 ca        1 STJ     -0.056500
      9 C11         0.5770    4.8700    1.5330 ca        1 STJ     -0.110400
     10 C12        -0.1280    3.8780    0.8300 ca        1 STJ     -0.056500
     11 C14         0.5580    3.0340   -0.0360 ca        1 STJ     -0.147000
     12 N16        -0.1370    5.7380    2.4780 n4        1 STJ     -0.609100
     13 C18        -0.8950    6.8180    1.7950 ca        1 STJ      0.524200
     14 N19        -2.0740    6.4700    1.2060 nb        1 STJ     -0.667000
     15 C20        -2.7370    7.4790    0.5850 ca        1 STJ      0.697900
     16 N22        -2.3470    8.7790    0.5000 nb        1 STJ     -0.649000
     17 C23        -1.1770    9.1080    1.1010 cp        1 STJ      0.525800
     18 C24        -0.3870    8.1340    1.7760 ca        1 STJ     -0.329600
     19 C26        -0.7240   10.5110    1.0540 cp        1 STJ     -0.176500
     20 C27        -0.9360   11.2760   -0.1010 ca        1 STJ      0.008000
     21 C29        -0.5360   12.6240   -0.1310 ca        1 STJ     -0.202600
     22 C30         0.0850   13.2000    0.9880 ca        1 STJ     -0.063000
     23 C32         0.2910   12.4330    2.1310 ca        1 STJ     -0.115000
     24 C34        -0.1140   11.0960    2.1710 ca        1 STJ     -0.034000
     25 C36        -0.7840   13.3450   -1.3800 c         1 STJ      0.570700
     26 O37        -1.0110   12.8920   -2.4910 o         1 STJ     -0.391100
     27 N38        -0.7990   14.8610   -1.3160 n4        1 STJ     -0.759400
     28 H7          3.7430    4.2750    0.3620 ha        1 STJ      0.193000
     29 H9          2.5340    5.7960    1.9170 ha        1 STJ      0.165500
     30 H12        -1.2190    3.7520    0.9490 ha        1 STJ      0.165500
     31 H14         0.0080    2.2490   -0.5850 ha        1 STJ      0.193000
     32 HN16        0.5380    6.1710    3.1210 hn        1 STJ      0.474800
     33 H20        -3.7050    7.2070    0.0970 h5        1 STJ      0.110100
     34 H24         0.5690    8.4140    2.2380 ha        1 STJ      0.177000
     35 H27        -1.4190   10.8300   -0.9910 ha        1 STJ      0.190000
     36 H30         0.4300   14.2460    0.9900 ha        1 STJ      0.144000
     37 H32         0.7760   12.8840    3.0150 ha        1 STJ      0.184000
     38 H34         0.0390   10.5120    3.0950 ha        1 STJ      0.163000
     39 HN38        0.1440   15.2150   -1.1260 hn        1 STJ      0.475467
     40 HN3A       -1.4300   15.1770   -0.5730 hn        1 STJ      0.475467
     41 H162       -0.7940    5.1530    3.0210 hn        1 STJ      0.474800
     42 H383       -1.1190   15.2420   -2.2180 hn        1 STJ      0.475467
@<TRIPOS>BOND
     1    1    2 1   
     2    2    3 1   
     3    2    4 1   
     4    2    5 1   
     5    5    6 1   
     6    6    7 ar  
     7    6   11 ar  
     8    7    8 ar  
     9    7   28 1   
    10    8    9 ar  
    11    8   29 1   
    12    9   10 ar  
    13    9   12 1   
    14   10   11 ar  
    15   10   30 1   
    16   11   31 1   
    17   12   13 1   
    18   12   32 1   
    19   12   41 1   
    20   13   14 ar  
    21   13   18 ar  
    22   14   15 ar  
    23   15   16 ar  
    24   15   33 1   
    25   16   17 ar  
    26   17   18 ar  
    27   17   19 1   
    28   18   34 1   
    29   19   20 ar  
    30   19   24 ar  
    31   20   21 ar  
    32   20   35 1   
    33   21   22 ar  
    34   21   25 1   
    35   22   23 ar  
    36   22   36 1   
    37   23   24 ar  
    38   23   37 1   
    39   24   38 1   
    40   25   26 2   
    41   25   27 1   
    42   27   39 1   
    43   27   40 1   
    44   27   42 1   
@<TRIPOS>SUBSTRUCTURE
     1 STJ         1 TEMP              0 ****  ****    0 ROOT
