@<TRIPOS>MOLECULE
STJ
   41    43     1     0     0
SMALL
bcc


@<TRIPOS>ATOM
      1 F1          0.0960    0.3470   -1.1690 f         1 STJ     -0.212300
      2 C2          1.0090   -0.0310   -0.2400 c3        1 STJ      0.821700
      3 F3          0.3740   -0.2540    0.9380 f         1 STJ     -0.212300
      4 F4          1.6240   -1.1670   -0.6430 f         1 STJ     -0.212300
      5 O5          2.0460    0.9080   -0.1000 os        1 STJ     -0.367900
      6 C6          1.6980    2.2240    0.1990 ca        1 STJ      0.086100
      7 C7          1.9720    3.2000   -0.7660 ca        1 STJ     -0.106500
      8 C9          1.7770    4.5430   -0.4560 ca        1 STJ     -0.125500
      9 C11         1.2890    4.9140    0.8140 ca        1 STJ      0.127600
     10 C12         1.0170    3.9110    1.7730 ca        1 STJ     -0.125500
     11 C14         1.2260    2.5720    1.4700 ca        1 STJ     -0.106500
     12 N16         1.1310    6.2720    1.1750 nh        1 STJ     -0.724300
     13 C18         0.4070    7.1970    0.4370 ca        1 STJ      0.702200
     14 N19        -0.0670    6.8990   -0.8210 nb        1 STJ     -0.727000
     15 C20        -0.7020    7.8990   -1.4720 ca        1 STJ      0.683900
     16 N22        -0.9390    9.1640   -1.0420 nb        1 STJ     -0.737000
     17 C23        -0.4790    9.4510    0.2090 cp        1 STJ      0.489800
     18 C24         0.1970    8.5090    0.9960 ca        1 STJ     -0.413600
     19 C26        -0.7130   10.8080    0.7420 cp        1 STJ     -0.129500
     20 C27        -0.5980   11.9190   -0.1050 ca        1 STJ      0.002000
     21 C29        -0.8420   13.2090    0.3980 ca        1 STJ     -0.216600
     22 C30        -1.1840   13.3880    1.7500 ca        1 STJ     -0.092000
     23 C32        -1.2900   12.2810    2.5820 ca        1 STJ     -0.121000
     24 C34        -1.0640   10.9930    2.0830 ca        1 STJ     -0.038000
     25 C36        -0.7020   14.3090   -0.5450 c         1 STJ      0.580700
     26 O37        -0.1140   14.3630   -1.6140 o         1 STJ     -0.407100
     27 N38        -1.4250   15.6050   -0.1860 n4        1 STJ     -0.765400
     28 H7          2.3530    2.9030   -1.7560 ha        1 STJ      0.164000
     29 H9          2.0080    5.3040   -1.2170 ha        1 STJ      0.149500
     30 H12         0.6420    4.1780    2.7740 ha        1 STJ      0.149500
     31 H14         1.0180    1.7870    2.2150 ha        1 STJ      0.164000
     32 HN16        1.2150    6.4700    2.1490 hn        1 STJ      0.442800
     33 H20        -1.0810    7.6460   -2.4880 h5        1 STJ      0.070100
     34 H24         0.5720    8.7650    1.9930 ha        1 STJ      0.153000
     35 H27        -0.3220   11.7840   -1.1670 ha        1 STJ      0.189000
     36 H30        -1.3520   14.3870    2.1790 ha        1 STJ      0.126000
     37 H32        -1.5570   12.4150    3.6430 ha        1 STJ      0.169000
     38 H34        -1.1690   10.1210    2.7520 ha        1 STJ      0.171000
     39 HN38       -0.9720   16.0440    0.6190 hn        1 STJ      0.466800
     40 HN3A       -2.4000   15.4020    0.0490 hn        1 STJ      0.466800
     41 H383       -1.3920   16.2530   -0.9830 hn        1 STJ      0.466800
@<TRIPOS>BOND
     1    1    2 1   
     2    2    3 1   
     3    2    4 1   
     4    2    5 1   
     5    5    6 1   
     6    6    7 ar  
     7    6   11 ar  
     8    7    8 ar  
     9    7   28 1   
    10    8    9 ar  
    11    8   29 1   
    12    9   10 ar  
    13    9   12 1   
    14   10   11 ar  
    15   10   30 1   
    16   11   31 1   
    17   12   13 1   
    18   12   32 1   
    19   13   14 ar  
    20   13   18 ar  
    21   14   15 ar  
    22   15   16 ar  
    23   15   33 1   
    24   16   17 ar  
    25   17   18 ar  
    26   17   19 1   
    27   18   34 1   
    28   19   20 ar  
    29   19   24 ar  
    30   20   21 ar  
    31   20   35 1   
    32   21   22 ar  
    33   21   25 1   
    34   22   23 ar  
    35   22   36 1   
    36   23   24 ar  
    37   23   37 1   
    38   24   38 1   
    39   25   26 2   
    40   25   27 1   
    41   27   39 1   
    42   27   40 1   
    43   27   41 1   
@<TRIPOS>SUBSTRUCTURE
     1 STJ         1 TEMP              0 ****  ****    0 ROOT
