@<TRIPOS>MOLECULE
STL
   29    30     1     0     0
SMALL
bcc


@<TRIPOS>ATOM
      1 C1          0.1170   -0.0720   -0.0400 ca        1 STL      0.160100
      2 C2          1.5170   -0.1460   -0.0000 ca        1 STL     -0.244000
      3 C3          2.1390   -0.0900    1.2520 ca        1 STL      0.160100
      4 C4          1.3980    0.0350    2.4380 ca        1 STL     -0.212500
      5 C5          0.0000    0.0990    2.3730 ca        1 STL      0.018200
      6 C6         -0.6440    0.0500    1.1290 ca        1 STL     -0.212500
      7 C7         -0.7480    0.2300    3.6140 ce        1 STL     -0.120200
      8 C8         -2.0290   -0.1440    3.7710 cf        1 STL     -0.085200
      9 C9         -2.7860   -0.0240    5.0040 ca        1 STL     -0.096800
     10 C10        -4.1890   -0.1110    4.9500 ca        1 STL     -0.079500
     11 C11        -4.9600   -0.0010    6.0990 ca        1 STL     -0.186500
     12 C12        -4.3190    0.1940    7.3350 ca        1 STL      0.131100
     13 C13        -2.9220    0.2750    7.4120 ca        1 STL     -0.186500
     14 C14        -2.1670    0.1650    6.2480 ca        1 STL     -0.079500
     15 O1         -5.1330    0.2950    8.4390 oh        1 STL     -0.495100
     16 O2          3.5060   -0.1530    1.3930 oh        1 STL     -0.496600
     17 O3         -0.4560   -0.1250   -1.2900 oh        1 STL     -0.496600
     18 H2          2.0920   -0.2420   -0.9290 ha        1 STL      0.153000
     19 H4          1.9240    0.0770    3.4010 ha        1 STL      0.144000
     20 H6         -1.7380    0.1160    1.0670 ha        1 STL      0.144000
     21 H7         -0.1750    0.6620    4.4540 ha        1 STL      0.131000
     22 H8         -2.5910   -0.5800    2.9250 ha        1 STL      0.125000
     23 H10        -4.6860   -0.2650    3.9800 ha        1 STL      0.135500
     24 H11        -6.0560   -0.0630    6.0610 ha        1 STL      0.143500
     25 H13        -2.4270    0.4210    8.3820 ha        1 STL      0.143500
     26 H14        -1.0700    0.2210    6.3140 ha        1 STL      0.135500
     27 HO1        -4.5680    0.4240    9.2160 ho        1 STL      0.421000
     28 HO2         3.8940   -0.2380    0.5100 ho        1 STL      0.421500
     29 HO3        -1.4160   -0.0570   -1.1820 ho        1 STL      0.421500
@<TRIPOS>BOND
     1    1    2 ar  
     2    1    6 ar  
     3    1   17 1   
     4    2    3 ar  
     5    2   18 1   
     6    3    4 ar  
     7    3   16 1   
     8    4    5 ar  
     9    4   19 1   
    10    5    6 ar  
    11    5    7 1   
    12    6   20 1   
    13    7    8 2   
    14    7   21 1   
    15    8    9 1   
    16    8   22 1   
    17    9   10 ar  
    18    9   14 ar  
    19   10   11 ar  
    20   10   23 1   
    21   11   12 ar  
    22   11   24 1   
    23   12   13 ar  
    24   12   15 1   
    25   13   14 ar  
    26   13   25 1   
    27   14   26 1   
    28   15   27 1   
    29   16   28 1   
    30   17   29 1   
@<TRIPOS>SUBSTRUCTURE
     1 STL         1 TEMP              0 ****  ****    0 ROOT
