@<TRIPOS>MOLECULE
STL
   29    30     1     0     0
SMALL
bcc


@<TRIPOS>ATOM
      1 C1          0.1110   -0.0930   -0.0420 ca        1 STL      0.160100
      2 C2          1.5110   -0.1640   -0.0040 ca        1 STL     -0.244000
      3 C3          2.1350   -0.0980    1.2470 ca        1 STL      0.160100
      4 C4          1.3960    0.0330    2.4330 ca        1 STL     -0.212500
      5 C5         -0.0020    0.0940    2.3710 ca        1 STL      0.018200
      6 C6         -0.6480    0.0350    1.1280 ca        1 STL     -0.212500
      7 C7         -0.7490    0.2320    3.6120 ce        1 STL     -0.120200
      8 C8         -2.0280   -0.1450    3.7740 cf        1 STL     -0.085200
      9 C9         -2.7830   -0.0180    5.0070 ca        1 STL     -0.096800
     10 C10        -4.1860   -0.1110    4.9570 ca        1 STL     -0.079500
     11 C11        -4.9550    0.0050    6.1060 ca        1 STL     -0.186500
     12 C12        -4.3130    0.2120    7.3390 ca        1 STL      0.131100
     13 C13        -2.9170    0.2990    7.4130 ca        1 STL     -0.186500
     14 C14        -2.1630    0.1830    6.2480 ca        1 STL     -0.079500
     15 O1         -5.1250    0.3190    8.4440 oh        1 STL     -0.495100
     16 O2          3.5020   -0.1580    1.3860 oh        1 STL     -0.496600
     17 O3         -0.4640   -0.1550   -1.2900 oh        1 STL     -0.496600
     18 H2          2.0850   -0.2650   -0.9340 ha        1 STL      0.153000
     19 H4          1.9240    0.0830    3.3950 ha        1 STL      0.144000
     20 H6         -1.7430    0.0990    1.0670 ha        1 STL      0.144000
     21 H7         -0.1750    0.6710    4.4470 ha        1 STL      0.131000
     22 H8         -2.5900   -0.5880    2.9320 ha        1 STL      0.125000
     23 H10        -4.6840   -0.2750    3.9880 ha        1 STL      0.135500
     24 H11        -6.0520   -0.0630    6.0710 ha        1 STL      0.143500
     25 H13        -2.4210    0.4560    8.3810 ha        1 STL      0.143500
     26 H14        -1.0660    0.2440    6.3120 ha        1 STL      0.135500
     27 HO1        -4.5600    0.4570    9.2180 ho        1 STL      0.421000
     28 HO2         3.8890   -0.2480    0.5020 ho        1 STL      0.421500
     29 HO3        -1.4240   -0.0880   -1.1810 ho        1 STL      0.421500
@<TRIPOS>BOND
     1    1    2 ar  
     2    1    6 ar  
     3    1   17 1   
     4    2    3 ar  
     5    2   18 1   
     6    3    4 ar  
     7    3   16 1   
     8    4    5 ar  
     9    4   19 1   
    10    5    6 ar  
    11    5    7 1   
    12    6   20 1   
    13    7    8 2   
    14    7   21 1   
    15    8    9 1   
    16    8   22 1   
    17    9   10 ar  
    18    9   14 ar  
    19   10   11 ar  
    20   10   23 1   
    21   11   12 ar  
    22   11   24 1   
    23   12   13 ar  
    24   12   15 1   
    25   13   14 ar  
    26   13   25 1   
    27   14   26 1   
    28   15   27 1   
    29   16   28 1   
    30   17   29 1   
@<TRIPOS>SUBSTRUCTURE
     1 STL         1 TEMP              0 ****  ****    0 ROOT
