@<TRIPOS>MOLECULE
STL
   29    30     1     0     0
SMALL
bcc


@<TRIPOS>ATOM
      1 C1          1.1720    0.2000   -3.6190 ca        1 STL      0.160100
      2 C2          0.0670    0.0790   -4.4730 ca        1 STL     -0.244000
      3 C3         -1.2050    0.0240   -3.8930 ca        1 STL      0.160100
      4 C4         -1.3830    0.0860   -2.5020 ca        1 STL     -0.212500
      5 C5         -0.2640    0.1980   -1.6680 ca        1 STL      0.018200
      6 C6          1.0200    0.2590   -2.2280 ca        1 STL     -0.212500
      7 C7         -0.4710    0.2610   -0.2290 ce        1 STL     -0.120200
      8 C8          0.4500   -0.0830    0.6860 cf        1 STL     -0.085200
      9 C9          0.2540   -0.0300    2.1240 ca        1 STL     -0.096800
     10 C10         1.3820   -0.0670    2.9650 ca        1 STL     -0.079500
     11 C11         1.2510   -0.0170    4.3450 ca        1 STL     -0.186500
     12 C12        -0.0350    0.0660    4.9060 ca        1 STL      0.131100
     13 C13        -1.1720    0.0960    4.0870 ca        1 STL     -0.186500
     14 C14        -1.0190    0.0480    2.7050 ca        1 STL     -0.079500
     15 O1         -0.1050    0.1110    6.2790 oh        1 STL     -0.495100
     16 O2         -2.3490   -0.0910   -4.6480 oh        1 STL     -0.496600
     17 O3          2.4050    0.2560   -4.2280 oh        1 STL     -0.496600
     18 H2          0.2110    0.0330   -5.5600 ha        1 STL      0.153000
     19 H4         -2.3990    0.0410   -2.0850 ha        1 STL      0.144000
     20 H6          1.9030    0.3640   -1.5830 ha        1 STL      0.144000
     21 H7         -1.4730    0.6120    0.0760 ha        1 STL      0.131000
     22 H8          1.4470   -0.4380    0.3690 ha        1 STL      0.125000
     23 H10         2.3880   -0.1340    2.5200 ha        1 STL      0.135500
     24 H11         2.1290   -0.0420    5.0050 ha        1 STL      0.143500
     25 H13        -2.1750    0.1550    4.5330 ha        1 STL      0.143500
     26 H14        -1.9160    0.0630    2.0660 ha        1 STL      0.135500
     27 HO1        -1.0390    0.1650    6.5290 ho        1 STL      0.421000
     28 HO2        -2.0900   -0.1240   -5.5810 ho        1 STL      0.421500
     29 HO3         3.0760    0.3460   -3.5360 ho        1 STL      0.421500
@<TRIPOS>BOND
     1    1    2 ar  
     2    1    6 ar  
     3    1   17 1   
     4    2    3 ar  
     5    2   18 1   
     6    3    4 ar  
     7    3   16 1   
     8    4    5 ar  
     9    4   19 1   
    10    5    6 ar  
    11    5    7 1   
    12    6   20 1   
    13    7    8 2   
    14    7   21 1   
    15    8    9 1   
    16    8   22 1   
    17    9   10 ar  
    18    9   14 ar  
    19   10   11 ar  
    20   10   23 1   
    21   11   12 ar  
    22   11   24 1   
    23   12   13 ar  
    24   12   15 1   
    25   13   14 ar  
    26   13   25 1   
    27   14   26 1   
    28   15   27 1   
    29   16   28 1   
    30   17   29 1   
@<TRIPOS>SUBSTRUCTURE
     1 STL         1 TEMP              0 ****  ****    0 ROOT
