@<TRIPOS>MOLECULE
STN
   27    25     1     0     0
SMALL
bcc


@<TRIPOS>ATOM
      1 CD1        -2.3060    0.9930   -1.6340 c3        1 STN     -0.197000
      2 CG         -0.7920    1.0650   -1.5310 c3        1 STN     -0.130000
      3 CN          0.0180   -0.9090    1.4650 c3        1 STN     -0.032000
      4 CA          0.4120   -0.2930    0.1210 c3        1 STN     -0.209000
      5 CB         -0.3890    0.9790   -0.1060 c3        1 STN     -0.118000
      6 CD2        -0.2960    2.4060   -2.1300 c3        1 STN     -0.197000
      7 C           1.8690    0.0330    0.1300 c2        1 STN      0.328000
      8 CM          1.4260   -2.3230    2.9830 c1        1 STN      0.207000
      9 ON          0.7670   -3.1230    0.7920 oh        1 STN     -0.257000
     10 N           0.7990   -2.1140    1.6990 n2        1 STN     -0.197000
     11 OM          2.2790   -3.1860    3.1110 o         1 STN     -0.400000
     12 O           2.3070    0.9490    0.8840 o         1 STN     -0.576000
     13 OXT         2.6600   -0.5990   -0.6160 o         1 STN     -0.576000
     14 HD11       -2.6150    0.1150   -1.3150 hc        1 STN      0.058833
     15 HD12       -2.7080    1.7030   -1.0810 hc        1 STN      0.058833
     16 HD13       -2.5740    1.1130   -2.5610 hc        1 STN      0.058833
     17 HG         -0.4020    0.3320   -2.0180 hc        1 STN      0.156000
     18 HCN1       -0.9270   -1.1340    1.4530 h1        1 STN      0.101000
     19 HCN2        0.1920   -0.2610    2.1850 h1        1 STN      0.101000
     20 HA          0.2260   -0.9260   -0.5930 hc        1 STN      0.095000
     21 HCB1        0.1610    1.7570    0.1240 hc        1 STN      0.060500
     22 HCB2       -1.1940    0.9670    0.4620 hc        1 STN      0.060500
     23 HD21       -0.6370    2.5010   -3.0490 hc        1 STN      0.058833
     24 HD22        0.6860    2.4160   -2.1430 hc        1 STN      0.058833
     25 HD23       -0.6260    3.1590   -1.5750 hc        1 STN      0.058833
     26 HM          1.1840   -1.7470    3.7530 ha        1 STN      0.215000
     27 HN          0.4780   -3.8730    1.1900 ho        1 STN      0.211000
@<TRIPOS>BOND
     1    1    2 1   
     2    1   14 1   
     3    1   15 1   
     4    1   16 1   
     5    2    5 1   
     6    2    6 1   
     7    2   17 1   
     8    3    4 1   
     9    3   10 1   
    10    3   18 1   
    11    3   19 1   
    12    4    5 1   
    13    4    7 1   
    14    4   20 1   
    15    5   21 1   
    16    5   22 1   
    17    6   23 1   
    18    6   24 1   
    19    6   25 1   
    20    7   12 1   
    21    7   13 1   
    22    8   11 1   
    23    8   26 1   
    24    9   10 1   
    25    9   27 1   
@<TRIPOS>SUBSTRUCTURE
     1 STN         1 TEMP              0 ****  ****    0 ROOT
