@<TRIPOS>MOLECULE
STN
   28    26     1     0     0
SMALL
bcc


@<TRIPOS>ATOM
      1 CD1         0.0070   -0.0780    0.2160 c3        1 STN     -0.090100
      2 CG          1.3570    0.5700   -0.0270 c3        1 STN     -0.049500
      3 CN          4.7380   -2.8620    0.1220 c3        1 STN      0.025300
      4 CA          3.1080    0.6440    1.7460 ce        1 STN     -0.274200
      5 CB          1.9300    1.0540    1.2610 c2        1 STN     -0.066200
      6 CD2         1.2250    1.7260   -1.0020 c3        1 STN     -0.090100
      7 C           3.6330    1.1460    3.0220 c         1 STN      0.630300
      8 CM          6.5560   -3.2560    1.6990 c         1 STN      0.605900
      9 ON          5.8720   -1.0940    1.1080 oh        1 STN     -0.439100
     10 OM          7.6870   -2.8390    1.9730 o         1 STN     -0.547100
     11 O           4.8250    0.6660    3.4850 oh        1 STN     -0.586100
     12 OXT         3.1190    1.9850    3.7680 o         1 STN     -0.511000
     13 HD11        2.0450   -0.2010   -0.4810 hc        1 STN      0.047700
     14 HD12       -0.4150   -0.4510   -0.7490 hc        1 STN      0.040700
     15 HD13        0.1080   -0.9390    0.9190 hc        1 STN      0.040700
     16 HG         -0.7080    0.6580    0.6560 hc        1 STN      0.040700
     17 HCN1        5.3390   -2.9700   -0.8190 h1        1 STN      0.055367
     18 HCN2        3.9100   -2.1270   -0.0620 h1        1 STN      0.055367
     19 HA          4.3020   -3.8520    0.4090 h1        1 STN      0.055367
     20 HCB1        3.7440   -0.0860    1.2160 ha        1 STN      0.149000
     21 HCB2        1.3150    1.7890    1.8120 ha        1 STN      0.149000
     22 HD21        0.5460    2.5110   -0.5890 hc        1 STN      0.040700
     23 HD22        0.8000    1.3620   -1.9680 hc        1 STN      0.040700
     24 HD23        2.2220    2.1860   -1.1990 hc        1 STN      0.040700
     25 HM          5.1820    0.0040    2.8720 ho        1 STN      0.443000
     26 HN          6.8150   -1.0260    0.8440 ho        1 STN      0.415000
     27 H           6.2070   -4.2990    1.8510 h5        1 STN      0.060200
     28 N           5.5310   -2.3750    1.2460 n         1 STN     -0.284300
@<TRIPOS>BOND
     1    1    2 1   
     2    1   14 1   
     3    1   15 1   
     4    1   16 1   
     5    2    5 1   
     6    2    6 1   
     7    2   13 1   
     8    3   17 1   
     9    3   18 1   
    10    3   19 1   
    11    3   28 1   
    12    4    5 2   
    13    4    7 1   
    14    4   20 1   
    15    5   21 1   
    16    6   22 1   
    17    6   23 1   
    18    6   24 1   
    19    7   11 1   
    20    7   12 2   
    21    8   10 2   
    22    8   27 1   
    23    8   28 1   
    24    9   26 1   
    25    9   28 1   
    26   11   25 1   
@<TRIPOS>SUBSTRUCTURE
     1 STN         1 TEMP              0 ****  ****    0 ROOT
