@<TRIPOS>MOLECULE
STN
   28    26     1     0     0
SMALL
bcc


@<TRIPOS>ATOM
      1 CD1        -0.0430   -0.1200    0.1540 c3        1 STN     -0.209500
      2 CG          1.4070    0.3210    0.1230 c3        1 STN     -0.108000
      3 CN          4.0600   -1.4940    0.4280 c3        1 STN     -0.119000
      4 CA          3.6410   -0.2280    1.1900 c3        1 STN     -0.136000
      5 CB          2.1290   -0.1910    1.3620 c3        1 STN     -0.151000
      6 CD2         1.4880    1.8310    0.0210 c3        1 STN     -0.209500
      7 C           4.3190   -0.1980    2.5360 c2        1 STN      0.296000
      8 CM          6.7310   -3.0030    3.0020 c1        1 STN      0.185000
      9 ON          5.8220   -2.4740   -0.6910 oh        1 STN     -0.271000
     10 OM          7.2150   -3.4680    3.9600 o         1 STN     -0.180000
     11 O           5.5750    0.3330    2.6360 oh        1 STN     -0.296000
     12 OXT         3.8770   -0.6080    3.6100 o         1 STN     -0.305000
     13 HD11        1.8930   -0.1240   -0.7910 hc        1 STN      0.084000
     14 HD12       -0.5490    0.2630    1.0720 hc        1 STN      0.075833
     15 HD13       -0.1130   -1.2340    0.1490 hc        1 STN      0.075833
     16 HG         -0.5850    0.2730   -0.7400 hc        1 STN      0.075833
     17 HCN1        3.5740   -1.4760   -0.5870 h1        1 STN      0.099000
     18 HCN2        3.6650   -2.3970    0.9730 h1        1 STN      0.099000
     19 HA          3.9680    0.6800    0.6070 hc        1 STN      0.116000
     20 HCB1        1.8760    0.4660    2.2370 hc        1 STN      0.102000
     21 HCB2        1.7640   -1.2220    1.6140 hc        1 STN      0.102000
     22 HD21        0.9980    2.3100    0.9030 hc        1 STN      0.075833
     23 HD22        0.9700    2.1820   -0.9040 hc        1 STN      0.075833
     24 HD23        2.5500    2.1700   -0.0200 hc        1 STN      0.075833
     25 HM          5.8860    0.6260    1.7680 ho        1 STN      0.234000
     26 HN          6.0940   -1.9580   -1.4740 ho        1 STN      0.217000
     27 H           5.9400   -1.8790    1.1130 hn        1 STN      0.182000
     28 N           5.5200   -1.5540    0.2370 n3        1 STN     -0.185000
@<TRIPOS>BOND
     1    1    2 1   
     2    1   14 1   
     3    1   15 1   
     4    1   16 1   
     5    2    5 1   
     6    2    6 1   
     7    2   13 1   
     8    3    4 1   
     9    3   17 1   
    10    3   18 1   
    11    3   28 1   
    12    4    5 1   
    13    4    7 1   
    14    4   19 1   
    15    5   20 1   
    16    5   21 1   
    17    6   22 1   
    18    6   23 1   
    19    6   24 1   
    20    7   11 1   
    21    7   12 1   
    22    8   10 1   
    23    9   26 1   
    24    9   28 1   
    25   11   25 1   
    26   27   28 1   
@<TRIPOS>SUBSTRUCTURE
     1 STN         1 TEMP              0 ****  ****    0 ROOT
