@<TRIPOS>MOLECULE
STN
   27    25     1     0     0
SMALL
bcc


@<TRIPOS>ATOM
      1 CD1        -0.0210   -0.3170    0.7370 c3        1 STN     -0.201000
      2 CG          1.4200   -0.7500    0.6530 c3        1 STN     -0.156000
      3 CN          4.2390   -1.1530    0.0490 c3        1 STN     -0.094000
      4 CA          3.8180   -0.0830    1.0570 c3        1 STN     -0.185000
      5 CB          2.3940    0.4080    0.8120 c3        1 STN     -0.088000
      6 CD2         2.3360    1.3510   -0.3710 c3        1 STN     -0.204000
      7 C           4.0040   -0.6130    2.4920 c2        1 STN      0.330000
      8 CM          5.4660   -1.4150    4.9070 c1        1 STN      0.213000
      9 ON          6.3570   -0.4950   -0.6500 oh        1 STN     -0.290000
     10 OM          5.3270   -2.5840    4.8010 o         1 STN     -0.293000
     11 O           3.0430   -0.6170    3.3050 o         1 STN     -0.561500
     12 OXT         5.1710   -1.0300    2.8060 o         1 STN     -0.561500
     13 HD11        1.6340   -1.4840    1.4790 hc        1 STN      0.087000
     14 HD12       -0.6940   -1.2060    0.6900 hc        1 STN      0.058000
     15 HD13       -0.2110    0.2180    1.6990 hc        1 STN      0.058000
     16 HG         -0.2870    0.3670   -0.1050 hc        1 STN      0.058000
     17 HCN1        1.5990   -1.2660   -0.3270 hc        1 STN      0.087000
     18 HCN2        3.8980   -0.8500   -0.9790 h1        1 STN      0.077000
     19 HA          3.7420   -2.1260    0.3210 h1        1 STN      0.077000
     20 HCB1        4.5130    0.7980    0.9560 hc        1 STN      0.093000
     21 HCB2        2.0910    0.9780    1.7400 hc        1 STN      0.111000
     22 HD21        1.3210    1.8090   -0.4560 hc        1 STN      0.056667
     23 HD22        3.0830    2.1720   -0.2510 hc        1 STN      0.056667
     24 HD23        2.5570    0.8130   -1.3250 hc        1 STN      0.056667
     25 HM          6.0270   -1.4830    0.9470 hn        1 STN      0.213000
     26 HN          6.4870   -0.8370   -1.5520 ho        1 STN      0.185000
     27 N           5.6720   -1.4670   -0.0170 n3        1 STN     -0.185000
@<TRIPOS>BOND
     1    1    2 1   
     2    1   14 1   
     3    1   15 1   
     4    1   16 1   
     5    2    5 1   
     6    2   13 1   
     7    2   17 1   
     8    3    4 1   
     9    3   18 1   
    10    3   19 1   
    11    3   27 1   
    12    4    5 1   
    13    4    7 1   
    14    4   20 1   
    15    5    6 1   
    16    5   21 1   
    17    6   22 1   
    18    6   23 1   
    19    6   24 1   
    20    7   11 1   
    21    7   12 1   
    22    8   10 1   
    23    9   26 1   
    24    9   27 1   
    25   25   27 1   
@<TRIPOS>SUBSTRUCTURE
     1 STN         1 TEMP              0 ****  ****    0 ROOT
