@<TRIPOS>MOLECULE
STN
   27    26     1     0     0
SMALL
bcc


@<TRIPOS>ATOM
      1 CD1        -0.6500   -0.6240    3.9490 c3        1 STN     -0.083600
      2 CG         -0.6960    0.0840    2.6100 c3        1 STN     -0.074700
      3 CN         -0.2990   -1.2350   -0.2910 c3        1 STN      0.057000
      4 CA          0.3980   -0.0180    0.3190 c3        1 STN     -0.222700
      5 CB          0.5740   -0.1990    1.8160 c3        1 STN     -0.059400
      6 CD2        -0.8880    1.5720    2.8160 c3        1 STN     -0.083600
      7 C           1.7840    0.2240   -0.3410 c         1 STN      0.913600
      8 CM         -0.5310   -0.3990   -2.5890 c         1 STN      0.612900
      9 ON         -2.3690   -0.5550   -1.1550 oh        1 STN     -0.428100
     10 OM         -1.1700    0.3590   -3.3370 o         1 STN     -0.621100
     11 O           2.0880   -0.4540   -1.3670 o         1 STN     -0.840300
     12 OXT         2.5330    1.0990    0.1700 o         1 STN     -0.840300
     13 HD11       -1.5620   -0.3860    4.5480 hc        1 STN      0.024700
     14 HD12       -0.5990   -1.7290    3.8030 hc        1 STN      0.024700
     15 HD13        0.2490   -0.3030    4.5290 hc        1 STN      0.024700
     16 HG         -1.5790   -0.3100    2.0320 hc        1 STN      0.042700
     17 HCN1        0.4900   -1.9630   -0.6370 h1        1 STN      0.064200
     18 HCN2       -0.9510   -1.7340    0.4780 h1        1 STN      0.064200
     19 HA         -0.2080    0.9100    0.1340 hc        1 STN      0.039700
     20 HCB1        1.3920    0.4920    2.1580 hc        1 STN      0.051700
     21 HCB2        0.9140   -1.2480    2.0210 hc        1 STN      0.051700
     22 HD21       -0.0590    1.9920    3.4350 hc        1 STN      0.024700
     23 HD22       -0.8940    2.1030    1.8340 hc        1 STN      0.024700
     24 HD23       -1.8560    1.7720    3.3370 hc        1 STN      0.024700
     25 HM          0.5350   -0.7080   -2.7320 h5        1 STN      0.122200
     26 HN         -2.3600    0.4250   -1.1430 ho        1 STN      0.379000
     27 N          -1.1520   -0.9980   -1.4610 n         1 STN     -0.294300
@<TRIPOS>BOND
     1    1    2 1   
     2    1   13 1   
     3    1   14 1   
     4    1   15 1   
     5    2    5 1   
     6    2    6 1   
     7    2   16 1   
     8    3    4 1   
     9    3   17 1   
    10    3   18 1   
    11    3   27 1   
    12    4    5 1   
    13    4    7 1   
    14    4   19 1   
    15    5   20 1   
    16    5   21 1   
    17    6   22 1   
    18    6   23 1   
    19    6   24 1   
    20    7   11 1   
    21    7   12 1   
    22    8   10 2   
    23    8   25 1   
    24    8   27 1   
    25    9   26 1   
    26    9   27 1   
@<TRIPOS>SUBSTRUCTURE
     1 STN         1 TEMP              0 ****  ****    0 ROOT
