@<TRIPOS>MOLECULE
STO
   62    69     1     0     0
SMALL
bcc


@<TRIPOS>ATOM
      1 C1         -0.1080    0.0910   -0.1390 ca        1 STO     -0.078000
      2 C2          1.2640   -0.1710   -0.2040 ca        1 STO     -0.127000
      3 C3          1.9640   -0.5940    0.9240 ca        1 STO     -0.103000
      4 C4          1.3300   -0.7590    2.1600 ca        1 STO     -0.133000
      5 C5         -0.0300   -0.4740    2.2500 ca        1 STO     -0.041200
      6 N6         -0.9240   -0.6480    3.3680 na        1 STO     -0.100300
      7 C7         -2.2050   -0.2520    2.8710 ca        1 STO     -0.052200
      8 C8         -3.4150   -0.2550    3.5370 ca        1 STO     -0.083200
      9 N9         -3.6720   -0.6460    4.8850 na        1 STO     -0.108300
     10 C10        -5.0620   -0.3460    5.0990 ca        1 STO     -0.045200
     11 C11        -5.8090   -0.4710    6.2660 ca        1 STO     -0.154000
     12 C12        -7.1820   -0.2030    6.1960 ca        1 STO     -0.089000
     13 C13        -7.7900    0.1760    5.0010 ca        1 STO     -0.136000
     14 C14        -7.0500    0.3100    3.8210 ca        1 STO     -0.051000
     15 C15        -5.6880    0.0570    3.8620 cp        1 STO     -0.073000
     16 C16        -4.6400    0.1190    2.8520 cp        1 STO      0.053000
     17 C17        -4.5710    0.4330    1.5160 ca        1 STO     -0.125600
     18 C18        -5.6360    0.8360    0.5400 c         1 STO      0.719100
     19 N19        -5.0170    0.9810   -0.7060 n         1 STO     -0.576900
     20 C20        -3.5760    0.8000   -0.6230 c3        1 STO      0.133300
     21 C21        -3.3220    0.4150    0.8170 ca        1 STO     -0.048300
     22 C22        -2.1560    0.0830    1.4610 cp        1 STO     -0.024000
     23 C23        -0.7600   -0.0600    1.0730 cp        1 STO     -0.062000
     24 C24        -0.5240   -0.1840    4.7090 c3        1 STO      0.229500
     25 C25        -0.0230   -1.3780    5.5940 c3        1 STO      0.100100
     26 C26        -1.1770   -2.3400    5.9750 c3        1 STO      0.116500
     27 C27        -2.2410   -1.5300    6.7040 c3        1 STO     -0.131400
     28 C28        -2.6990   -0.2880    5.9150 c3        1 STO      0.214800
     29 O29        -1.5900    0.4670    5.4310 os        1 STO     -0.394600
     30 O30        -6.8440    0.9970    0.7520 o         1 STO     -0.605500
     31 N31        -1.6980   -3.0920    4.7830 n4        1 STO     -0.747000
     32 C32        -2.2930   -4.3940    5.1480 c3        1 STO      0.082100
     33 O33         0.9710   -2.1320    4.9220 os        1 STO     -0.432600
     34 C34         2.2340   -2.1600    5.5830 c3        1 STO      0.106700
     35 C35         0.5690    0.9050    4.7110 c3        1 STO     -0.106100
     36 H1         -0.6630    0.4080   -1.0350 ha        1 STO      0.148000
     37 H2          1.7940   -0.0460   -1.1610 ha        1 STO      0.152000
     38 H3          3.0420   -0.8070    0.8460 ha        1 STO      0.147000
     39 H4          1.8970   -1.1190    3.0320 ha        1 STO      0.145000
     40 H11        -5.3480   -0.7660    7.2180 ha        1 STO      0.132000
     41 H12        -7.7880   -0.2920    7.1120 ha        1 STO      0.147000
     42 H13        -8.8730    0.3800    4.9820 ha        1 STO      0.155000
     43 H14        -7.5330    0.6130    2.8740 ha        1 STO      0.189000
     44 HN9        -5.4420    1.4330   -1.4730 hn        1 STO      0.344500
     45 H201       -3.2500   -0.0180   -1.3240 h1        1 STO      0.071700
     46 H202       -3.0250    1.7460   -0.8890 h1        1 STO      0.071700
     47 H25         0.3630   -0.9300    6.5530 h1        1 STO      0.100700
     48 H26        -0.7530   -3.1200    6.6800 hx        1 STO      0.103700
     49 H271       -1.7840   -1.1670    7.6650 hc        1 STO      0.094700
     50 H272       -3.1260   -2.1660    6.9710 hc        1 STO      0.094700
     51 H28        -3.1730    0.4450    6.6500 h2        1 STO      0.118700
     52 HN3        -0.9050   -3.2400    4.1380 hn        1 STO      0.478800
     53 H321       -2.6950   -4.8830    4.2190 hx        1 STO      0.102700
     54 H322       -3.1320   -4.2350    5.8770 hx        1 STO      0.102700
     55 H323       -1.5130   -5.0560    5.6100 hx        1 STO      0.102700
     56 H341        2.8730   -2.7810    4.9040 h1        1 STO      0.057367
     57 H342        2.6480   -1.1270    5.6780 h1        1 STO      0.057367
     58 H343        2.1380   -2.6390    6.5870 h1        1 STO      0.057367
     59 H351        0.3170    1.7100    3.9800 hc        1 STO      0.073033
     60 H352        1.5520    0.4500    4.4440 hc        1 STO      0.073033
     61 H353        0.6300    1.3600    5.7300 hc        1 STO      0.073033
     62 H312       -2.4040   -2.5260    4.2910 hn        1 STO      0.478800
@<TRIPOS>BOND
     1    1    2 ar  
     2    1   23 ar  
     3    1   36 1   
     4    2    3 ar  
     5    2   37 1   
     6    3    4 ar  
     7    3   38 1   
     8    4    5 ar  
     9    4   39 1   
    10    5    6 1   
    11    5   23 ar  
    12    6    7 1   
    13    6   24 1   
    14    7    8 ar  
    15    7   22 ar  
    16    8    9 1   
    17    8   16 ar  
    18    9   10 1   
    19    9   28 1   
    20   10   11 ar  
    21   10   15 ar  
    22   11   12 ar  
    23   11   40 1   
    24   12   13 ar  
    25   12   41 1   
    26   13   14 ar  
    27   13   42 1   
    28   14   15 ar  
    29   14   43 1   
    30   15   16 1   
    31   16   17 ar  
    32   17   18 1   
    33   17   21 ar  
    34   18   19 1   
    35   18   30 2   
    36   19   20 1   
    37   19   44 1   
    38   20   21 1   
    39   20   45 1   
    40   20   46 1   
    41   21   22 ar  
    42   22   23 1   
    43   24   25 1   
    44   24   29 1   
    45   24   35 1   
    46   25   26 1   
    47   25   33 1   
    48   25   47 1   
    49   26   27 1   
    50   26   31 1   
    51   26   48 1   
    52   27   28 1   
    53   27   49 1   
    54   27   50 1   
    55   28   29 1   
    56   28   51 1   
    57   31   32 1   
    58   31   52 1   
    59   31   62 1   
    60   32   53 1   
    61   32   54 1   
    62   32   55 1   
    63   33   34 1   
    64   34   56 1   
    65   34   57 1   
    66   34   58 1   
    67   35   59 1   
    68   35   60 1   
    69   35   61 1   
@<TRIPOS>SUBSTRUCTURE
     1 STO         1 TEMP              0 ****  ****    0 ROOT
