@<TRIPOS>MOLECULE
STO
   61    68     1     0     0
SMALL
bcc


@<TRIPOS>ATOM
      1 C1          3.5110   -0.0980   -2.4790 ca        1 STO     -0.082000
      2 C2          3.5040   -0.1290   -3.8720 ca        1 STO     -0.160000
      3 C3          2.3040   -0.2580   -4.5770 ca        1 STO     -0.107000
      4 C4          1.0790   -0.3770   -3.9250 ca        1 STO     -0.148000
      5 C5          1.0670   -0.3800   -2.5250 ca        1 STO      0.016800
      6 N6         -0.0130   -0.4560   -1.6140 na        1 STO     -0.086300
      7 C7          0.5310   -0.3540   -0.3210 ca        1 STO      0.023800
      8 C8         -0.1000   -0.3520    0.9220 ca        1 STO     -0.008200
      9 N9         -1.4640   -0.4800    1.2230 na        1 STO     -0.094300
     10 C10        -1.5990   -0.4580    2.6220 ca        1 STO      0.016800
     11 C11        -2.7440   -0.5670    3.4190 ca        1 STO     -0.179000
     12 C12        -2.5860   -0.4920    4.8000 ca        1 STO     -0.091000
     13 C13        -1.3300   -0.3110    5.3880 ca        1 STO     -0.173000
     14 C14        -0.1790   -0.2000    4.6100 ca        1 STO     -0.054000
     15 C15        -0.2950   -0.2730    3.2280 cp        1 STO     -0.086000
     16 C16         0.6690   -0.2070    2.1450 cp        1 STO      0.022000
     17 C17         2.0400   -0.0590    2.0490 ca        1 STO     -0.141600
     18 C18         3.0880    0.1040    3.1000 c         1 STO      0.717100
     19 N19         4.3160    0.3010    2.4390 n         1 STO     -0.573900
     20 C20         4.1700    0.1350    0.9980 c3        1 STO      0.128300
     21 C21         2.6860   -0.0540    0.7840 ca        1 STO     -0.064300
     22 C22         1.9710   -0.1950   -0.3870 cp        1 STO     -0.049000
     23 C23         2.3080   -0.2170   -1.7960 cp        1 STO     -0.077000
     24 C24        -1.3660   -0.8870   -1.9360 c3        1 STO      0.296500
     25 C25        -2.3020    0.2770   -2.4110 c3        1 STO      0.099100
     26 C26        -2.6540    1.2570   -1.2710 c3        1 STO      0.164500
     27 C27        -3.3360    0.4290   -0.1770 c3        1 STO     -0.113400
     28 C28        -2.5050   -0.7830    0.2730 c3        1 STO      0.280800
     29 O29        -2.0100   -1.5430   -0.8280 os        1 STO     -0.413600
     30 O30         2.9670    0.0980    4.3340 o         1 STO     -0.626500
     31 N31        -1.5130    2.0090   -0.7790 n3        1 STO     -0.818200
     32 C32        -1.8500    3.2800   -0.1990 c3        1 STO      0.156100
     33 O33        -1.6680    0.9400   -3.4980 os        1 STO     -0.409600
     34 C34        -2.5770    1.5920   -4.3710 c3        1 STO      0.110700
     35 C35        -1.4050   -1.9940   -3.0220 c3        1 STO     -0.105100
     36 H1          4.4510    0.0230   -1.9210 ha        1 STO      0.133000
     37 H2          4.4510   -0.0410   -4.4230 ha        1 STO      0.132000
     38 H3          2.3240   -0.2610   -5.6780 ha        1 STO      0.130000
     39 H4          0.1440   -0.4310   -4.4980 ha        1 STO      0.145000
     40 H11        -3.7370   -0.7070    2.9720 ha        1 STO      0.129000
     41 H12        -3.4750   -0.5780    5.4440 ha        1 STO      0.128000
     42 H13        -1.2500   -0.2560    6.4840 ha        1 STO      0.134000
     43 H14         0.8140   -0.0580    5.0720 ha        1 STO      0.174000
     44 HN9         5.1780    0.1090    2.8800 hn        1 STO      0.319500
     45 H201        4.7480   -0.7520    0.6190 h1        1 STO      0.058700
     46 H202        4.5400    1.0580    0.4720 h1        1 STO      0.058700
     47 H25        -3.2600   -0.2090   -2.7560 h1        1 STO      0.057700
     48 H26        -3.4450    1.9620   -1.6850 h1        1 STO      0.026700
     49 H271       -3.5750    1.0730    0.7090 hc        1 STO      0.065700
     50 H272       -4.3010    0.0340   -0.5890 hc        1 STO      0.065700
     51 H28        -3.2070   -1.5310    0.7740 h2        1 STO      0.085700
     52 HN3        -0.8280    2.1150   -1.5060 hn        1 STO      0.387800
     53 H321       -0.9040    3.7610    0.1650 h1        1 STO      0.031033
     54 H322       -2.3600    3.9860   -0.9130 h1        1 STO      0.031033
     55 H323       -2.5320    3.1210    0.6780 h1        1 STO      0.031033
     56 H341       -1.9210    2.0410   -5.1590 h1        1 STO      0.039700
     57 H342       -3.2880    0.8570   -4.8230 h1        1 STO      0.039700
     58 H343       -3.1430    2.3910   -3.8330 h1        1 STO      0.039700
     59 H351       -0.4850   -2.6240   -2.9960 hc        1 STO      0.062700
     60 H352       -2.2890   -2.6500   -2.8330 hc        1 STO      0.062700
     61 H353       -1.5070   -1.5240   -4.0280 hc        1 STO      0.062700
@<TRIPOS>BOND
     1    1    2 ar  
     2    1   23 ar  
     3    1   36 1   
     4    2    3 ar  
     5    2   37 1   
     6    3    4 ar  
     7    3   38 1   
     8    4    5 ar  
     9    4   39 1   
    10    5    6 1   
    11    5   23 ar  
    12    6    7 1   
    13    6   24 1   
    14    7    8 ar  
    15    7   22 ar  
    16    8    9 1   
    17    8   16 ar  
    18    9   10 1   
    19    9   28 1   
    20   10   11 ar  
    21   10   15 ar  
    22   11   12 ar  
    23   11   40 1   
    24   12   13 ar  
    25   12   41 1   
    26   13   14 ar  
    27   13   42 1   
    28   14   15 ar  
    29   14   43 1   
    30   15   16 1   
    31   16   17 ar  
    32   17   18 1   
    33   17   21 ar  
    34   18   19 1   
    35   18   30 2   
    36   19   20 1   
    37   19   44 1   
    38   20   21 1   
    39   20   45 1   
    40   20   46 1   
    41   21   22 ar  
    42   22   23 1   
    43   24   25 1   
    44   24   29 1   
    45   24   35 1   
    46   25   26 1   
    47   25   33 1   
    48   25   47 1   
    49   26   27 1   
    50   26   31 1   
    51   26   48 1   
    52   27   28 1   
    53   27   49 1   
    54   27   50 1   
    55   28   29 1   
    56   28   51 1   
    57   31   32 1   
    58   31   52 1   
    59   32   53 1   
    60   32   54 1   
    61   32   55 1   
    62   33   34 1   
    63   34   56 1   
    64   34   57 1   
    65   34   58 1   
    66   35   59 1   
    67   35   60 1   
    68   35   61 1   
@<TRIPOS>SUBSTRUCTURE
     1 STO         1 TEMP              0 ****  ****    0 ROOT
