@<TRIPOS>MOLECULE
STO
   62    69     1     0     0
SMALL
bcc


@<TRIPOS>ATOM
      1 C1         -0.1010    0.0730   -0.1380 ca        1 STO     -0.078000
      2 C2          1.2710   -0.1930   -0.2010 ca        1 STO     -0.127000
      3 C3          1.9680   -0.6150    0.9300 ca        1 STO     -0.103000
      4 C4          1.3320   -0.7740    2.1660 ca        1 STO     -0.133000
      5 C5         -0.0280   -0.4850    2.2520 ca        1 STO     -0.041200
      6 N6         -0.9230   -0.6530    3.3700 na        1 STO     -0.100300
      7 C7         -2.2030   -0.2550    2.8690 ca        1 STO     -0.052200
      8 C8         -3.4130   -0.2520    3.5340 ca        1 STO     -0.083200
      9 N9         -3.6740   -0.6380    4.8820 na        1 STO     -0.108300
     10 C10        -5.0630   -0.3340    5.0940 ca        1 STO     -0.045200
     11 C11        -5.8130   -0.4540    6.2590 ca        1 STO     -0.154000
     12 C12        -7.1840   -0.1810    6.1870 ca        1 STO     -0.089000
     13 C13        -7.7900    0.1960    4.9900 ca        1 STO     -0.136000
     14 C14        -7.0470    0.3230    3.8100 ca        1 STO     -0.051000
     15 C15        -5.6860    0.0670    3.8540 cp        1 STO     -0.073000
     16 C16        -4.6360    0.1230    2.8450 cp        1 STO      0.053000
     17 C17        -4.5650    0.4320    1.5090 ca        1 STO     -0.125600
     18 C18        -5.6270    0.8360    0.5300 c         1 STO      0.719100
     19 N19        -5.0060    0.9750   -0.7150 ns        1 STO     -0.576900
     20 C20        -3.5660    0.7900   -0.6300 c3        1 STO      0.133300
     21 C21        -3.3140    0.4090    0.8120 ca        1 STO     -0.048300
     22 C22        -2.1500    0.0760    1.4580 cp        1 STO     -0.024000
     23 C23        -0.7540   -0.0730    1.0740 cp        1 STO     -0.062000
     24 C24        -0.5250   -0.1850    4.7100 c3        1 STO      0.229500
     25 C25        -0.0280   -1.3780    5.6000 c3        1 STO      0.100100
     26 C26        -1.1850   -2.3350    5.9820 c3        1 STO      0.116500
     27 C27        -2.2480   -1.5200    6.7070 c3        1 STO     -0.131400
     28 C28        -2.7010   -0.2790    5.9120 c3        1 STO      0.214800
     29 O29        -1.5900    0.4710    5.4280 os        1 STO     -0.394600
     30 O30        -6.8350    1.0010    0.7390 o         1 STO     -0.605500
     31 N31        -1.7060   -3.0900    4.7910 ny        1 STO     -0.747000
     32 C32        -2.3040   -4.3890    5.1590 c3        1 STO      0.082100
     33 O33         0.9650   -2.1360    4.9320 os        1 STO     -0.432600
     34 C34         2.2280   -2.1660    5.5940 c3        1 STO      0.106700
     35 C35         0.5720    0.9010    4.7100 c3        1 STO     -0.106100
     36 H1         -0.6530    0.3880   -1.0360 ha        1 STO      0.148000
     37 H2          1.8030   -0.0730   -1.1570 ha        1 STO      0.152000
     38 H3          3.0460   -0.8310    0.8550 ha        1 STO      0.147000
     39 H4          1.8970   -1.1330    3.0390 ha        1 STO      0.145000
     40 H11        -5.3540   -0.7470    7.2130 ha        1 STO      0.132000
     41 H12        -7.7930   -0.2660    7.1020 ha        1 STO      0.147000
     42 H13        -8.8720    0.4020    4.9680 ha        1 STO      0.155000
     43 H14        -7.5290    0.6250    2.8620 ha        1 STO      0.189000
     44 HN9        -5.4280    1.4260   -1.4850 hn        1 STO      0.344500
     45 H201       -3.2400   -0.0310   -1.3280 h1        1 STO      0.071700
     46 H202       -3.0120    1.7330   -0.8980 h1        1 STO      0.071700
     47 H25         0.3580   -0.9270    6.5580 h1        1 STO      0.100700
     48 H26        -0.7650   -3.1140    6.6900 hx        1 STO      0.103700
     49 H271       -3.1350   -2.1530    6.9750 hc        1 STO      0.094700
     50 H272       -1.7910   -1.1550    7.6670 hc        1 STO      0.094700
     51 H28        -3.1750    0.4570    6.6440 h2        1 STO      0.118700
     52 HN3        -2.4100   -2.5240    4.2970 hn        1 STO      0.478800
     53 H321       -2.7070   -4.8800    4.2310 hx        1 STO      0.102700
     54 H322       -1.5270   -5.0510    5.6250 hx        1 STO      0.102700
     55 H323       -3.1440   -4.2260    5.8870 hx        1 STO      0.102700
     56 H341        2.6430   -1.1330    5.6860 h1        1 STO      0.057367
     57 H342        2.8660   -2.7900    4.9190 h1        1 STO      0.057367
     58 H343        2.1290   -2.6400    6.6010 h1        1 STO      0.057367
     59 H351        1.5530    0.4430    4.4460 hc        1 STO      0.073033
     60 H352        0.6320    1.3590    5.7270 hc        1 STO      0.073033
     61 H353        0.3230    1.7050    3.9760 hc        1 STO      0.073033
     62 H312       -0.9120   -3.2420    4.1480 hn        1 STO      0.478800
@<TRIPOS>BOND
     1    1    2 ar  
     2    1   23 ar  
     3    1   36 1   
     4    2    3 ar  
     5    2   37 1   
     6    3    4 ar  
     7    3   38 1   
     8    4    5 ar  
     9    4   39 1   
    10    5    6 1   
    11    5   23 ar  
    12    6    7 1   
    13    6   24 1   
    14    7    8 ar  
    15    7   22 ar  
    16    8    9 1   
    17    8   16 ar  
    18    9   10 1   
    19    9   28 1   
    20   10   11 ar  
    21   10   15 ar  
    22   11   12 ar  
    23   11   40 1   
    24   12   13 ar  
    25   12   41 1   
    26   13   14 ar  
    27   13   42 1   
    28   14   15 ar  
    29   14   43 1   
    30   15   16 1   
    31   16   17 ar  
    32   17   18 1   
    33   17   21 ar  
    34   18   19 1   
    35   18   30 2   
    36   19   20 1   
    37   19   44 1   
    38   20   21 1   
    39   20   45 1   
    40   20   46 1   
    41   21   22 ar  
    42   22   23 1   
    43   24   25 1   
    44   24   29 1   
    45   24   35 1   
    46   25   26 1   
    47   25   33 1   
    48   25   47 1   
    49   26   27 1   
    50   26   31 1   
    51   26   48 1   
    52   27   28 1   
    53   27   49 1   
    54   27   50 1   
    55   28   29 1   
    56   28   51 1   
    57   31   32 1   
    58   31   52 1   
    59   31   62 1   
    60   32   53 1   
    61   32   54 1   
    62   32   55 1   
    63   33   34 1   
    64   34   56 1   
    65   34   57 1   
    66   34   58 1   
    67   35   59 1   
    68   35   60 1   
    69   35   61 1   
@<TRIPOS>SUBSTRUCTURE
     1 STO         1 TEMP              0 ****  ****    0 ROOT
