@<TRIPOS>MOLECULE
STO
   62    69     1     0     0
SMALL
bcc


@<TRIPOS>ATOM
      1 C1         -0.1110    0.0460   -0.1490 ca        1 STO     -0.078000
      2 C2          1.2610   -0.2190   -0.2130 ca        1 STO     -0.127000
      3 C3          1.9610   -0.6330    0.9190 ca        1 STO     -0.103000
      4 C4          1.3280   -0.7830    2.1570 ca        1 STO     -0.133000
      5 C5         -0.0310   -0.4940    2.2450 ca        1 STO     -0.041200
      6 N6         -0.9240   -0.6550    3.3660 na        1 STO     -0.100300
      7 C7         -2.2050   -0.2610    2.8660 ca        1 STO     -0.052200
      8 C8         -3.4140   -0.2540    3.5330 ca        1 STO     -0.083200
      9 N9         -3.6710   -0.6310    4.8850 na        1 STO     -0.108300
     10 C10        -5.0600   -0.3260    5.0980 ca        1 STO     -0.045200
     11 C11        -5.8060   -0.4370    6.2670 ca        1 STO     -0.154000
     12 C12        -7.1780   -0.1670    6.1960 ca        1 STO     -0.089000
     13 C13        -7.7870    0.2020    4.9980 ca        1 STO     -0.136000
     14 C14        -7.0470    0.3210    3.8150 ca        1 STO     -0.051000
     15 C15        -5.6860    0.0660    3.8580 cp        1 STO     -0.073000
     16 C16        -4.6390    0.1150    2.8460 cp        1 STO      0.053000
     17 C17        -4.5710    0.4150    1.5070 ca        1 STO     -0.125600
     18 C18        -5.6350    0.8110    0.5270 c         1 STO      0.719100
     19 N19        -5.0180    0.9410   -0.7200 n         1 STO     -0.576900
     20 C20        -3.5770    0.7580   -0.6370 c3        1 STO      0.133300
     21 C21        -3.3220    0.3880    0.8070 ca        1 STO     -0.048300
     22 C22        -2.1560    0.0590    1.4530 cp        1 STO     -0.024000
     23 C23        -0.7610   -0.0910    1.0650 cp        1 STO     -0.062000
     24 C24        -0.5220   -0.1770    4.7020 c3        1 STO      0.229500
     25 C25        -0.0230   -1.3630    5.5990 c3        1 STO      0.100100
     26 C26        -1.1780   -2.3180    5.9910 c3        1 STO      0.116500
     27 C27        -2.2400   -1.4990    6.7120 c3        1 STO     -0.131400
     28 C28        -2.6960   -0.2640    5.9110 c3        1 STO      0.214800
     29 O29        -1.5860    0.4830    5.4180 os        1 STO     -0.394600
     30 O30        -6.8440    0.9770    0.7390 o         1 STO     -0.605500
     31 N31        -1.7020   -3.0820    4.8070 n4        1 STO     -0.747000
     32 C32        -2.2990   -4.3790    5.1860 c3        1 STO      0.082100
     33 O33         0.9690   -2.1260    4.9340 os        1 STO     -0.432600
     34 C34         2.2330   -2.1500    5.5930 c3        1 STO      0.106700
     35 C35         0.5740    0.9100    4.6920 c3        1 STO     -0.106100
     36 H1         -0.6660    0.3550   -1.0480 ha        1 STO      0.148000
     37 H2          1.7910   -0.1060   -1.1720 ha        1 STO      0.152000
     38 H3          3.0390   -0.8490    0.8420 ha        1 STO      0.147000
     39 H4          1.8960   -1.1350    3.0320 ha        1 STO      0.145000
     40 H11        -5.3450   -0.7230    7.2210 ha        1 STO      0.132000
     41 H12        -7.7840   -0.2450    7.1130 ha        1 STO      0.147000
     42 H13        -8.8700    0.4070    4.9770 ha        1 STO      0.155000
     43 H14        -7.5310    0.6150    2.8660 ha        1 STO      0.189000
     44 HN9        -5.4420    1.3870   -1.4920 hn        1 STO      0.344500
     45 H201       -3.2530   -0.0680   -1.3300 h1        1 STO      0.071700
     46 H202       -3.0250    1.6990   -0.9130 h1        1 STO      0.071700
     47 H25         0.3660   -0.9060    6.5530 h1        1 STO      0.100700
     48 H26        -0.7560   -3.0920    6.7030 hx        1 STO      0.103700
     49 H271       -1.7810   -1.1270    7.6690 hc        1 STO      0.094700
     50 H272       -3.1250   -2.1300    6.9870 hc        1 STO      0.094700
     51 H28        -3.1680    0.4770    6.6380 h2        1 STO      0.118700
     52 HN3        -2.4080   -2.5200    4.3100 hn        1 STO      0.478800
     53 H321       -3.1370   -4.2110    5.9150 hx        1 STO      0.102700
     54 H322       -1.5200   -5.0380    5.6550 hx        1 STO      0.102700
     55 H323       -2.7030   -4.8770    4.2630 hx        1 STO      0.102700
     56 H341        2.8700   -2.7800    4.9210 h1        1 STO      0.057367
     57 H342        2.6490   -1.1170    5.6770 h1        1 STO      0.057367
     58 H343        2.1370   -2.6180    6.6030 h1        1 STO      0.057367
     59 H351        0.3230    1.7080    3.9530 hc        1 STO      0.073033
     60 H352        1.5540    0.4500    4.4280 hc        1 STO      0.073033
     61 H353        0.6360    1.3740    5.7050 hc        1 STO      0.073033
     62 H312       -0.9100   -3.2380    4.1630 hn        1 STO      0.478800
@<TRIPOS>BOND
     1    1    2 ar  
     2    1   23 ar  
     3    1   36 1   
     4    2    3 ar  
     5    2   37 1   
     6    3    4 ar  
     7    3   38 1   
     8    4    5 ar  
     9    4   39 1   
    10    5    6 1   
    11    5   23 ar  
    12    6    7 1   
    13    6   24 1   
    14    7    8 ar  
    15    7   22 ar  
    16    8    9 1   
    17    8   16 ar  
    18    9   10 1   
    19    9   28 1   
    20   10   11 ar  
    21   10   15 ar  
    22   11   12 ar  
    23   11   40 1   
    24   12   13 ar  
    25   12   41 1   
    26   13   14 ar  
    27   13   42 1   
    28   14   15 ar  
    29   14   43 1   
    30   15   16 1   
    31   16   17 ar  
    32   17   18 1   
    33   17   21 ar  
    34   18   19 1   
    35   18   30 2   
    36   19   20 1   
    37   19   44 1   
    38   20   21 1   
    39   20   45 1   
    40   20   46 1   
    41   21   22 ar  
    42   22   23 1   
    43   24   25 1   
    44   24   29 1   
    45   24   35 1   
    46   25   26 1   
    47   25   33 1   
    48   25   47 1   
    49   26   27 1   
    50   26   31 1   
    51   26   48 1   
    52   27   28 1   
    53   27   49 1   
    54   27   50 1   
    55   28   29 1   
    56   28   51 1   
    57   31   32 1   
    58   31   52 1   
    59   31   62 1   
    60   32   53 1   
    61   32   54 1   
    62   32   55 1   
    63   33   34 1   
    64   34   56 1   
    65   34   57 1   
    66   34   58 1   
    67   35   59 1   
    68   35   60 1   
    69   35   61 1   
@<TRIPOS>SUBSTRUCTURE
     1 STO         1 TEMP              0 ****  ****    0 ROOT
