@<TRIPOS>MOLECULE
STP
   43    45     1     0     0
SMALL
bcc


@<TRIPOS>ATOM
      1 PG          4.5500    5.7440   -6.8440 p5        1 STP      1.602800
      2 O1G         3.5820    6.9480   -6.3160 oh        1 STP     -0.801400
      3 O2G         5.1780    5.1300   -5.6500 o         1 STP     -0.884000
      4 O3G         5.2880    6.2340   -8.0200 o         1 STP     -0.884000
      5 PB          2.2800    3.4970   -7.3910 p5        1 STP      1.696800
      6 O1B         0.9160    3.9970   -7.2130 o         1 STP     -0.860000
      7 O2B         2.7090    2.5470   -8.4190 o         1 STP     -0.860000
      8 O3B         3.3400    4.6930   -7.2130 os        1 STP     -0.830800
      9 PA          3.1400    2.0520   -4.5530 p5        1 STP      1.555200
     10 S1A         3.1030    0.1610   -4.3070 s         1 STP     -0.801000
     11 O2A         4.5610    2.6510   -4.2290 oh        1 STP     -0.834400
     12 O3A         2.6930    2.7020   -5.8610 os        1 STP     -0.775800
     13 O5'         2.2700    2.7790   -3.3990 os        1 STP     -0.574200
     14 C5'         2.6500    2.5540   -2.0630 c3        1 STP      0.171400
     15 C4'         1.4240    2.2310   -1.1970 c3        1 STP      0.091100
     16 O4'         1.7960    2.5490    0.1560 os        1 STP     -0.440600
     17 C3'         1.0210    0.7410   -1.2400 c3        1 STP      0.122100
     18 O3'        -0.3790    0.5830   -1.2420 oh        1 STP     -0.624800
     19 C2'         1.6570    0.1570    0.0270 c3        1 STP     -0.138400
     20 C1'         1.7980    1.3630    0.9870 c3        1 STP      0.262800
     21 N9          0.7660    1.4260    1.9880 nh        1 STP     -0.264200
     22 C8         -0.6310    1.2100    1.7870 c1        1 STP      0.067400
     23 N7         -1.3280    1.4170    2.9260 ne        1 STP     -0.674800
     24 C5         -0.4080    1.7890    3.9050 ca        1 STP     -0.122200
     25 C6         -0.5220    2.1360    5.2760 ca        1 STP      0.568200
     26 N6         -1.7830    2.0460    5.9270 nh        1 STP     -0.897500
     27 N1          0.5940    2.5040    5.9890 nb        1 STP     -0.782000
     28 C2          1.7790    2.4750    5.3320 ca        1 STP      0.574900
     29 N3          2.0580    2.1510    4.0420 nb        1 STP     -0.722000
     30 C4          0.9570    1.8170    3.3240 ca        1 STP      0.383800
     31 HOA2        4.8610    3.4770   -4.6490 ho        1 STP      0.553000
     32 H5'1        3.3940    1.7110   -2.0170 h1        1 STP      0.048700
     33 H5'2        3.1190    3.5000   -1.6700 h1        1 STP      0.048700
     34 H4'         0.5630    2.8940   -1.4710 h1        1 STP      0.086700
     35 H3'         1.3830    0.2370   -2.1820 h1        1 STP      0.131700
     36 HO3'       -0.7120    0.8800   -0.3720 ho        1 STP      0.446000
     37 H2'1        1.0240   -0.6570    0.4510 hc        1 STP      0.063200
     38 H2'2        2.6720   -0.2460   -0.2030 hc        1 STP      0.063200
     39 H1'         2.8040    1.3760    1.5000 h2        1 STP      0.066700
     40 H8          2.8090    6.6410   -5.8610 ho        1 STP      0.431000
     41 HN61       -2.5200    2.0360    5.2500 hn        1 STP      0.364300
     42 HN62       -1.9210    2.7840    6.5870 hn        1 STP      0.364300
     43 H2          2.6560    2.7680    5.9410 h5        1 STP      0.005100
@<TRIPOS>BOND
     1    1    2 1   
     2    1    3 1   
     3    1    4 1   
     4    1    8 1   
     5    2   40 1   
     6    5    6 1   
     7    5    7 1   
     8    5    8 1   
     9    5   12 1   
    10    9   10 2   
    11    9   11 1   
    12    9   12 1   
    13    9   13 1   
    14   11   31 1   
    15   13   14 1   
    16   14   15 1   
    17   14   32 1   
    18   14   33 1   
    19   15   16 1   
    20   15   17 1   
    21   15   34 1   
    22   16   20 1   
    23   17   18 1   
    24   17   19 1   
    25   17   35 1   
    26   18   36 1   
    27   19   20 1   
    28   19   37 1   
    29   19   38 1   
    30   20   21 1   
    31   20   39 1   
    32   21   22 2   
    33   21   30 1   
    34   22   23 2   
    35   23   24 1   
    36   24   25 ar  
    37   24   30 ar  
    38   25   26 1   
    39   25   27 ar  
    40   26   41 1   
    41   26   42 1   
    42   27   28 ar  
    43   28   29 ar  
    44   28   43 1   
    45   29   30 ar  
@<TRIPOS>SUBSTRUCTURE
     1 STP         1 TEMP              0 ****  ****    0 ROOT
