@<TRIPOS>MOLECULE
STP
   43    45     1     0     0
SMALL
bcc


@<TRIPOS>ATOM
      1 PG         -3.6550    0.7210   -3.2270 p5        1 STP      1.602800
      2 O1G        -2.7330   -0.6100   -3.0200 oh        1 STP     -0.801400
      3 O2G        -3.7670    1.3870   -1.9070 o         1 STP     -0.884000
      4 O3G        -4.7970    0.3570   -4.0810 o         1 STP     -0.884000
      5 PB         -1.4210    2.6620   -4.5460 p5        1 STP      1.696800
      6 O1B        -0.1520    1.9850   -4.8170 o         1 STP     -0.860000
      7 O2B        -2.0380    3.6820   -5.3960 o         1 STP     -0.860000
      8 O3B        -2.5090    1.6130   -4.0000 os        1 STP     -0.830800
      9 PA         -1.0970    4.1470   -1.6170 p5        1 STP      1.555200
     10 S1A        -0.7340    6.0110   -1.4420 s         1 STP     -0.801000
     11 O2A        -2.3970    3.7320   -0.8290 oh        1 STP     -0.834400
     12 O3A        -1.1970    3.4720   -2.9840 os        1 STP     -0.775800
     13 O5'         0.0010    3.2870   -0.7990 os        1 STP     -0.574200
     14 C5'         0.1170    3.5320    0.5820 c3        1 STP      0.171400
     15 C4'         1.5920    3.6720    0.9870 c3        1 STP      0.091100
     16 O4'         1.6490    3.3770    2.3940 os        1 STP     -0.440600
     17 C3'         2.1500    5.0970    0.7780 c3        1 STP      0.122100
     18 O3'         3.4780    5.0690    0.3100 oh        1 STP     -0.624800
     19 C2'         2.0500    5.7310    2.1710 c3        1 STP     -0.138400
     20 C1'         2.0780    4.5350    3.1510 c3        1 STP      0.262800
     21 N9          3.3640    4.3140    3.7560 nh        1 STP     -0.264200
     22 C8          4.6320    4.3490    3.1010 c1        1 STP      0.067400
     23 N7          5.6330    4.0280    3.9500 ne        1 STP     -0.674800
     24 C5          5.0470    3.7590    5.1860 ca        1 STP     -0.122200
     25 C6          5.5600    3.3710    6.4500 ca        1 STP      0.568200
     26 N6          6.9660    3.2800    6.6460 nv        1 STP     -0.897500
     27 N1          4.7050    3.1380    7.5000 nb        1 STP     -0.782000
     28 C2          3.3840    3.3360    7.2710 ca        1 STP      0.574900
     29 N3          2.7400    3.7210    6.1380 nb        1 STP     -0.722000
     30 C4          3.5760    3.9240    5.0890 ca        1 STP      0.383800
     31 HOA2       -2.9240    2.9620   -1.1070 ho        1 STP      0.553000
     32 H5'1       -0.4530    4.4640    0.8510 h1        1 STP      0.048700
     33 H5'2       -0.3150    2.6470    1.1300 h1        1 STP      0.048700
     34 H4'         2.2190    2.9070    0.4600 h1        1 STP      0.086700
     35 H3'         1.5660    5.6640   -0.0030 h1        1 STP      0.131700
     36 HO3'        4.0370    4.7120    1.0280 ho        1 STP      0.446000
     37 H2'1        2.8890    6.4460    2.3430 hc        1 STP      0.063200
     38 H2'2        1.0790    6.2700    2.2800 hc        1 STP      0.063200
     39 H1'         1.3050    4.6430    3.9670 h2        1 STP      0.066700
     40 H8         -1.8200   -0.4170   -2.8530 ho        1 STP      0.431000
     41 HN61        7.4330    3.2080    5.7630 hn        1 STP      0.364300
     42 HN62        7.2160    2.5160    7.2410 hn        1 STP      0.364300
     43 H2          2.7270    3.1480    8.1420 h5        1 STP      0.005100
@<TRIPOS>BOND
     1    1    2 1   
     2    1    3 1   
     3    1    4 1   
     4    1    8 1   
     5    2   40 1   
     6    5    6 1   
     7    5    7 1   
     8    5    8 1   
     9    5   12 1   
    10    9   10 2   
    11    9   11 1   
    12    9   12 1   
    13    9   13 1   
    14   11   31 1   
    15   13   14 1   
    16   14   15 1   
    17   14   32 1   
    18   14   33 1   
    19   15   16 1   
    20   15   17 1   
    21   15   34 1   
    22   16   20 1   
    23   17   18 1   
    24   17   19 1   
    25   17   35 1   
    26   18   36 1   
    27   19   20 1   
    28   19   37 1   
    29   19   38 1   
    30   20   21 1   
    31   20   39 1   
    32   21   22 2   
    33   21   30 1   
    34   22   23 2   
    35   23   24 1   
    36   24   25 ar  
    37   24   30 ar  
    38   25   26 1   
    39   25   27 ar  
    40   26   41 1   
    41   26   42 1   
    42   27   28 ar  
    43   28   29 ar  
    44   28   43 1   
    45   29   30 ar  
@<TRIPOS>SUBSTRUCTURE
     1 STP         1 TEMP              0 ****  ****    0 ROOT
