@<TRIPOS>MOLECULE
STP
   43    45     1     0     0
SMALL
bcc


@<TRIPOS>ATOM
      1 PG         -3.6460    0.8270   -3.3000 p5        1 STP      1.602800
      2 O1G        -2.7260   -0.5090   -3.1210 oh        1 STP     -0.801400
      3 O2G        -3.7610    1.4630   -1.9660 o         1 STP     -0.884000
      4 O3G        -4.7870    0.4840   -4.1650 o         1 STP     -0.884000
      5 PB         -1.4070    2.7960   -4.5690 p5        1 STP      1.696800
      6 O1B        -0.1380    2.1240   -4.8510 o         1 STP     -0.860000
      7 O2B        -2.0210    3.8350   -5.3980 o         1 STP     -0.860000
      8 O3B        -2.4980    1.7350   -4.0490 os        1 STP     -0.830800
      9 PA         -1.0900    4.2140   -1.6070 p5        1 STP      1.555200
     10 S1A        -0.7270    6.0740   -1.3880 s         1 STP     -0.801000
     11 O2A        -2.3920    3.7830   -0.8310 oh        1 STP     -0.834400
     12 O3A        -1.1870    3.5700   -2.9890 os        1 STP     -0.775800
     13 O5'         0.0060    3.3360   -0.8050 os        1 STP     -0.574200
     14 C5'         0.1190    3.5500    0.5810 c3        1 STP      0.171400
     15 C4'         1.5920    3.6810    0.9920 c3        1 STP      0.091100
     16 O4'         1.6470    3.3550    2.3930 os        1 STP     -0.440600
     17 C3'         2.1510    5.1110    0.8170 c3        1 STP      0.122100
     18 O3'         3.4800    5.0930    0.3510 oh        1 STP     -0.624800
     19 C2'         2.0480    5.7140    2.2230 c3        1 STP     -0.138400
     20 C1'         2.0730    4.4950    3.1760 c3        1 STP      0.262800
     21 N9          3.3580    4.2620    3.7790 nh        1 STP     -0.264200
     22 C8          4.6280    4.3110    3.1280 c1        1 STP      0.067400
     23 N7          5.6260    3.9710    3.9720 ne        1 STP     -0.674800
     24 C5          5.0380    3.6740    5.2010 ca        1 STP     -0.122200
     25 C6          5.5480    3.2580    6.4570 ca        1 STP      0.568200
     26 N6          6.9530    3.1630    6.6540 nh        1 STP     -0.897500
     27 N1          4.6910    3.0020    7.5000 nb        1 STP     -0.782000
     28 C2          3.3700    3.2050    7.2720 ca        1 STP      0.574900
     29 N3          2.7290    3.6160    6.1460 nb        1 STP     -0.722000
     30 C4          3.5670    3.8410    5.1040 ca        1 STP      0.383800
     31 HOA2       -2.9190    3.0190   -1.1270 ho        1 STP      0.553000
     32 H5'1       -0.3150    2.6530    1.1080 h1        1 STP      0.048700
     33 H5'2       -0.4520    4.4760    0.8700 h1        1 STP      0.048700
     34 H4'         2.2210    2.9280    0.4500 h1        1 STP      0.086700
     35 H3'         1.5690    5.6950    0.0480 h1        1 STP      0.131700
     36 HO3'        4.0380    4.7200    1.0630 ho        1 STP      0.446000
     37 H2'1        2.8860    6.4240    2.4130 hc        1 STP      0.063200
     38 H2'2        1.0760    6.2490    2.3410 hc        1 STP      0.063200
     39 H1'         1.2980    4.5850    3.9930 h2        1 STP      0.066700
     40 H8         -1.8130   -0.3200   -2.9470 ho        1 STP      0.431000
     41 HN61        7.2020    2.3860    7.2330 hn        1 STP      0.364300
     42 HN62        7.4220    3.1100    5.7710 hn        1 STP      0.364300
     43 H2          2.7110    2.9980    8.1370 h5        1 STP      0.005100
@<TRIPOS>BOND
     1    1    2 1   
     2    1    3 1   
     3    1    4 1   
     4    1    8 1   
     5    2   40 1   
     6    5    6 1   
     7    5    7 1   
     8    5    8 1   
     9    5   12 1   
    10    9   10 2   
    11    9   11 1   
    12    9   12 1   
    13    9   13 1   
    14   11   31 1   
    15   13   14 1   
    16   14   15 1   
    17   14   32 1   
    18   14   33 1   
    19   15   16 1   
    20   15   17 1   
    21   15   34 1   
    22   16   20 1   
    23   17   18 1   
    24   17   19 1   
    25   17   35 1   
    26   18   36 1   
    27   19   20 1   
    28   19   37 1   
    29   19   38 1   
    30   20   21 1   
    31   20   39 1   
    32   21   22 2   
    33   21   30 1   
    34   22   23 2   
    35   23   24 1   
    36   24   25 ar  
    37   24   30 ar  
    38   25   26 1   
    39   25   27 ar  
    40   26   41 1   
    41   26   42 1   
    42   27   28 ar  
    43   28   29 ar  
    44   28   43 1   
    45   29   30 ar  
@<TRIPOS>SUBSTRUCTURE
     1 STP         1 TEMP              0 ****  ****    0 ROOT
