@<TRIPOS>MOLECULE
STP
   43    45     1     0     0
SMALL
bcc


@<TRIPOS>ATOM
      1 PG         -0.1910    0.7890   -0.9540 p5        1 STP      1.618800
      2 O1G         0.4650    1.2980    0.2800 o         1 STP     -0.901000
      3 O2G        -1.8020    0.8630   -0.6950 oh        1 STP     -0.811400
      4 O3G         0.1380   -0.5410   -1.5030 o         1 STP     -0.901000
      5 PB          0.1360    3.1290   -3.1890 p5        1 STP      1.732800
      6 O1B         1.4870    3.6560   -2.9100 o         1 STP     -0.894000
      7 O2B        -0.3340    2.6930   -4.5110 o         1 STP     -0.894000
      8 O3B        -0.1430    1.9750   -2.0700 os        1 STP     -0.842800
      9 PA         -1.7790    5.5100   -2.0560 p5        1 STP      2.019300
     10 S1A        -1.8130    7.1270   -3.1420 s         1 STP     -1.466000
     11 O2A        -3.0430    4.9920   -1.5180 o         1 STP     -0.850500
     12 O3A        -0.9070    4.3260   -2.6280 os        1 STP     -0.812800
     13 O5'        -0.8550    5.8810   -0.7380 os        1 STP     -0.583200
     14 C5'        -0.9690    5.0510    0.3750 c3        1 STP      0.190400
     15 C4'         0.3750    4.4100    0.7570 c3        1 STP      0.046100
     16 O4'         0.3180    4.2730    2.2070 os        1 STP     -0.415600
     17 C3'         1.6200    5.2550    0.4220 c3        1 STP      0.144100
     18 O3'         2.5900    4.5460   -0.3170 oh        1 STP     -0.654800
     19 C2'         2.2660    5.5800    1.7800 c3        1 STP     -0.117400
     20 C1'         1.5420    4.6700    2.7950 c3        1 STP      0.260800
     21 N9          2.3050    3.4910    3.2000 na        1 STP     -0.267000
     22 C8          2.3250    2.2050    2.6020 cc        1 STP      0.505700
     23 N7          3.1070    1.3300    3.2670 nd        1 STP     -0.614100
     24 C5          3.6260    2.0390    4.3560 ca        1 STP     -0.182200
     25 C6          4.4870    1.6760    5.4310 ca        1 STP      0.665200
     26 N6          5.0820    0.4050    5.4480 nh        1 STP     -0.921500
     27 N1          4.7730    2.5950    6.4070 nb        1 STP     -0.805000
     28 C2          4.2380    3.8400    6.2600 ca        1 STP      0.618900
     29 N3          3.4330    4.3380    5.2970 nb        1 STP     -0.716000
     30 C4          3.1180    3.4180    4.3350 ca        1 STP      0.412800
     31 HOA2       -2.1880    1.7010   -0.9200 ho        1 STP      0.438000
     32 H5'1       -1.3220    5.6790    1.2450 h1        1 STP      0.034700
     33 H5'2       -1.7230    4.2370    0.1840 h1        1 STP      0.034700
     34 H4'         0.4650    3.3590    0.3390 h1        1 STP      0.161700
     35 H3'         1.3230    6.1870   -0.1320 h1        1 STP      0.080700
     36 HO3'        2.1850    4.2650   -1.1650 ho        1 STP      0.496000
     37 H2'1        3.3670    5.4060    1.7440 hc        1 STP      0.053700
     38 H2'2        2.0750    6.6440    2.0580 hc        1 STP      0.053700
     39 H1'         1.2750    5.2220    3.7450 h2        1 STP      0.063700
     40 H8          1.7160    1.9760    1.6760 h5        1 STP      0.209800
     41 HN61        4.6160   -0.2510    4.8590 hn        1 STP      0.395800
     42 HN62        5.2960    0.0510    6.3530 hn        1 STP      0.395800
     43 H2          4.5080    4.5530    7.0640 h5        1 STP      0.016100
@<TRIPOS>BOND
     1    1    2 1   
     2    1    3 1   
     3    1    4 1   
     4    1    8 1   
     5    3   31 1   
     6    5    6 1   
     7    5    7 1   
     8    5    8 1   
     9    5   12 1   
    10    9   10 1   
    11    9   11 1   
    12    9   12 1   
    13    9   13 1   
    14   13   14 1   
    15   14   15 1   
    16   14   32 1   
    17   14   33 1   
    18   15   16 1   
    19   15   17 1   
    20   15   34 1   
    21   16   20 1   
    22   17   18 1   
    23   17   19 1   
    24   17   35 1   
    25   18   36 1   
    26   19   20 1   
    27   19   37 1   
    28   19   38 1   
    29   20   21 1   
    30   20   39 1   
    31   21   22 1   
    32   21   30 1   
    33   22   23 2   
    34   22   40 1   
    35   23   24 1   
    36   24   25 ar  
    37   24   30 ar  
    38   25   26 1   
    39   25   27 ar  
    40   26   41 1   
    41   26   42 1   
    42   27   28 ar  
    43   28   29 ar  
    44   28   43 1   
    45   29   30 ar  
@<TRIPOS>SUBSTRUCTURE
     1 STP         1 TEMP              0 ****  ****    0 ROOT
