@<TRIPOS>MOLECULE
STR
   53    56     1     0     0
SMALL
bcc


@<TRIPOS>ATOM
      1 C1          0.0100    0.0170    0.0170 c3        1 STR     -0.069400
      2 C2          1.5100    0.1890    0.0610 c3        1 STR     -0.182400
      3 C3          2.0240    0.1570    1.4720 c         1 STR      0.569300
      4 O3          2.9760    0.8550    1.8420 o         1 STR     -0.535100
      5 C4          1.3430   -0.7850    2.3690 ce        1 STR     -0.265200
      6 C5          0.2180   -1.4430    2.0380 c2        1 STR     -0.028400
      7 C6         -0.3600   -2.4520    2.9720 c3        1 STR     -0.054200
      8 C7         -1.8480   -2.2660    3.1670 c3        1 STR     -0.072400
      9 C8         -2.5630   -2.2450    1.8270 c3        1 STR     -0.050700
     10 C9         -2.0030   -1.1120    0.9530 c3        1 STR     -0.047700
     11 C10        -0.4840   -1.2600    0.7130 c3        1 STR     -0.015800
     12 C11        -2.7770   -0.9690   -0.3530 c3        1 STR     -0.074400
     13 C12        -4.2830   -0.8640   -0.1670 c3        1 STR     -0.067400
     14 C13        -4.8020   -2.0290    0.6600 c3        1 STR     -0.038000
     15 C14        -4.0460   -1.9990    2.0100 c3        1 STR     -0.061700
     16 C15        -4.8550   -2.9230    2.9090 c3        1 STR     -0.072400
     17 C16        -6.3040   -2.7290    2.4530 c3        1 STR     -0.075400
     18 C17        -6.2680   -1.9150    1.1470 c3        1 STR     -0.164700
     19 C18        -4.6360   -3.3340   -0.1000 c3        1 STR     -0.091100
     20 C19        -0.1590   -2.4640   -0.1670 c3        1 STR     -0.086100
     21 C20        -7.2780   -2.3890    0.1350 c         1 STR      0.576100
     22 O20        -7.6670   -3.5600    0.0690 o         1 STR     -0.533100
     23 C21        -7.8080   -1.3310   -0.7810 c3        1 STR     -0.204100
     24 H11        -0.4730    0.9080    0.5000 hc        1 STR      0.050200
     25 H12        -0.3170   -0.0030   -1.0570 hc        1 STR      0.050200
     26 H21         1.7970    1.1570   -0.4270 hc        1 STR      0.071700
     27 H22         2.0150   -0.6380   -0.5070 hc        1 STR      0.071700
     28 H4          1.8250   -0.9310    3.3500 ha        1 STR      0.148000
     29 H61        -0.1620   -3.4740    2.5430 hc        1 STR      0.056200
     30 H62         0.1540   -2.4040    3.9690 hc        1 STR      0.056200
     31 H71        -2.2530   -3.1030    3.7930 hc        1 STR      0.048200
     32 H72        -2.0430   -1.3090    3.7180 hc        1 STR      0.048200
     33 H8         -2.4020   -3.2350    1.3210 hc        1 STR      0.059700
     34 H9         -2.1450   -0.1530    1.5340 hc        1 STR      0.051700
     35 H111       -2.5530   -1.8420   -1.0210 hc        1 STR      0.044200
     36 H112       -2.4270   -0.0430   -0.8830 hc        1 STR      0.044200
     37 H121       -4.7740   -0.8570   -1.1750 hc        1 STR      0.041700
     38 H122       -4.5360    0.1020    0.3410 hc        1 STR      0.041700
     39 H14        -4.1570   -0.9560    2.4330 hc        1 STR      0.047700
     40 H151       -4.5360   -3.9870    2.7790 hc        1 STR      0.046200
     41 H152       -4.7260   -2.6560    3.9860 hc        1 STR      0.046200
     42 H161       -6.8940   -2.1820    3.2280 hc        1 STR      0.056700
     43 H162       -6.7950   -3.7200    2.2800 hc        1 STR      0.056700
     44 H17        -6.4840   -0.8360    1.3760 hc        1 STR      0.061700
     45 H181       -5.1900   -3.2790   -1.0700 hc        1 STR      0.043367
     46 H182       -3.5650   -3.5490   -0.3210 hc        1 STR      0.043367
     47 H183       -5.0580   -4.1820    0.4950 hc        1 STR      0.043367
     48 H191        0.9460   -2.6230   -0.2050 hc        1 STR      0.041033
     49 H192       -0.5240   -2.2980   -1.2080 hc        1 STR      0.041033
     50 H193       -0.6350   -3.3900    0.2360 hc        1 STR      0.041033
     51 H211       -6.9660   -0.7280   -1.1990 hc        1 STR      0.063700
     52 H212       -8.3880   -1.7870   -1.6200 hc        1 STR      0.063700
     53 H213       -8.4840   -0.6510   -0.2050 hc        1 STR      0.063700
@<TRIPOS>BOND
     1    1    2 1   
     2    1   11 1   
     3    1   24 1   
     4    1   25 1   
     5    2    3 1   
     6    2   26 1   
     7    2   27 1   
     8    3    4 2   
     9    3    5 1   
    10    5    6 2   
    11    5   28 1   
    12    6    7 1   
    13    6   11 1   
    14    7    8 1   
    15    7   29 1   
    16    7   30 1   
    17    8    9 1   
    18    8   31 1   
    19    8   32 1   
    20    9   10 1   
    21    9   15 1   
    22    9   33 1   
    23   10   11 1   
    24   10   12 1   
    25   10   34 1   
    26   11   20 1   
    27   12   13 1   
    28   12   35 1   
    29   12   36 1   
    30   13   14 1   
    31   13   37 1   
    32   13   38 1   
    33   14   15 1   
    34   14   18 1   
    35   14   19 1   
    36   15   16 1   
    37   15   39 1   
    38   16   17 1   
    39   16   40 1   
    40   16   41 1   
    41   17   18 1   
    42   17   42 1   
    43   17   43 1   
    44   18   21 1   
    45   18   44 1   
    46   19   45 1   
    47   19   46 1   
    48   19   47 1   
    49   20   48 1   
    50   20   49 1   
    51   20   50 1   
    52   21   22 2   
    53   21   23 1   
    54   23   51 1   
    55   23   52 1   
    56   23   53 1   
@<TRIPOS>SUBSTRUCTURE
     1 STR         1 TEMP              0 ****  ****    0 ROOT
