@<TRIPOS>MOLECULE
STR
   53    56     1     0     0
SMALL
bcc


@<TRIPOS>ATOM
      1 C1          1.6030   -0.2510   -2.8490 c3        1 STR     -0.069400
      2 C2          1.6000   -0.0170   -4.3420 c3        1 STR     -0.182400
      3 C3          0.3030   -0.4520   -4.9620 c         1 STR      0.569300
      4 O3          0.2490   -0.9570   -6.0900 o         1 STR     -0.535100
      5 C4         -0.8960   -0.2000   -4.1540 ce        1 STR     -0.265200
      6 C5         -0.8560    0.2080   -2.8740 c2        1 STR     -0.028400
      7 C6         -2.1200    0.5290   -2.1520 c3        1 STR     -0.054200
      8 C7         -2.1780   -0.1130   -0.7830 c3        1 STR     -0.072400
      9 C8         -0.9450    0.2460    0.0270 c3        1 STR     -0.050700
     10 C9          0.3200   -0.2120   -0.7150 c3        1 STR     -0.047700
     11 C10         0.4330    0.4250   -2.1180 c3        1 STR     -0.015800
     12 C11         1.5780    0.0120    0.1170 c3        1 STR     -0.074400
     13 C12         1.4940   -0.5610    1.5240 c3        1 STR     -0.067400
     14 C13         0.2560   -0.0440    2.2390 c3        1 STR     -0.038000
     15 C14        -0.9650   -0.4410    1.3760 c3        1 STR     -0.061700
     16 C15        -2.1560   -0.2400    2.3030 c3        1 STR     -0.072400
     17 C16        -1.6250   -0.6020    3.6930 c3        1 STR     -0.075400
     18 C17        -0.0960   -0.7420    3.5760 c3        1 STR     -0.164700
     19 C18         0.3690    1.4520    2.4800 c3        1 STR     -0.091100
     20 C19         0.6940    1.9270   -2.0450 c3        1 STR     -0.086100
     21 C20         0.6350   -0.1720    4.7640 c         1 STR      0.576100
     22 O20         0.1960    0.7640    5.4400 o         1 STR     -0.533100
     23 C21         1.9330   -0.8410    5.0950 c3        1 STR     -0.204100
     24 H11         1.5680   -1.3560   -2.6550 hc        1 STR      0.050200
     25 H12         2.5690    0.1340   -2.4290 hc        1 STR      0.050200
     26 H21         2.4530   -0.5710   -4.8160 hc        1 STR      0.071700
     27 H22         1.7400    1.0750   -4.5670 hc        1 STR      0.071700
     28 H4         -1.8550   -0.3620   -4.6750 ha        1 STR      0.148000
     29 H61        -3.0100    0.2020   -2.7530 hc        1 STR      0.056200
     30 H62        -2.1830    1.6480   -2.0440 hc        1 STR      0.056200
     31 H71        -2.2530   -1.2270   -0.8880 hc        1 STR      0.048200
     32 H72        -3.0960    0.2360   -0.2410 hc        1 STR      0.048200
     33 H8         -0.9230    1.3610    0.1690 hc        1 STR      0.059700
     34 H9          0.2170   -1.3260   -0.8750 hc        1 STR      0.051700
     35 H111        2.4490   -0.4700   -0.4020 hc        1 STR      0.044200
     36 H112        1.7940    1.1100    0.1850 hc        1 STR      0.044200
     37 H121        1.4630   -1.6810    1.4770 hc        1 STR      0.041700
     38 H122        2.4170   -0.2710    2.0900 hc        1 STR      0.041700
     39 H14        -0.8900   -1.5520    1.1800 hc        1 STR      0.047700
     40 H151       -3.0130   -0.8940    2.0100 hc        1 STR      0.046200
     41 H152       -2.5090    0.8200    2.2760 hc        1 STR      0.046200
     42 H161       -2.0690   -1.5630    4.0500 hc        1 STR      0.056700
     43 H162       -1.8860    0.1970    4.4320 hc        1 STR      0.056700
     44 H17         0.1730   -1.8310    3.4910 hc        1 STR      0.061700
     45 H181        1.2800    1.6680    3.0910 hc        1 STR      0.043367
     46 H182        0.4480    2.0190    1.5230 hc        1 STR      0.043367
     47 H183       -0.5240    1.8200    3.0430 hc        1 STR      0.043367
     48 H191        0.6320    2.3760   -3.0660 hc        1 STR      0.041033
     49 H192       -0.0580    2.4290   -1.3910 hc        1 STR      0.041033
     50 H193        1.7140    2.1280   -1.6360 hc        1 STR      0.041033
     51 H211        2.5050   -0.2450    5.8470 hc        1 STR      0.063700
     52 H212        1.7260   -1.8530    5.5210 hc        1 STR      0.063700
     53 H213        2.5500   -0.9590    4.1720 hc        1 STR      0.063700
@<TRIPOS>BOND
     1    1    2 1   
     2    1   11 1   
     3    1   24 1   
     4    1   25 1   
     5    2    3 1   
     6    2   26 1   
     7    2   27 1   
     8    3    4 2   
     9    3    5 1   
    10    5    6 2   
    11    5   28 1   
    12    6    7 1   
    13    6   11 1   
    14    7    8 1   
    15    7   29 1   
    16    7   30 1   
    17    8    9 1   
    18    8   31 1   
    19    8   32 1   
    20    9   10 1   
    21    9   15 1   
    22    9   33 1   
    23   10   11 1   
    24   10   12 1   
    25   10   34 1   
    26   11   20 1   
    27   12   13 1   
    28   12   35 1   
    29   12   36 1   
    30   13   14 1   
    31   13   37 1   
    32   13   38 1   
    33   14   15 1   
    34   14   18 1   
    35   14   19 1   
    36   15   16 1   
    37   15   39 1   
    38   16   17 1   
    39   16   40 1   
    40   16   41 1   
    41   17   18 1   
    42   17   42 1   
    43   17   43 1   
    44   18   21 1   
    45   18   44 1   
    46   19   45 1   
    47   19   46 1   
    48   19   47 1   
    49   20   48 1   
    50   20   49 1   
    51   20   50 1   
    52   21   22 2   
    53   21   23 1   
    54   23   51 1   
    55   23   52 1   
    56   23   53 1   
@<TRIPOS>SUBSTRUCTURE
     1 STR         1 TEMP              0 ****  ****    0 ROOT
