@<TRIPOS>MOLECULE
STR
   53    56     1     0     0
SMALL
bcc


@<TRIPOS>ATOM
      1 C1          0.0150    0.0110    0.0180 c3        1 STR     -0.069400
      2 C2          1.5150    0.1830    0.0680 c3        1 STR     -0.182400
      3 C3          2.0230    0.1570    1.4810 c         1 STR      0.569300
      4 O3          2.9740    0.8560    1.8520 o         1 STR     -0.535100
      5 C4          1.3380   -0.7810    2.3780 ce        1 STR     -0.265200
      6 C5          0.2150   -1.4400    2.0460 c2        1 STR     -0.028400
      7 C6         -0.3660   -2.4460    2.9810 c3        1 STR     -0.054200
      8 C7         -1.8560   -2.2590    3.1700 c3        1 STR     -0.072400
      9 C8         -2.5660   -2.2430    1.8270 c3        1 STR     -0.050700
     10 C9         -2.0020   -1.1140    0.9510 c3        1 STR     -0.047700
     11 C10        -0.4820   -1.2630    0.7180 c3        1 STR     -0.015800
     12 C11        -2.7710   -0.9750   -0.3590 c3        1 STR     -0.074400
     13 C12        -4.2770   -0.8700   -0.1790 c3        1 STR     -0.067400
     14 C13        -4.8000   -2.0310    0.6510 c3        1 STR     -0.038000
     15 C14        -4.0500   -1.9970    2.0030 c3        1 STR     -0.061700
     16 C15        -4.8620   -2.9180    2.9030 c3        1 STR     -0.072400
     17 C16        -6.3090   -2.7250    2.4410 c3        1 STR     -0.075400
     18 C17        -6.2680   -1.9160    1.1310 c3        1 STR     -0.164700
     19 C18        -4.6310   -3.3400   -0.1030 c3        1 STR     -0.091100
     20 C19        -0.1540   -2.4710   -0.1560 c3        1 STR     -0.086100
     21 C20        -7.2730   -2.3940    0.1170 c         1 STR      0.576100
     22 O20        -7.6620   -3.5650    0.0540 o         1 STR     -0.533100
     23 C21        -7.8000   -1.3390   -0.8050 c3        1 STR     -0.204100
     24 H11        -0.3080   -0.0120   -1.0560 hc        1 STR      0.050200
     25 H12        -0.4690    0.9040    0.4960 hc        1 STR      0.050200
     26 H21         2.0220   -0.6460   -0.4950 hc        1 STR      0.071700
     27 H22         1.8040    1.1500   -0.4230 hc        1 STR      0.071700
     28 H4          1.8170   -0.9240    3.3620 ha        1 STR      0.148000
     29 H61         0.1430   -2.3940    3.9800 hc        1 STR      0.056200
     30 H62        -0.1680   -3.4690    2.5570 hc        1 STR      0.056200
     31 H71        -2.0530   -1.3000    3.7160 hc        1 STR      0.048200
     32 H72        -2.2630   -3.0940    3.7980 hc        1 STR      0.048200
     33 H8         -2.4020   -3.2360    1.3250 hc        1 STR      0.059700
     34 H9         -2.1470   -0.1530    1.5280 hc        1 STR      0.051700
     35 H111       -2.4190   -0.0520   -0.8910 hc        1 STR      0.044200
     36 H112       -2.5440   -1.8510   -1.0220 hc        1 STR      0.044200
     37 H121       -4.7640   -0.8670   -1.1890 hc        1 STR      0.041700
     38 H122       -4.5330    0.0990    0.3250 hc        1 STR      0.041700
     39 H14        -4.1620   -0.9520    2.4210 hc        1 STR      0.047700
     40 H151       -4.5430   -3.9820    2.7780 hc        1 STR      0.046200
     41 H152       -4.7370   -2.6470    3.9790 hc        1 STR      0.046200
     42 H161       -6.9020   -2.1750    3.2100 hc        1 STR      0.056700
     43 H162       -6.7990   -3.7170    2.2690 hc        1 STR      0.056700
     44 H17        -6.4840   -0.8360    1.3550 hc        1 STR      0.061700
     45 H181       -5.1810   -3.2890   -1.0760 hc        1 STR      0.043367
     46 H182       -3.5590   -3.5560   -0.3200 hc        1 STR      0.043367
     47 H183       -5.0550   -4.1860    0.4920 hc        1 STR      0.043367
     48 H191        0.9520   -2.6290   -0.1890 hc        1 STR      0.041033
     49 H192       -0.5150   -2.3090   -1.2000 hc        1 STR      0.041033
     50 H193       -0.6310   -3.3940    0.2480 hc        1 STR      0.041033
     51 H211       -8.4780   -0.6580   -0.2340 hc        1 STR      0.063700
     52 H212       -8.3760   -1.7980   -1.6450 hc        1 STR      0.063700
     53 H213       -6.9570   -0.7380   -1.2220 hc        1 STR      0.063700
@<TRIPOS>BOND
     1    1    2 1   
     2    1   11 1   
     3    1   24 1   
     4    1   25 1   
     5    2    3 1   
     6    2   26 1   
     7    2   27 1   
     8    3    4 2   
     9    3    5 1   
    10    5    6 2   
    11    5   28 1   
    12    6    7 1   
    13    6   11 1   
    14    7    8 1   
    15    7   29 1   
    16    7   30 1   
    17    8    9 1   
    18    8   31 1   
    19    8   32 1   
    20    9   10 1   
    21    9   15 1   
    22    9   33 1   
    23   10   11 1   
    24   10   12 1   
    25   10   34 1   
    26   11   20 1   
    27   12   13 1   
    28   12   35 1   
    29   12   36 1   
    30   13   14 1   
    31   13   37 1   
    32   13   38 1   
    33   14   15 1   
    34   14   18 1   
    35   14   19 1   
    36   15   16 1   
    37   15   39 1   
    38   16   17 1   
    39   16   40 1   
    40   16   41 1   
    41   17   18 1   
    42   17   42 1   
    43   17   43 1   
    44   18   21 1   
    45   18   44 1   
    46   19   45 1   
    47   19   46 1   
    48   19   47 1   
    49   20   48 1   
    50   20   49 1   
    51   20   50 1   
    52   21   22 2   
    53   21   23 1   
    54   23   51 1   
    55   23   52 1   
    56   23   53 1   
@<TRIPOS>SUBSTRUCTURE
     1 STR         1 TEMP              0 ****  ****    0 ROOT
