@<TRIPOS>MOLECULE
STS
   35    37     1     0     0
SMALL
bcc


@<TRIPOS>ATOM
      1 S10         3.4010    2.2910   -1.1340 sh        1 STS     -0.360900
      2 C2          1.6530    2.3710   -0.8420 c3        1 STS     -0.000300
      3 C1          1.1910    0.9610   -0.5240 c3        1 STS     -0.073000
      4 C11        -0.3130    0.8810   -0.4890 cc        1 STS      0.486800
      5 N13        -1.1910    1.8590   -0.7970 nd        1 STS     -0.527100
      6 C15        -2.4630    1.2840   -0.6400 cd        1 STS      0.033400
      7 C14        -2.3170   -0.1160   -0.2090 cd        1 STS      0.055000
      8 N12        -0.9640   -0.3410   -0.1290 na        1 STS     -0.283500
      9 C16        -3.4650   -0.8980    0.0130 cd        1 STS     -0.128000
     10 C19        -4.6980   -0.2910   -0.1930 cc        1 STS     -0.043300
     11 N18        -4.8230    1.0180   -0.5960 na        1 STS     -0.110100
     12 C17        -3.7410    1.8150   -0.8230 cc        1 STS      0.043700
     13 C3          1.7910    0.4770    0.7970 c3        1 STS     -0.054100
     14 C4          1.7710   -1.0040    0.9420 ca        1 STS     -0.124300
     15 C5          2.5110   -1.8100    0.0670 ca        1 STS     -0.141500
     16 C6          2.5300   -3.1930    0.2320 ca        1 STS     -0.122500
     17 C7          1.8170   -3.7850    1.2760 ca        1 STS     -0.117000
     18 C8          1.0850   -2.9870    2.1560 ca        1 STS     -0.122500
     19 C9          1.0610   -1.6030    1.9900 ca        1 STS     -0.141500
     20 H10         3.5870    3.5140   -1.6070 hs        1 STS      0.227800
     21 H21         1.4290    3.0580    0.0100 h1        1 STS      0.083700
     22 H22         1.1340    2.7650   -1.7500 h1        1 STS      0.083700
     23 H1          1.5360    0.2750   -1.3570 hc        1 STS      0.107700
     24 H12        -0.5010   -1.1670    0.1860 hn        1 STS      0.356700
     25 H16        -3.4090   -1.9490    0.3350 ha        1 STS      0.198000
     26 H19        -5.6450   -0.8480   -0.0380 h4        1 STS      0.207000
     27 H18        -5.7450    1.3980   -0.7280 hn        1 STS      0.341700
     28 H17        -3.9130    2.8630   -1.1470 h4        1 STS      0.222000
     29 H31         2.8660    0.8260    0.8350 hc        1 STS      0.087200
     30 H32         1.2590    0.9670    1.6550 hc        1 STS      0.087200
     31 H5          3.0990   -1.3450   -0.7410 ha        1 STS      0.141500
     32 H6          3.1230   -3.8190   -0.4540 ha        1 STS      0.147500
     33 H7          1.8440   -4.8770    1.4130 ha        1 STS      0.150000
     34 H8          0.5420   -3.4490    2.9940 ha        1 STS      0.147500
     35 H9          0.5130   -0.9770    2.7120 ha        1 STS      0.141500
@<TRIPOS>BOND
     1    1    2 1   
     2    1   20 1   
     3    2    3 1   
     4    2   21 1   
     5    2   22 1   
     6    3    4 1   
     7    3   13 1   
     8    3   23 1   
     9    4    5 2   
    10    4    8 1   
    11    5    6 1   
    12    6    7 1   
    13    6   12 2   
    14    7    8 2   
    15    7    9 1   
    16    8   24 1   
    17    9   10 2   
    18    9   25 1   
    19   10   11 1   
    20   10   26 1   
    21   11   12 1   
    22   11   27 1   
    23   12   28 1   
    24   13   14 1   
    25   13   29 1   
    26   13   30 1   
    27   14   15 ar  
    28   14   19 ar  
    29   15   16 ar  
    30   15   31 1   
    31   16   17 ar  
    32   16   32 1   
    33   17   18 ar  
    34   17   33 1   
    35   18   19 ar  
    36   18   34 1   
    37   19   35 1   
@<TRIPOS>SUBSTRUCTURE
     1 STS         1 TEMP              0 ****  ****    0 ROOT
