@<TRIPOS>MOLECULE
STS
   35    37     1     0     0
SMALL
bcc


@<TRIPOS>ATOM
      1 S10        -0.0870    0.7780    0.8170 sh        1 STS     -0.360900
      2 C2          1.6390    0.8090    0.4090 c3        1 STS     -0.000300
      3 C1          2.3890    0.2730    1.6150 c3        1 STS     -0.073000
      4 C11         3.8740    0.4750    1.4600 cc        1 STS      0.486800
      5 N13         4.5110    1.1330    0.4680 nd        1 STS     -0.527100
      6 C15         5.8760    1.0710    0.7920 cd        1 STS      0.033400
      7 C14         6.0460    0.3260    2.0500 cd        1 STS      0.055000
      8 N12         4.7790   -0.0290    2.4470 na        1 STS     -0.283500
      9 C16         7.3370    0.1350    2.5750 cd        1 STS     -0.128000
     10 C19         8.4010    0.6720    1.8620 cc        1 STS     -0.043300
     11 N18         8.2300    1.3670    0.6860 na        1 STS     -0.110100
     12 C17         7.0000    1.5780    0.1380 cc        1 STS      0.043700
     13 C3          2.0630   -1.2040    1.8460 c3        1 STS     -0.054100
     14 C4          2.3740   -1.6620    3.2280 ca        1 STS     -0.124300
     15 C5          1.6870   -1.1220    4.3230 ca        1 STS     -0.141500
     16 C6          1.9440   -1.5860    5.6120 ca        1 STS     -0.122500
     17 C7          2.8820   -2.5980    5.8190 ca        1 STS     -0.117000
     18 C8          3.5620   -3.1470    4.7310 ca        1 STS     -0.122500
     19 C9          3.3110   -2.6820    3.4410 ca        1 STS     -0.141500
     20 H10        -0.5540    1.4690   -0.2120 hs        1 STS      0.227800
     21 H21         1.9550    1.8550    0.1760 h1        1 STS      0.083700
     22 H22         1.8410    0.1780   -0.4900 h1        1 STS      0.083700
     23 H1          2.0720    0.8670    2.5270 hc        1 STS      0.107700
     24 H12         4.5200   -0.5900    3.2300 hn        1 STS      0.356700
     25 H16         7.5170   -0.4140    3.5130 ha        1 STS      0.198000
     26 H19         9.4460    0.5610    2.2170 h4        1 STS      0.207000
     27 H18         9.0420    1.7320    0.2180 hn        1 STS      0.341700
     28 H17         6.9340    2.1470   -0.8120 h4        1 STS      0.222000
     29 H31         2.6030   -1.8310    1.0890 hc        1 STS      0.087200
     30 H32         0.9570   -1.3450    1.6620 hc        1 STS      0.087200
     31 H5          0.9250   -0.3430    4.1620 ha        1 STS      0.141500
     32 H6          1.3920   -1.1630    6.4660 ha        1 STS      0.147500
     33 H7          3.0740   -2.9730    6.8360 ha        1 STS      0.150000
     34 H8          4.2850   -3.9620    4.8890 ha        1 STS      0.147500
     35 H9          3.8220   -3.1460    2.5840 ha        1 STS      0.141500
@<TRIPOS>BOND
     1    1    2 1   
     2    1   20 1   
     3    2    3 1   
     4    2   21 1   
     5    2   22 1   
     6    3    4 1   
     7    3   13 1   
     8    3   23 1   
     9    4    5 2   
    10    4    8 1   
    11    5    6 1   
    12    6    7 1   
    13    6   12 2   
    14    7    8 2   
    15    7    9 1   
    16    8   24 1   
    17    9   10 2   
    18    9   25 1   
    19   10   11 1   
    20   10   26 1   
    21   11   12 1   
    22   11   27 1   
    23   12   28 1   
    24   13   14 1   
    25   13   29 1   
    26   13   30 1   
    27   14   15 ar  
    28   14   19 ar  
    29   15   16 ar  
    30   15   31 1   
    31   16   17 ar  
    32   16   32 1   
    33   17   18 ar  
    34   17   33 1   
    35   18   19 ar  
    36   18   34 1   
    37   19   35 1   
@<TRIPOS>SUBSTRUCTURE
     1 STS         1 TEMP              0 ****  ****    0 ROOT
