@<TRIPOS>MOLECULE
STS
   35    37     1     0     0
SMALL
bcc


@<TRIPOS>ATOM
      1 S10        -0.0970    0.9930    1.0310 sh        1 STS     -0.360900
      2 C2          1.6250    1.0730    0.6120 c3        1 STS     -0.000300
      3 C1          2.3840    0.3740    1.7250 c3        1 STS     -0.073000
      4 C11         3.8690    0.5900    1.5830 cc        1 STS      0.486800
      5 N13         4.4990    1.3750    0.6820 nd        1 STS     -0.527100
      6 C15         5.8670    1.2630    0.9800 cd        1 STS      0.033400
      7 C14         6.0460    0.3530    2.1230 cd        1 STS      0.055000
      8 N12         4.7810   -0.0470    2.4820 na        1 STS     -0.283500
      9 C16         7.3410    0.0880    2.6030 cd        1 STS     -0.128000
     10 C19         8.4000    0.7140    1.9580 cc        1 STS     -0.043300
     11 N18         8.2210    1.5630    0.8900 na        1 STS     -0.110100
     12 C17         6.9870    1.8510    0.3890 cc        1 STS      0.043700
     13 C3          2.0540   -1.1190    1.7560 c3        1 STS     -0.054100
     14 C4          2.3760   -1.7640    3.0570 ca        1 STS     -0.124300
     15 C5          1.7040   -1.3760    4.2240 ca        1 STS     -0.141500
     16 C6          1.9720   -2.0140    5.4340 ca        1 STS     -0.122500
     17 C7          2.9080   -3.0470    5.4900 ca        1 STS     -0.117000
     18 C8          3.5730   -3.4440    4.3300 ca        1 STS     -0.122500
     19 C9          3.3100   -2.8060    3.1190 ca        1 STS     -0.141500
     20 H10        -0.5710    1.8190    0.1110 hs        1 STS      0.227800
     21 H21         1.8140    0.5700   -0.3670 h1        1 STS      0.083700
     22 H22         1.9440    2.1390    0.5210 h1        1 STS      0.083700
     23 H1          2.0800    0.8390    2.7130 hc        1 STS      0.107700
     24 H12         4.5280   -0.7090    3.1840 hn        1 STS      0.356700
     25 H16         7.5280   -0.5840    3.4550 ha        1 STS      0.198000
     26 H19         9.4490    0.5510    2.2830 h4        1 STS      0.207000
     27 H18         9.0300    1.9850    0.4660 hn        1 STS      0.341700
     28 H17         6.9130    2.5440   -0.4740 h4        1 STS      0.222000
     29 H31         2.5820   -1.6390    0.9130 hc        1 STS      0.087200
     30 H32         0.9450   -1.2290    1.5670 hc        1 STS      0.087200
     31 H5          0.9440   -0.5800    4.1800 ha        1 STS      0.141500
     32 H6          1.4320   -1.7100    6.3450 ha        1 STS      0.147500
     33 H7          3.1080   -3.5590    6.4440 ha        1 STS      0.150000
     34 H8          4.2930   -4.2760    4.3660 ha        1 STS      0.147500
     35 H9          3.8110   -3.1500    2.2000 ha        1 STS      0.141500
@<TRIPOS>BOND
     1    1    2 1   
     2    1   20 1   
     3    2    3 1   
     4    2   21 1   
     5    2   22 1   
     6    3    4 1   
     7    3   13 1   
     8    3   23 1   
     9    4    5 2   
    10    4    8 1   
    11    5    6 1   
    12    6    7 1   
    13    6   12 2   
    14    7    8 2   
    15    7    9 1   
    16    8   24 1   
    17    9   10 2   
    18    9   25 1   
    19   10   11 1   
    20   10   26 1   
    21   11   12 1   
    22   11   27 1   
    23   12   28 1   
    24   13   14 1   
    25   13   29 1   
    26   13   30 1   
    27   14   15 ar  
    28   14   19 ar  
    29   15   16 ar  
    30   15   31 1   
    31   16   17 ar  
    32   16   32 1   
    33   17   18 ar  
    34   17   33 1   
    35   18   19 ar  
    36   18   34 1   
    37   19   35 1   
@<TRIPOS>SUBSTRUCTURE
     1 STS         1 TEMP              0 ****  ****    0 ROOT
