@<TRIPOS>MOLECULE
STT
   22    22     1     0     0
SMALL
bcc


@<TRIPOS>ATOM
      1 OAD         3.2140   -0.3360   -1.3290 o         1 STT     -0.744533
      2 SBN         3.2600    0.0440    0.0310 s6        1 STT      1.430800
      3 OAB         3.8780   -0.8960    0.8810 o         1 STT     -0.744533
      4 OAC         3.6780    1.3740    0.2440 o         1 STT     -0.744533
      5 CAX         1.5330    0.0270    0.5650 c3        1 STT     -0.309600
      6 CAV         0.5850    0.2990   -0.5710 c3        1 STT      0.126000
      7 NBM        -0.8330    0.1950   -0.2470 n         1 STT     -0.385400
      8 CBI        -1.7170    1.3680   -0.2630 c         1 STT      0.744700
      9 OAA        -1.2770    2.4790   -0.5760 o         1 STT     -0.586500
     10 CBJ        -1.4350   -0.9430    0.1540 c         1 STT      0.535300
     11 SAE        -1.0460   -2.4110    0.4270 s         1 STT     -0.333400
     12 SBA        -3.1890   -0.5330    0.5480 sx        1 STT      0.296100
     13 CBK        -3.0620    0.9920    0.1130 ce        1 STT     -0.934400
     14 CAG        -4.1380    1.9800    0.0210 c3        1 STT      0.047100
     15 HAX         1.3340   -0.9750    1.0180 h1        1 STT      0.081700
     16 HAXA        1.4160    0.7910    1.3690 h1        1 STT      0.081700
     17 HAV         0.7490    1.3480   -0.9560 h1        1 STT      0.090700
     18 HAVA        0.7960   -0.4320   -1.4090 h1        1 STT      0.090700
     19 HAG        -4.7090    2.0560    0.9810 hc        1 STT      0.019700
     20 HAGA       -3.7160    2.9900   -0.2130 hc        1 STT      0.019700
     21 HAGB       -4.8640    1.7120   -0.7910 hc        1 STT      0.019700
     22 HSBA       -3.8230   -1.1220   -0.4310 hs        1 STT      0.200000
@<TRIPOS>BOND
     1    1    2 1   
     2    2    3 1   
     3    2    4 1   
     4    2    5 1   
     5    5    6 1   
     6    5   15 1   
     7    5   16 1   
     8    6    7 1   
     9    6   17 1   
    10    6   18 1   
    11    7    8 1   
    12    7   10 1   
    13    8    9 2   
    14    8   13 1   
    15   10   11 2   
    16   10   12 1   
    17   12   13 2   
    18   12   22 1   
    19   13   14 1   
    20   14   19 1   
    21   14   20 1   
    22   14   21 1   
@<TRIPOS>SUBSTRUCTURE
     1 STT         1 TEMP              0 ****  ****    0 ROOT
