@<TRIPOS>MOLECULE
STT
   22    22     1     0     0
SMALL
bcc


@<TRIPOS>ATOM
      1 OAD         0.3780   -0.4150   -0.9630 o         1 STT     -0.744533
      2 SBN         1.2600   -0.0350    0.0730 s6        1 STT      1.430800
      3 OAB         0.6280    0.2800    1.2930 o         1 STT     -0.744533
      4 OAC         2.3860   -0.8720    0.2070 o         1 STT     -0.744533
      5 CAX         1.9420    1.5490   -0.4720 c3        1 STT     -0.309600
      6 CAV         1.9710    1.6680   -1.9720 c3        1 STT      0.126000
      7 NBM         2.4050    2.9580   -2.4930 n         1 STT     -0.385400
      8 CBI         3.6610    3.1080   -3.2400 c         1 STT      0.744700
      9 OAA         4.3750    2.1260   -3.4650 o         1 STT     -0.586500
     10 CBJ         1.7480    4.1180   -2.2840 c         1 STT      0.535300
     11 SAE         0.4790    4.5990   -1.5490 s         1 STT     -0.333400
     12 SBA         2.7490    5.4680   -3.0410 sx        1 STT      0.296100
     13 CBK         3.8590    4.4890   -3.6240 ce        1 STT     -0.934400
     14 CAG         4.9760    4.8370   -4.5040 c3        1 STT      0.047100
     15 HAX         2.9680    1.6430   -0.0480 h1        1 STT      0.081700
     16 HAXA        1.3130    2.3550   -0.0210 h1        1 STT      0.081700
     17 HAV         0.9330    1.4700   -2.3770 h1        1 STT      0.090700
     18 HAVA        2.6790    0.8970   -2.3970 h1        1 STT      0.090700
     19 HAG         4.6090    5.1690   -5.5100 hc        1 STT      0.019700
     20 HAGA        5.5950    5.6640   -4.0730 hc        1 STT      0.019700
     21 HAGB        5.6410    3.9490   -4.6550 hc        1 STT      0.019700
     22 HSBA        2.0090    5.8010   -4.0650 hs        1 STT      0.200000
@<TRIPOS>BOND
     1    1    2 1   
     2    2    3 1   
     3    2    4 1   
     4    2    5 1   
     5    5    6 1   
     6    5   15 1   
     7    5   16 1   
     8    6    7 1   
     9    6   17 1   
    10    6   18 1   
    11    7    8 1   
    12    7   10 1   
    13    8    9 2   
    14    8   13 1   
    15   10   11 2   
    16   10   12 1   
    17   12   13 2   
    18   12   22 1   
    19   13   14 1   
    20   14   19 1   
    21   14   20 1   
    22   14   21 1   
@<TRIPOS>SUBSTRUCTURE
     1 STT         1 TEMP              0 ****  ****    0 ROOT
