@<TRIPOS>MOLECULE
STT
   22    22     1     0     0
SMALL
bcc


@<TRIPOS>ATOM
      1 OAD         0.3840   -0.4360   -1.0070 o         1 STT     -0.744533
      2 SBN         1.2350   -0.0410    0.0500 s6        1 STT      1.430800
      3 OAB         0.5670    0.2720    1.2510 o         1 STT     -0.744533
      4 OAC         2.3660   -0.8660    0.2170 o         1 STT     -0.744533
      5 CAX         1.9130    1.5480   -0.4850 c3        1 STT     -0.309600
      6 CAV         1.9750    1.6630   -1.9840 c3        1 STT      0.126000
      7 NBM         2.4090    2.9550   -2.4990 n         1 STT     -0.385400
      8 CBI         3.6800    3.1140   -3.2180 c         1 STT      0.744700
      9 OAA         4.4080    2.1380   -3.4240 o         1 STT     -0.586500
     10 CBJ         1.7360    4.1090   -2.3090 c         1 STT      0.535300
     11 SAE         0.4460    4.5810   -1.6060 s         1 STT     -0.333400
     12 SBA         2.7420    5.4660   -3.0480 sx        1 STT      0.296100
     13 CBK         3.8740    4.4960   -3.6020 ce        1 STT     -0.934400
     14 CAG         5.0070    4.8520   -4.4570 c3        1 STT      0.047100
     15 HAX         2.9290    1.6520   -0.0380 h1        1 STT      0.081700
     16 HAXA        1.2670    2.3490   -0.0510 h1        1 STT      0.081700
     17 HAV         2.6990    0.8970   -2.3910 h1        1 STT      0.090700
     18 HAVA        0.9480    1.4540   -2.4120 h1        1 STT      0.090700
     19 HAG         5.6090    5.6860   -4.0150 hc        1 STT      0.019700
     20 HAGA        5.6840    3.9690   -4.5900 hc        1 STT      0.019700
     21 HAGB        4.6600    5.1780   -5.4720 hc        1 STT      0.019700
     22 HSBA        2.0230    5.7900   -4.0890 hs        1 STT      0.200000
@<TRIPOS>BOND
     1    1    2 1   
     2    2    3 1   
     3    2    4 1   
     4    2    5 1   
     5    5    6 1   
     6    5   15 1   
     7    5   16 1   
     8    6    7 1   
     9    6   17 1   
    10    6   18 1   
    11    7    8 1   
    12    7   10 1   
    13    8    9 2   
    14    8   13 1   
    15   10   11 2   
    16   10   12 1   
    17   12   13 2   
    18   12   22 1   
    19   13   14 1   
    20   14   19 1   
    21   14   20 1   
    22   14   21 1   
@<TRIPOS>SUBSTRUCTURE
     1 STT         1 TEMP              0 ****  ****    0 ROOT
