@<TRIPOS>MOLECULE
STT
   22    22     1     0     0
SMALL
bcc


@<TRIPOS>ATOM
      1 OAD         0.3600   -0.4010   -0.9620 o         1 STT     -0.744533
      2 SBN         1.2470   -0.0280    0.0730 s6        1 STT      1.430800
      3 OAB         0.6180    0.2910    1.2950 o         1 STT     -0.744533
      4 OAC         2.3680   -0.8720    0.2060 o         1 STT     -0.744533
      5 CAX         1.9370    1.5530   -0.4720 c3        1 STT     -0.309600
      6 CAV         1.9640    1.6730   -1.9710 c3        1 STT      0.126000
      7 NBM         2.4060    2.9600   -2.4920 n         1 STT     -0.385400
      8 CBI         3.6610    3.1020   -3.2410 c         1 STT      0.744700
      9 OAA         4.3680    2.1150   -3.4690 o         1 STT     -0.586500
     10 CBJ         1.7570    4.1240   -2.2810 c         1 STT      0.535300
     11 SAE         0.4920    4.6140   -1.5440 s         1 STT     -0.333400
     12 SBA         2.7660    5.4680   -3.0390 sx        1 STT      0.296100
     13 CBK         3.8680    4.4820   -3.6250 ce        1 STT     -0.934400
     14 CAG         4.9840    4.8230   -4.5070 c3        1 STT      0.047100
     15 HAX         2.9660    1.6390   -0.0490 h1        1 STT      0.081700
     16 HAXA        1.3150    2.3620   -0.0180 h1        1 STT      0.081700
     17 HAV         2.6660    0.8970   -2.3990 h1        1 STT      0.090700
     18 HAVA        0.9240    1.4820   -2.3740 h1        1 STT      0.090700
     19 HAG         5.6110    5.6460   -4.0770 hc        1 STT      0.019700
     20 HAGA        5.6440    3.9310   -4.6600 hc        1 STT      0.019700
     21 HAGB        4.6180    5.1590   -5.5120 hc        1 STT      0.019700
     22 HSBA        2.0260    5.8070   -4.0610 hs        1 STT      0.200000
@<TRIPOS>BOND
     1    1    2 1   
     2    2    3 1   
     3    2    4 1   
     4    2    5 1   
     5    5    6 1   
     6    5   15 1   
     7    5   16 1   
     8    6    7 1   
     9    6   17 1   
    10    6   18 1   
    11    7    8 1   
    12    7   10 1   
    13    8    9 2   
    14    8   13 1   
    15   10   11 2   
    16   10   12 1   
    17   12   13 2   
    18   12   22 1   
    19   13   14 1   
    20   14   19 1   
    21   14   20 1   
    22   14   21 1   
@<TRIPOS>SUBSTRUCTURE
     1 STT         1 TEMP              0 ****  ****    0 ROOT
