@<TRIPOS>MOLECULE
STU
   61    68     1     0     0
SMALL
bcc


@<TRIPOS>ATOM
      1 O4         -2.0100   -1.5430   -0.8270 os        1 STU     -0.413600
      2 C25        -2.5050   -0.7820    0.2740 c3        1 STU      0.280800
      3 C24        -3.3360    0.4290   -0.1760 c3        1 STU     -0.113400
      4 C23        -2.6550    1.2570   -1.2710 c3        1 STU      0.164500
      5 C22        -2.3030    0.2760   -2.4100 c3        1 STU      0.099100
      6 C21        -1.3660   -0.8880   -1.9350 c3        1 STU      0.296500
      7 C26        -1.4050   -1.9950   -3.0210 c3        1 STU     -0.105100
      8 N2         -0.0130   -0.4560   -1.6140 na        1 STU     -0.086300
      9 C18         0.5310   -0.3540   -0.3210 ca        1 STU      0.023800
     10 C19        -0.1000   -0.3510    0.9220 ca        1 STU     -0.008200
     11 C6          0.6690   -0.2060    2.1440 cp        1 STU      0.022000
     12 C7          2.0410   -0.0590    2.0490 ca        1 STU     -0.141600
     13 C10         2.6860   -0.0540    0.7830 ca        1 STU     -0.064300
     14 C11         1.9710   -0.1950   -0.3880 cp        1 STU     -0.049000
     15 C12         2.3080   -0.2180   -1.7970 cp        1 STU     -0.077000
     16 C17         1.0660   -0.3810   -2.5260 ca        1 STU      0.016800
     17 C16         1.0780   -0.3780   -3.9250 ca        1 STU     -0.148000
     18 C15         2.3030   -0.2590   -4.5780 ca        1 STU     -0.107000
     19 C14         3.5030   -0.1300   -3.8730 ca        1 STU     -0.160000
     20 C13         3.5100   -0.0990   -2.4800 ca        1 STU     -0.082000
     21 C9          4.1700    0.1350    0.9970 c3        1 STU      0.128300
     22 N1          4.3170    0.3020    2.4370 n         1 STU     -0.573900
     23 C8          3.0900    0.1050    3.0990 c         1 STU      0.717100
     24 O5          2.9690    0.0990    4.3330 o         1 STU     -0.626500
     25 C5         -0.2940   -0.2720    3.2280 cp        1 STU     -0.086000
     26 C20        -1.5980   -0.4570    2.6230 ca        1 STU      0.016800
     27 C1         -2.7430   -0.5660    3.4200 ca        1 STU     -0.179000
     28 C2         -2.5850   -0.4910    4.8010 ca        1 STU     -0.091000
     29 C3         -1.3280   -0.3090    5.3890 ca        1 STU     -0.173000
     30 C4         -0.1770   -0.1990    4.6110 ca        1 STU     -0.054000
     31 N3         -1.4630   -0.4790    1.2240 na        1 STU     -0.094300
     32 O6         -1.6690    0.9390   -3.4980 os        1 STU     -0.409600
     33 C27        -2.5790    1.5910   -4.3710 c3        1 STU      0.110700
     34 N4         -1.5130    2.0090   -0.7800 n3        1 STU     -0.818200
     35 C28        -1.8510    3.2810   -0.2000 c3        1 STU      0.156100
     36 H25        -3.2060   -1.5300    0.7750 h2        1 STU      0.085700
     37 H241       -3.5750    1.0730    0.7090 hc        1 STU      0.065700
     38 H242       -4.3010    0.0340   -0.5880 hc        1 STU      0.065700
     39 H23        -3.4460    1.9610   -1.6850 h1        1 STU      0.026700
     40 H22        -3.2600   -0.2100   -2.7550 h1        1 STU      0.057700
     41 H261       -0.4850   -2.6240   -2.9940 hc        1 STU      0.062700
     42 H262       -2.2900   -2.6510   -2.8310 hc        1 STU      0.062700
     43 H263       -1.5080   -1.5250   -4.0270 hc        1 STU      0.062700
     44 H16         0.1420   -0.4320   -4.4980 ha        1 STU      0.145000
     45 H15         2.3220   -0.2630   -5.6780 ha        1 STU      0.130000
     46 H14         4.4500   -0.0420   -4.4250 ha        1 STU      0.132000
     47 H13         4.4510    0.0230   -1.9220 ha        1 STU      0.133000
     48 H91         4.7480   -0.7520    0.6180 h1        1 STU      0.058700
     49 H92         4.5400    1.0580    0.4710 h1        1 STU      0.058700
     50 HN1         5.1790    0.1090    2.8780 hn        1 STU      0.319500
     51 H1         -3.7360   -0.7050    2.9740 ha        1 STU      0.129000
     52 H2         -3.4730   -0.5760    5.4450 ha        1 STU      0.128000
     53 H3         -1.2470   -0.2540    6.4840 ha        1 STU      0.134000
     54 H4          0.8160   -0.0570    5.0720 ha        1 STU      0.174000
     55 H271       -1.9230    2.0390   -5.1600 h1        1 STU      0.039700
     56 H272       -3.2890    0.8550   -4.8220 h1        1 STU      0.039700
     57 H273       -3.1440    2.3900   -3.8330 h1        1 STU      0.039700
     58 HN4        -0.8280    2.1150   -1.5060 hn        1 STU      0.387800
     59 H281       -0.9040    3.7620    0.1640 h1        1 STU      0.031033
     60 H282       -2.3600    3.9860   -0.9140 h1        1 STU      0.031033
     61 H283       -2.5320    3.1220    0.6770 h1        1 STU      0.031033
@<TRIPOS>BOND
     1    1    2 1   
     2    1    6 1   
     3    2    3 1   
     4    2   31 1   
     5    2   36 1   
     6    3    4 1   
     7    3   37 1   
     8    3   38 1   
     9    4    5 1   
    10    4   34 1   
    11    4   39 1   
    12    5    6 1   
    13    5   32 1   
    14    5   40 1   
    15    6    7 1   
    16    6    8 1   
    17    7   41 1   
    18    7   42 1   
    19    7   43 1   
    20    8    9 1   
    21    8   16 1   
    22    9   10 ar  
    23    9   14 ar  
    24   10   11 ar  
    25   10   31 1   
    26   11   12 ar  
    27   11   25 1   
    28   12   13 ar  
    29   12   23 1   
    30   13   14 ar  
    31   13   21 1   
    32   14   15 1   
    33   15   16 ar  
    34   15   20 ar  
    35   16   17 ar  
    36   17   18 ar  
    37   17   44 1   
    38   18   19 ar  
    39   18   45 1   
    40   19   20 ar  
    41   19   46 1   
    42   20   47 1   
    43   21   22 1   
    44   21   48 1   
    45   21   49 1   
    46   22   23 1   
    47   22   50 1   
    48   23   24 2   
    49   25   26 ar  
    50   25   30 ar  
    51   26   27 ar  
    52   26   31 1   
    53   27   28 ar  
    54   27   51 1   
    55   28   29 ar  
    56   28   52 1   
    57   29   30 ar  
    58   29   53 1   
    59   30   54 1   
    60   32   33 1   
    61   33   55 1   
    62   33   56 1   
    63   33   57 1   
    64   34   35 1   
    65   34   58 1   
    66   35   59 1   
    67   35   60 1   
    68   35   61 1   
@<TRIPOS>SUBSTRUCTURE
     1 STU         1 TEMP              0 ****  ****    0 ROOT
