@<TRIPOS>MOLECULE
STU
   62    69     1     0     0
SMALL
bcc


@<TRIPOS>ATOM
      1 O4          0.2600   -0.2100    0.3250 os        1 STU     -0.394600
      2 C25         1.6790   -0.2310    0.1850 c3        1 STU      0.214800
      3 C24         2.1240   -1.1630   -0.9590 c3        1 STU     -0.131400
      4 C23         1.4600   -2.5320   -0.9050 c3        1 STU      0.116500
      5 C22        -0.0730   -2.3170   -0.8310 c3        1 STU      0.100100
      6 C21        -0.4830   -1.4440    0.4060 c3        1 STU      0.229500
      7 C26        -1.9310   -0.9550    0.1880 c3        1 STU     -0.106100
      8 N2         -0.2670   -2.1760    1.6670 na        1 STU     -0.100300
      9 C18         0.4670   -1.5250    2.7080 ca        1 STU     -0.052200
     10 C19         1.6400   -0.8060    2.6010 ca        1 STU     -0.083200
     11 C6          2.2900   -0.2660    3.7820 cp        1 STU      0.053000
     12 C7          1.7320   -0.5240    5.0100 ca        1 STU     -0.125600
     13 C10         0.5270   -1.2880    5.1270 ca        1 STU     -0.048300
     14 C11        -0.1060   -1.7860    4.0150 cp        1 STU     -0.024000
     15 C12        -1.2890   -2.5980    3.7680 cp        1 STU     -0.062000
     16 C17        -1.3820   -2.7950    2.3410 ca        1 STU     -0.041200
     17 C16        -2.3880   -3.6020    1.8140 ca        1 STU     -0.133000
     18 C15        -3.3140   -4.1710    2.6950 ca        1 STU     -0.103000
     19 C14        -3.2370   -3.9590    4.0700 ca        1 STU     -0.127000
     20 C13        -2.2160   -3.1760    4.6190 ca        1 STU     -0.078000
     21 C9          0.1730   -1.4000    6.5930 c3        1 STU      0.133300
     22 N1          1.2530   -0.7140    7.2840 ns        1 STU     -0.576900
     23 C8          2.1590   -0.1300    6.3920 c         1 STU      0.719100
     24 O5          3.1330    0.5580    6.7230 o         1 STU     -0.605500
     25 C5          3.4490    0.4690    3.2900 cp        1 STU     -0.073000
     26 C20         3.4520    0.3430    1.8510 ca        1 STU     -0.045200
     27 C1          4.4340    0.9640    1.0870 ca        1 STU     -0.154000
     28 C2          5.4170    1.7020    1.7560 ca        1 STU     -0.089000
     29 C3          5.4230    1.8160    3.1460 ca        1 STU     -0.136000
     30 C4          4.4380    1.2000    3.9280 ca        1 STU     -0.051000
     31 N3          2.3970   -0.5340    1.4220 na        1 STU     -0.108300
     32 O6         -0.6920   -3.5910   -0.7880 os        1 STU     -0.432600
     33 C27        -1.5530   -3.8640   -1.8910 c3        1 STU      0.106700
     34 N4          1.9580   -3.4050    0.2130 ny        1 STU     -0.747000
     35 C28         3.1950   -4.1320   -0.1410 c3        1 STU      0.082100
     36 H25         1.8950    0.8440   -0.1290 h2        1 STU      0.118700
     37 H241        3.2420   -1.2520   -0.9730 hc        1 STU      0.094700
     38 H242        1.8130   -0.6800   -1.9260 hc        1 STU      0.094700
     39 H23         1.6810   -3.0930   -1.8640 hx        1 STU      0.103700
     40 H22        -0.3690   -1.7350   -1.7500 h1        1 STU      0.100700
     41 H261       -1.9450   -0.2180   -0.6510 hc        1 STU      0.073033
     42 H262       -2.3130   -0.4500    1.1070 hc        1 STU      0.073033
     43 H263       -2.5850   -1.8220   -0.0630 hc        1 STU      0.073033
     44 H16        -2.4520   -3.8040    0.7340 ha        1 STU      0.145000
     45 H15        -4.1190   -4.8020    2.2860 ha        1 STU      0.147000
     46 H14        -3.9850   -4.4180    4.7360 ha        1 STU      0.152000
     47 H13        -2.1470   -3.0250    5.7070 ha        1 STU      0.148000
     48 H91         0.1300   -2.4770    6.9180 h1        1 STU      0.071700
     49 H92        -0.8230   -0.9190    6.8030 h1        1 STU      0.071700
     50 HN1         1.1810   -0.4510    8.2330 hn        1 STU      0.344500
     51 H1          4.4450    0.8890   -0.0090 ha        1 STU      0.132000
     52 H2          6.1990    2.2050    1.1660 ha        1 STU      0.147000
     53 H3          6.2120    2.4040    3.6410 ha        1 STU      0.155000
     54 H4          4.4430    1.2930    5.0290 ha        1 STU      0.189000
     55 H271       -1.9470   -4.8890   -1.6720 h1        1 STU      0.057367
     56 H272       -2.3860   -3.1210   -1.9300 h1        1 STU      0.057367
     57 H273       -0.9750   -3.8560   -2.8470 h1        1 STU      0.057367
     58 HN4         1.2100   -4.0790    0.4390 hn        1 STU      0.478800
     59 H281        2.9990   -4.8220   -1.0040 hx        1 STU      0.102700
     60 H282        3.5310   -4.7310    0.7490 hx        1 STU      0.102700
     61 H283        3.9970   -3.3980   -0.4200 hx        1 STU      0.102700
     62 H42         2.1330   -2.8330    1.0530 hn        1 STU      0.478800
@<TRIPOS>BOND
     1    1    2 1   
     2    1    6 1   
     3    2    3 1   
     4    2   31 1   
     5    2   36 1   
     6    3    4 1   
     7    3   37 1   
     8    3   38 1   
     9    4    5 1   
    10    4   34 1   
    11    4   39 1   
    12    5    6 1   
    13    5   32 1   
    14    5   40 1   
    15    6    7 1   
    16    6    8 1   
    17    7   41 1   
    18    7   42 1   
    19    7   43 1   
    20    8    9 1   
    21    8   16 1   
    22    9   10 ar  
    23    9   14 ar  
    24   10   11 ar  
    25   10   31 1   
    26   11   12 ar  
    27   11   25 1   
    28   12   13 ar  
    29   12   23 1   
    30   13   14 ar  
    31   13   21 1   
    32   14   15 1   
    33   15   16 ar  
    34   15   20 ar  
    35   16   17 ar  
    36   17   18 ar  
    37   17   44 1   
    38   18   19 ar  
    39   18   45 1   
    40   19   20 ar  
    41   19   46 1   
    42   20   47 1   
    43   21   22 1   
    44   21   48 1   
    45   21   49 1   
    46   22   23 1   
    47   22   50 1   
    48   23   24 2   
    49   25   26 ar  
    50   25   30 ar  
    51   26   27 ar  
    52   26   31 1   
    53   27   28 ar  
    54   27   51 1   
    55   28   29 ar  
    56   28   52 1   
    57   29   30 ar  
    58   29   53 1   
    59   30   54 1   
    60   32   33 1   
    61   33   55 1   
    62   33   56 1   
    63   33   57 1   
    64   34   35 1   
    65   34   58 1   
    66   34   62 1   
    67   35   59 1   
    68   35   60 1   
    69   35   61 1   
@<TRIPOS>SUBSTRUCTURE
     1 STU         1 TEMP              0 ****  ****    0 ROOT
