@<TRIPOS>MOLECULE
STU
   62    69     1     0     0
SMALL
bcc


@<TRIPOS>ATOM
      1 O4          0.2540   -0.2090    0.3220 os        1 STU     -0.394600
      2 C25         1.6730   -0.2240    0.1850 c3        1 STU      0.214800
      3 C24         2.1260   -1.1570   -0.9550 c3        1 STU     -0.131400
      4 C23         1.4670   -2.5290   -0.8990 c3        1 STU      0.116500
      5 C22        -0.0660   -2.3200   -0.8300 c3        1 STU      0.100100
      6 C21        -0.4840   -1.4460    0.4030 c3        1 STU      0.229500
      7 C26        -1.9330   -0.9640    0.1800 c3        1 STU     -0.106100
      8 N2         -0.2690   -2.1730    1.6670 na        1 STU     -0.100300
      9 C18         0.4590   -1.5160    2.7090 ca        1 STU     -0.052200
     10 C19         1.6290   -0.7910    2.6030 ca        1 STU     -0.083200
     11 C6          2.2730   -0.2450    3.7840 cp        1 STU      0.053000
     12 C7          1.7120   -0.5030    5.0110 ca        1 STU     -0.125600
     13 C10         0.5100   -1.2720    5.1270 ca        1 STU     -0.048300
     14 C11        -0.1160   -1.7760    4.0140 cp        1 STU     -0.024000
     15 C12        -1.2950   -2.5940    3.7670 cp        1 STU     -0.062000
     16 C17        -1.3830   -2.7960    2.3390 ca        1 STU     -0.041200
     17 C16        -2.3830   -3.6080    1.8120 ca        1 STU     -0.133000
     18 C15        -3.3090   -4.1790    2.6910 ca        1 STU     -0.103000
     19 C14        -3.2380   -3.9630    4.0660 ca        1 STU     -0.127000
     20 C13        -2.2220   -3.1740    4.6160 ca        1 STU     -0.078000
     21 C9          0.1520   -1.3810    6.5920 c3        1 STU      0.133300
     22 N1          1.2270   -0.6870    7.2850 n         1 STU     -0.576900
     23 C8          2.1330   -0.1020    6.3940 c         1 STU      0.719100
     24 O5          3.1030    0.5920    6.7260 o         1 STU     -0.605500
     25 C5          3.4300    0.4930    3.2940 cp        1 STU     -0.073000
     26 C20         3.4380    0.3640    1.8560 ca        1 STU     -0.045200
     27 C1          4.4190    0.9870    1.0920 ca        1 STU     -0.154000
     28 C2          5.3970    1.7320    1.7630 ca        1 STU     -0.089000
     29 C3          5.3980    1.8500    3.1520 ca        1 STU     -0.136000
     30 C4          4.4140    1.2310    3.9320 ca        1 STU     -0.051000
     31 N3          2.3890   -0.5190    1.4250 na        1 STU     -0.108300
     32 O6         -0.6800   -3.5960   -0.7850 os        1 STU     -0.432600
     33 C27        -1.5370   -3.8770   -1.8900 c3        1 STU      0.106700
     34 N4          1.9660   -3.3960    0.2240 n4        1 STU     -0.747000
     35 C28         3.2070   -4.1190   -0.1240 c3        1 STU      0.082100
     36 H25         1.8850    0.8520   -0.1310 h2        1 STU      0.118700
     37 H241        3.2440   -1.2410   -0.9640 hc        1 STU      0.094700
     38 H242        1.8150   -0.6780   -1.9230 hc        1 STU      0.094700
     39 H23         1.6940   -3.0920   -1.8560 hx        1 STU      0.103700
     40 H22        -0.3620   -1.7420   -1.7510 h1        1 STU      0.100700
     41 H261       -2.5830   -1.8350   -0.0710 hc        1 STU      0.073033
     42 H262       -1.9480   -0.2300   -0.6620 hc        1 STU      0.073033
     43 H263       -2.3210   -0.4570    1.0960 hc        1 STU      0.073033
     44 H16        -2.4430   -3.8130    0.7320 ha        1 STU      0.145000
     45 H15        -4.1100   -4.8150    2.2820 ha        1 STU      0.147000
     46 H14        -3.9860   -4.4240    4.7310 ha        1 STU      0.152000
     47 H13        -2.1560   -3.0190    5.7030 ha        1 STU      0.148000
     48 H91         0.1140   -2.4570    6.9200 h1        1 STU      0.071700
     49 H92        -0.8460   -0.9040    6.7980 h1        1 STU      0.071700
     50 HN1         1.1510   -0.4220    8.2320 hn        1 STU      0.344500
     51 H1          4.4340    0.9080   -0.0030 ha        1 STU      0.132000
     52 H2          6.1790    2.2370    1.1730 ha        1 STU      0.147000
     53 H3          6.1820    2.4430    3.6480 ha        1 STU      0.155000
     54 H4          4.4140    1.3270    5.0340 ha        1 STU      0.189000
     55 H271       -0.9560   -3.8680   -2.8450 h1        1 STU      0.057367
     56 H272       -2.3730   -3.1370   -1.9330 h1        1 STU      0.057367
     57 H273       -1.9260   -4.9030   -1.6690 h1        1 STU      0.057367
     58 HN4         2.1360   -2.8220    1.0620 hn        1 STU      0.478800
     59 H281        4.0070   -3.3820   -0.4040 hx        1 STU      0.102700
     60 H282        3.0170   -4.8130   -0.9860 hx        1 STU      0.102700
     61 H283        3.5440   -4.7130    0.7680 hx        1 STU      0.102700
     62 H42         1.2200   -4.0730    0.4490 hn        1 STU      0.478800
@<TRIPOS>BOND
     1    1    2 1   
     2    1    6 1   
     3    2    3 1   
     4    2   31 1   
     5    2   36 1   
     6    3    4 1   
     7    3   37 1   
     8    3   38 1   
     9    4    5 1   
    10    4   34 1   
    11    4   39 1   
    12    5    6 1   
    13    5   32 1   
    14    5   40 1   
    15    6    7 1   
    16    6    8 1   
    17    7   41 1   
    18    7   42 1   
    19    7   43 1   
    20    8    9 1   
    21    8   16 1   
    22    9   10 ar  
    23    9   14 ar  
    24   10   11 ar  
    25   10   31 1   
    26   11   12 ar  
    27   11   25 1   
    28   12   13 ar  
    29   12   23 1   
    30   13   14 ar  
    31   13   21 1   
    32   14   15 1   
    33   15   16 ar  
    34   15   20 ar  
    35   16   17 ar  
    36   17   18 ar  
    37   17   44 1   
    38   18   19 ar  
    39   18   45 1   
    40   19   20 ar  
    41   19   46 1   
    42   20   47 1   
    43   21   22 1   
    44   21   48 1   
    45   21   49 1   
    46   22   23 1   
    47   22   50 1   
    48   23   24 2   
    49   25   26 ar  
    50   25   30 ar  
    51   26   27 ar  
    52   26   31 1   
    53   27   28 ar  
    54   27   51 1   
    55   28   29 ar  
    56   28   52 1   
    57   29   30 ar  
    58   29   53 1   
    59   30   54 1   
    60   32   33 1   
    61   33   55 1   
    62   33   56 1   
    63   33   57 1   
    64   34   35 1   
    65   34   58 1   
    66   34   62 1   
    67   35   59 1   
    68   35   60 1   
    69   35   61 1   
@<TRIPOS>SUBSTRUCTURE
     1 STU         1 TEMP              0 ****  ****    0 ROOT
