@<TRIPOS>MOLECULE
STU
   62    69     1     0     0
SMALL
bcc


@<TRIPOS>ATOM
      1 O4          0.2470   -0.2160    0.3260 os        1 STU     -0.394600
      2 C25         1.6650   -0.2250    0.1840 c3        1 STU      0.214800
      3 C24         2.1170   -1.1530   -0.9610 c3        1 STU     -0.131400
      4 C23         1.4640   -2.5270   -0.9060 c3        1 STU      0.116500
      5 C22        -0.0700   -2.3250   -0.8300 c3        1 STU      0.100100
      6 C21        -0.4860   -1.4550    0.4070 c3        1 STU      0.229500
      7 C26        -1.9380   -0.9780    0.1910 c3        1 STU     -0.106100
      8 N2         -0.2630   -2.1850    1.6680 na        1 STU     -0.100300
      9 C18         0.4670   -1.5280    2.7090 ca        1 STU     -0.052200
     10 C19         1.6340   -0.7990    2.6000 ca        1 STU     -0.083200
     11 C6          2.2810   -0.2540    3.7800 cp        1 STU      0.053000
     12 C7          1.7260   -0.5170    5.0090 ca        1 STU     -0.125600
     13 C10         0.5280   -1.2910    5.1270 ca        1 STU     -0.048300
     14 C11        -0.1020   -1.7940    4.0160 cp        1 STU     -0.024000
     15 C12        -1.2780   -2.6160    3.7710 cp        1 STU     -0.062000
     16 C17        -1.3710   -2.8140    2.3430 ca        1 STU     -0.041200
     17 C16        -2.3710   -3.6280    1.8180 ca        1 STU     -0.133000
     18 C15        -3.2910   -4.2050    2.7000 ca        1 STU     -0.103000
     19 C14        -3.2150   -3.9930    4.0750 ca        1 STU     -0.127000
     20 C13        -2.2000   -3.2020    4.6220 ca        1 STU     -0.078000
     21 C9          0.1770   -1.4050    6.5940 c3        1 STU      0.133300
     22 N1          1.2520   -0.7100    7.2840 n         1 STU     -0.576900
     23 C8          2.1520   -0.1190    6.3910 c         1 STU      0.719100
     24 O5          3.1200    0.5770    6.7210 o         1 STU     -0.605500
     25 C5          3.4340    0.4900    3.2870 cp        1 STU     -0.073000
     26 C20         3.4360    0.3640    1.8490 ca        1 STU     -0.045200
     27 C1          4.4110    0.9930    1.0830 ca        1 STU     -0.154000
     28 C2          5.3890    1.7400    1.7510 ca        1 STU     -0.089000
     29 C3          5.3960    1.8540    3.1400 ca        1 STU     -0.136000
     30 C4          4.4180    1.2290    3.9230 ca        1 STU     -0.051000
     31 N3          2.3870   -0.5210    1.4200 na        1 STU     -0.108300
     32 O6         -0.6790   -3.6040   -0.7860 os        1 STU     -0.432600
     33 C27        -1.5380   -3.8840   -1.8890 c3        1 STU      0.106700
     34 N4          1.9710   -3.3960    0.2120 n4        1 STU     -0.747000
     35 C28         3.2130   -4.1120   -0.1430 c3        1 STU      0.082100
     36 H25         1.8720    0.8520   -0.1300 h2        1 STU      0.118700
     37 H241        3.2360   -1.2330   -0.9750 hc        1 STU      0.094700
     38 H242        1.8010   -0.6720   -1.9270 hc        1 STU      0.094700
     39 H23         1.6890   -3.0870   -1.8650 hx        1 STU      0.103700
     40 H22        -0.3720   -1.7450   -1.7480 h1        1 STU      0.100700
     41 H261       -2.3240   -0.4760    1.1110 hc        1 STU      0.073033
     42 H262       -1.9590   -0.2410   -0.6480 hc        1 STU      0.073033
     43 H263       -2.5850   -1.8510   -0.0590 hc        1 STU      0.073033
     44 H16        -2.4350   -3.8310    0.7380 ha        1 STU      0.145000
     45 H15        -4.0920   -4.8430    2.2920 ha        1 STU      0.147000
     46 H14        -3.9580   -4.4580    4.7420 ha        1 STU      0.152000
     47 H13        -2.1300   -3.0500    5.7100 ha        1 STU      0.148000
     48 H91        -0.8230   -0.9320    6.8050 h1        1 STU      0.071700
     49 H92         0.1430   -2.4820    6.9190 h1        1 STU      0.071700
     50 HN1         1.1780   -0.4480    8.2320 hn        1 STU      0.344500
     51 H1          4.4220    0.9180   -0.0130 ha        1 STU      0.132000
     52 H2          6.1670    2.2490    1.1600 ha        1 STU      0.147000
     53 H3          6.1800    2.4480    3.6350 ha        1 STU      0.155000
     54 H4          4.4220    1.3220    5.0250 ha        1 STU      0.189000
     55 H271       -0.9620   -3.8720   -2.8450 h1        1 STU      0.057367
     56 H272       -1.9230   -4.9130   -1.6680 h1        1 STU      0.057367
     57 H273       -2.3780   -3.1480   -1.9260 h1        1 STU      0.057367
     58 HN4         1.2280   -4.0760    0.4390 hn        1 STU      0.478800
     59 H281        4.0090   -3.3720   -0.4240 hx        1 STU      0.102700
     60 H282        3.5560   -4.7080    0.7460 hx        1 STU      0.102700
     61 H283        3.0220   -4.8050   -1.0060 hx        1 STU      0.102700
     62 H42         2.1420   -2.8230    1.0520 hn        1 STU      0.478800
@<TRIPOS>BOND
     1    1    2 1   
     2    1    6 1   
     3    2    3 1   
     4    2   31 1   
     5    2   36 1   
     6    3    4 1   
     7    3   37 1   
     8    3   38 1   
     9    4    5 1   
    10    4   34 1   
    11    4   39 1   
    12    5    6 1   
    13    5   32 1   
    14    5   40 1   
    15    6    7 1   
    16    6    8 1   
    17    7   41 1   
    18    7   42 1   
    19    7   43 1   
    20    8    9 1   
    21    8   16 1   
    22    9   10 ar  
    23    9   14 ar  
    24   10   11 ar  
    25   10   31 1   
    26   11   12 ar  
    27   11   25 1   
    28   12   13 ar  
    29   12   23 1   
    30   13   14 ar  
    31   13   21 1   
    32   14   15 1   
    33   15   16 ar  
    34   15   20 ar  
    35   16   17 ar  
    36   17   18 ar  
    37   17   44 1   
    38   18   19 ar  
    39   18   45 1   
    40   19   20 ar  
    41   19   46 1   
    42   20   47 1   
    43   21   22 1   
    44   21   48 1   
    45   21   49 1   
    46   22   23 1   
    47   22   50 1   
    48   23   24 2   
    49   25   26 ar  
    50   25   30 ar  
    51   26   27 ar  
    52   26   31 1   
    53   27   28 ar  
    54   27   51 1   
    55   28   29 ar  
    56   28   52 1   
    57   29   30 ar  
    58   29   53 1   
    59   30   54 1   
    60   32   33 1   
    61   33   55 1   
    62   33   56 1   
    63   33   57 1   
    64   34   35 1   
    65   34   58 1   
    66   34   62 1   
    67   35   59 1   
    68   35   60 1   
    69   35   61 1   
@<TRIPOS>SUBSTRUCTURE
     1 STU         1 TEMP              0 ****  ****    0 ROOT
