@<TRIPOS>MOLECULE
STX
   29    29     1     0     0
SMALL
bcc


@<TRIPOS>ATOM
      1 N           4.3670   -0.2490   -0.5480 n3        1 STX     -0.807200
      2 CA          3.0250   -0.7590   -0.6200 c3        1 STX      0.081800
      3 C           1.9030    0.2090   -0.2900 c         1 STX      0.470600
      4 O           2.0610    1.4030   -0.0340 o         1 STX     -0.496100
      5 CD          4.8710   -0.0360    0.7850 c3        1 STX      0.141100
      6 C5          0.5590   -0.4000   -0.3120 cc        1 STX      0.349900
      7 N4          0.1300   -1.6570   -0.5570 nd        1 STX     -0.307000
      8 N3         -1.1830   -1.6940   -0.4560 nd        1 STX     -0.361000
      9 C2         -1.6390   -0.4570   -0.1410 cc        1 STX      0.487700
     10 O1         -0.5520    0.4140   -0.0370 os        1 STX     -0.347800
     11 C6         -3.0200    0.0680    0.0920 c3        1 STX     -0.069300
     12 C7         -3.6430   -0.6990    1.2530 c3        1 STX     -0.093100
     13 C8         -2.9660    1.5530    0.4240 c3        1 STX     -0.093100
     14 C9         -3.8430   -0.1490   -1.1730 c3        1 STX     -0.093100
     15 HN          4.4560    0.5870   -1.0970 hn        1 STX      0.372800
     16 HA1         2.8480   -1.1190   -1.6770 h1        1 STX      0.094700
     17 HA2         2.9280   -1.6490    0.0670 h1        1 STX      0.094700
     18 HD1         5.9270    0.3350    0.7070 h1        1 STX      0.038700
     19 HD2         4.2710    0.7100    1.3760 h1        1 STX      0.038700
     20 HD3         4.8720   -1.0100    1.3400 h1        1 STX      0.038700
     21 H71        -3.0420   -0.5570    2.1820 hc        1 STX      0.050700
     22 H72        -4.6770   -0.3190    1.4330 hc        1 STX      0.050700
     23 H73        -3.6960   -1.7890    1.0190 hc        1 STX      0.050700
     24 H81        -2.5030    2.1230   -0.4170 hc        1 STX      0.050700
     25 H82        -4.0000    1.9360    0.5960 hc        1 STX      0.050700
     26 H83        -2.3580    1.7240    1.3450 hc        1 STX      0.050700
     27 H91        -3.8970   -1.2360   -1.4230 hc        1 STX      0.050700
     28 H92        -4.8790    0.2350   -1.0090 hc        1 STX      0.050700
     29 H93        -3.3890    0.3980   -2.0330 hc        1 STX      0.050700
@<TRIPOS>BOND
     1    1    2 1   
     2    1    5 1   
     3    1   15 1   
     4    2    3 1   
     5    2   16 1   
     6    2   17 1   
     7    3    4 2   
     8    3    6 1   
     9    5   18 1   
    10    5   19 1   
    11    5   20 1   
    12    6    7 2   
    13    6   10 1   
    14    7    8 1   
    15    8    9 2   
    16    9   10 1   
    17    9   11 1   
    18   11   12 1   
    19   11   13 1   
    20   11   14 1   
    21   12   21 1   
    22   12   22 1   
    23   12   23 1   
    24   13   24 1   
    25   13   25 1   
    26   13   26 1   
    27   14   27 1   
    28   14   28 1   
    29   14   29 1   
@<TRIPOS>SUBSTRUCTURE
     1 STX         1 TEMP              0 ****  ****    0 ROOT
