@<TRIPOS>MOLECULE
STX
   29    28     1     0     0
SMALL
bcc


@<TRIPOS>ATOM
      1 N          -4.1390   -1.4630   -1.1460 n3        1 STX     -0.286000
      2 CA         -2.9710   -0.6690   -1.3710 c3        1 STX     -0.105000
      3 C          -1.8720   -1.1120   -0.4090 c2        1 STX      0.271000
      4 O          -1.8660   -2.2460    0.0220 o         1 STX     -0.256000
      5 CD         -4.9610   -1.4300   -2.2830 c3        1 STX     -0.135000
      6 C5         -0.7370   -0.1360   -0.0300 c2        1 STX     -0.129000
      7 N4         -0.8820    1.1760    0.2340 n2        1 STX     -0.045000
      8 N3          0.3240    1.6700    0.5930 n2        1 STX     -0.094000
      9 C2          1.2190    0.6620    0.5500 c1        1 STX      0.001000
     10 O1          0.5620   -0.4590    0.1640 os        1 STX     -0.093000
     11 C6          2.6510    0.7320    1.0130 c2        1 STX      0.025000
     12 C7          2.7330    0.3170    2.4470 c3        1 STX     -0.211000
     13 C8          3.5030   -0.2020    0.1630 c3        1 STX     -0.211000
     14 C9          3.1700    2.1810    0.8690 c3        1 STX     -0.211000
     15 HN         -4.5900   -1.1380   -0.4380 hn        1 STX      0.168000
     16 HA1        -3.1860    0.2940   -1.2150 h1        1 STX      0.134000
     17 HA2        -2.6600   -0.7910   -2.3000 h1        1 STX      0.134000
     18 HD1        -4.5130   -1.9000   -3.0250 h1        1 STX      0.078000
     19 HD2        -5.8210   -1.8760   -2.0790 h1        1 STX      0.078000
     20 HD3        -5.1220   -0.5460   -2.5250 h1        1 STX      0.078000
     21 H71         3.6560    0.2790    2.7170 hc        1 STX      0.090111
     22 H72         2.3190   -0.5760    2.5570 hc        1 STX      0.090111
     23 H73         2.2740    0.9450    2.9830 hc        1 STX      0.090111
     24 H81         3.2210   -1.1100    0.3050 hc        1 STX      0.090111
     25 H82         3.3960    0.0240   -0.7630 hc        1 STX      0.090111
     26 H83         4.4550   -0.1060    0.4210 hc        1 STX      0.090111
     27 H91         4.1300    2.2160    1.1240 hc        1 STX      0.090111
     28 H92         3.0680    2.4730   -0.0540 hc        1 STX      0.090111
     29 H93         2.6390    2.7880    1.4760 hc        1 STX      0.090111
@<TRIPOS>BOND
     1    1    2 1   
     2    1    5 1   
     3    1   15 1   
     4    2    3 1   
     5    2   16 1   
     6    2   17 1   
     7    3    4 1   
     8    3    6 1   
     9    5   18 1   
    10    5   19 1   
    11    5   20 1   
    12    6    7 1   
    13    6   10 1   
    14    7    8 1   
    15    8    9 1   
    16    9   10 1   
    17   11   12 1   
    18   11   13 1   
    19   11   14 1   
    20   12   21 1   
    21   12   22 1   
    22   12   23 1   
    23   13   24 1   
    24   13   25 1   
    25   13   26 1   
    26   14   27 1   
    27   14   28 1   
    28   14   29 1   
@<TRIPOS>SUBSTRUCTURE
     1 STX         1 TEMP              0 ****  ****    0 ROOT
