@<TRIPOS>MOLECULE
STY
   26    23     1     0     0
SMALL
bcc


@<TRIPOS>ATOM
      1 N          -1.1660   -2.8260   -2.1420 n3        1 STY     -0.335000
      2 CA         -0.0850   -1.8850   -2.0610 c3        1 STY     -0.106000
      3 CB          0.4500   -1.8480   -0.6350 c3        1 STY     -0.136000
      4 CG          0.1010   -0.4450    0.0240 c2        1 STY     -0.117000
      5 CD1        -0.9970   -0.3200    0.8350 c2        1 STY     -0.119000
      6 CE1        -1.2420    0.8940    1.4930 c1        1 STY     -0.203000
      7 CD2         0.9780    0.6430   -0.1460 c1        1 STY     -0.099000
      8 CE2         0.7340    1.8420    0.5060 c1        1 STY     -0.228000
      9 CZ         -0.3670    1.9720    1.3210 c1        1 STY      0.195000
     10 OH         -0.6780    3.1850    1.8490 os        1 STY     -0.697000
     11 C           1.0150   -2.2950   -2.9910 c2        1 STY      0.331000
     12 O           1.3380   -1.5500   -3.9440 o         1 STY     -0.589000
     13 S          -0.0300    3.5090    3.1980 s4        1 STY      2.106800
     14 O2          0.8390    4.7240    3.1070 o         1 STY     -0.677400
     15 O3         -1.0590    3.9630    4.2120 o         1 STY     -0.677400
     16 O4          0.7210    2.3500    3.6870 os        1 STY     -1.071000
     17 OXT         1.6150   -3.3850   -2.8140 o         1 STY     -0.589000
     18 H          -1.8700   -2.4450   -2.5700 hn        1 STY      0.128500
     19 HN2        -0.8950   -3.5680   -2.5990 hn        1 STY      0.128500
     20 HA         -0.4130   -0.9810   -2.3150 h1        1 STY      0.086000
     21 HB1         0.0230   -2.5990   -0.0900 hc        1 STY      0.082500
     22 HB2         1.4650   -1.9720   -0.6500 hc        1 STY      0.082500
     23 HD1        -1.5750   -1.0960    1.0040 ha        1 STY      0.108000
     24 HE1        -1.9970    0.9840    2.0520 ha        1 STY      0.120000
     25 HD2         1.7520    0.5550   -0.7150 ha        1 STY      0.118000
     26 HE2         1.3460    2.5950    0.3860 ha        1 STY      0.158000
@<TRIPOS>BOND
     1    1    2 1   
     2    1   18 1   
     3    1   19 1   
     4    2    3 1   
     5    2   11 1   
     6    2   20 1   
     7    3    4 1   
     8    3   21 1   
     9    3   22 1   
    10    4    5 1   
    11    4    7 1   
    12    5    6 1   
    13    5   23 1   
    14    6   24 1   
    15    7   25 1   
    16    8    9 1   
    17    8   26 1   
    18    9   10 1   
    19   10   13 1   
    20   11   12 1   
    21   11   17 1   
    22   13   14 1   
    23   13   15 1   
@<TRIPOS>SUBSTRUCTURE
     1 STY         1 TEMP              0 ****  ****    0 ROOT
