@<TRIPOS>MOLECULE
STY
   26    26     1     0     0
SMALL
bcc


@<TRIPOS>ATOM
      1 N           1.2130    1.2360    3.4540 n3        1 STY     -0.902800
      2 CA         -0.0540    0.5400    3.5700 c3        1 STY      0.041500
      3 CB         -0.2330   -0.6710    2.6360 c3        1 STY     -0.050100
      4 CG         -0.0190   -0.3760    1.1940 ca        1 STY     -0.124300
      5 CD1         1.2340   -0.5800    0.6020 ca        1 STY     -0.109000
      6 CE1         1.4380   -0.3470   -0.7530 ca        1 STY     -0.215500
      7 CD2        -1.0690    0.0830    0.3880 ca        1 STY     -0.109000
      8 CE2        -0.8890    0.3240   -0.9690 ca        1 STY     -0.215500
      9 CZ          0.3730    0.1070   -1.5580 ca        1 STY      0.240100
     10 OH          0.6240    0.3720   -2.8530 os        1 STY     -0.532800
     11 C          -0.3180    0.0140    5.0210 c         1 STY      0.911600
     12 O           0.6580   -0.4520    5.6790 o         1 STY     -0.854300
     13 S          -0.3750    0.1130   -4.2660 s6        1 STY      1.712300
     14 O2          0.3880    0.7880   -5.2130 o         1 STY     -0.746867
     15 O3         -0.3950   -1.2710   -4.3830 o         1 STY     -0.746867
     16 O4         -1.5860    0.7080   -3.9290 o         1 STY     -0.746867
     17 OXT        -1.5020    0.0650    5.4540 o         1 STY     -0.854300
     18 H           1.6140    1.0670    2.5490 hn        1 STY      0.333300
     19 HN2         1.8470    0.8770    4.1470 hn        1 STY      0.333300
     20 HA         -0.8580    1.2900    3.3200 h1        1 STY      0.046700
     21 HB1         0.4730   -1.4810    2.9630 hc        1 STY      0.043200
     22 HB2        -1.2770   -1.0530    2.7920 hc        1 STY      0.043200
     23 HD1         2.0700   -0.9390    1.2210 ha        1 STY      0.113000
     24 HE1         2.4210   -0.5090   -1.2130 ha        1 STY      0.139000
     25 HD2        -2.0560    0.2570    0.8440 ha        1 STY      0.113000
     26 HE2        -1.7200    0.6800   -1.5980 ha        1 STY      0.139000
@<TRIPOS>BOND
     1    1    2 1   
     2    1   18 1   
     3    1   19 1   
     4    2    3 1   
     5    2   11 1   
     6    2   20 1   
     7    3    4 1   
     8    3   21 1   
     9    3   22 1   
    10    4    5 ar  
    11    4    7 ar  
    12    5    6 ar  
    13    5   23 1   
    14    6    9 ar  
    15    6   24 1   
    16    7    8 ar  
    17    7   25 1   
    18    8    9 ar  
    19    8   26 1   
    20    9   10 1   
    21   10   13 1   
    22   11   12 1   
    23   11   17 1   
    24   13   14 1   
    25   13   15 1   
    26   13   16 1   
@<TRIPOS>SUBSTRUCTURE
     1 STY         1 TEMP              0 ****  ****    0 ROOT
