@<TRIPOS>MOLECULE
STZ
   33    33     1     0     0
SMALL
bcc


@<TRIPOS>ATOM
      1 O3          0.3750    2.5230    0.3930 oh        1 STZ     -0.601800
      2 C3          0.9860    1.4310   -0.2690 c3        1 STZ      0.137100
      3 C4          2.4100    1.1960    0.2720 c3        1 STZ      0.077100
      4 O4          3.1460    2.3420   -0.1280 oh        1 STZ     -0.601800
      5 C5          3.0090   -0.0880   -0.3200 c3        1 STZ      0.073100
      6 C6          4.3190   -0.4740    0.3770 c3        1 STZ      0.139400
      7 O6          4.9180   -1.5850   -0.2490 oh        1 STZ     -0.591800
      8 O5          2.1340   -1.1930   -0.1090 os        1 STZ     -0.452600
      9 C1          0.8490   -1.0140   -0.7090 c3        1 STZ      0.337900
     10 O1          0.2530   -2.2550   -0.5060 oh        1 STZ     -0.567800
     11 C2          0.1360    0.1710    0.0120 c3        1 STZ      0.041700
     12 N2         -1.2400    0.3150   -0.4100 n         1 STZ     -0.515900
     13 CAM        -2.2070   -0.4050    0.2960 c         1 STZ      0.788100
     14 OAG        -1.8840   -1.3280    1.0780 o         1 STZ     -0.619100
     15 NAN        -3.6160   -0.1530    0.0870 n         1 STZ     -0.312800
     16 CAH        -4.4920   -1.1190    0.7420 c3        1 STZ      0.051300
     17 NAO        -4.0210    0.8900   -0.6560 n2        1 STZ      0.110700
     18 OAP        -5.1630    1.0500   -0.8010 o         1 STZ     -0.204300
     19 H3          0.9780    3.2750    0.3000 ho        1 STZ      0.430000
     20 HA          1.0380    1.6420   -1.3750 h1        1 STZ      0.061700
     21 H4          2.3800    1.1290    1.3950 h1        1 STZ      0.064700
     22 H2          0.1700   -0.0410    1.1260 h1        1 STZ      0.091700
     23 HB          4.0300    2.2590    0.2510 ho        1 STZ      0.416000
     24 H5          3.1850    0.0480   -1.4240 h1        1 STZ      0.070700
     25 H61C        5.0650    0.3580    0.2760 h1        1 STZ      0.051700
     26 H62C        4.1240   -0.6920    1.4610 h1        1 STZ      0.051700
     27 H6          4.2730   -2.3050   -0.2310 ho        1 STZ      0.422000
     28 H1          0.9300   -0.8640   -1.8190 h2        1 STZ      0.086700
     29 HC          0.0350   -2.3440    0.4350 ho        1 STZ      0.437000
     30 HD         -1.4740    1.1920   -0.8190 hn        1 STZ      0.332500
     31 HAH1       -4.3670   -1.0360    1.8540 h1        1 STZ      0.065367
     32 HAH2       -5.5610   -0.9210    0.4670 h1        1 STZ      0.065367
     33 HAH3       -4.2060   -2.1550    0.4220 h1        1 STZ      0.065367
@<TRIPOS>BOND
     1    1    2 1   
     2    1   19 1   
     3    2    3 1   
     4    2   11 1   
     5    2   20 1   
     6    3    4 1   
     7    3    5 1   
     8    3   21 1   
     9    4   23 1   
    10    5    6 1   
    11    5    8 1   
    12    5   24 1   
    13    6    7 1   
    14    6   25 1   
    15    6   26 1   
    16    7   27 1   
    17    8    9 1   
    18    9   10 1   
    19    9   11 1   
    20    9   28 1   
    21   10   29 1   
    22   11   12 1   
    23   11   22 1   
    24   12   13 1   
    25   12   30 1   
    26   13   14 2   
    27   13   15 1   
    28   15   16 1   
    29   15   17 1   
    30   16   31 1   
    31   16   32 1   
    32   16   33 1   
    33   17   18 2   
@<TRIPOS>SUBSTRUCTURE
     1 STZ         1 TEMP              0 ****  ****    0 ROOT
