@<TRIPOS>MOLECULE
STZ
   33    33     1     0     0
SMALL
bcc


@<TRIPOS>ATOM
      1 O3         -0.0370   -0.1650    0.2820 oh        1 STZ     -0.600800
      2 C3          1.3560    0.0290    0.1190 c3        1 STZ      0.106100
      3 C4          1.9340   -0.0350    1.5490 c3        1 STZ      0.123100
      4 O4          1.4830    1.0770    2.3000 oh        1 STZ     -0.592800
      5 C5          3.4670    0.0390    1.5140 c3        1 STZ      0.107100
      6 C6          4.0610   -0.2120    2.9040 c3        1 STZ      0.141400
      7 O6          5.4540    0.0060    2.9080 oh        1 STZ     -0.592800
      8 O5          3.9840   -0.9950    0.6740 os        1 STZ     -0.452600
      9 C1          3.5480   -0.8900   -0.6730 c3        1 STZ      0.319900
     10 O1          4.2480   -1.9190   -1.3080 oh        1 STZ     -0.581800
     11 C2          2.0030   -1.0780   -0.7470 c3        1 STZ     -0.008300
     12 N2          1.5010   -1.0580   -2.1040 n         1 STZ     -0.523900
     13 CAM         1.3220   -2.2840   -2.7620 c         1 STZ      0.783100
     14 OAG         1.2830   -3.3640   -2.1370 o         1 STZ     -0.596100
     15 NAN         1.0850   -2.3210   -4.1900 n         1 STZ     -0.315800
     16 CAH         0.7500   -3.6470   -4.7000 c3        1 STZ      0.051300
     17 NAO         1.1930   -1.2060   -4.9310 n2        1 STZ      0.106700
     18 OAP         0.9940   -1.2830   -6.0740 o         1 STZ     -0.200300
     19 H3         -0.4410   -0.1620   -0.5940 ho        1 STZ      0.423000
     20 HA          1.5490    1.0440   -0.3260 h1        1 STZ      0.051700
     21 H4          1.6000   -0.9920    2.0380 h1        1 STZ      0.066700
     22 H2          1.7440   -2.0790   -0.2820 h1        1 STZ      0.119700
     23 HB          0.5160    1.0430    2.2850 ho        1 STZ      0.427000
     24 H5          3.8000    1.0410    1.1260 h1        1 STZ      0.072700
     25 H61C        3.8230   -1.2560    3.2380 h1        1 STZ      0.065200
     26 H62C        3.6350    0.5380    3.6230 h1        1 STZ      0.065200
     27 H6          5.8400   -0.6120    2.2720 ho        1 STZ      0.412000
     28 H1          3.8860    0.0730   -1.1460 h2        1 STZ      0.079700
     29 HC          4.1120   -2.7340   -0.8030 ho        1 STZ      0.431000
     30 HD          1.7860   -0.2670   -2.6390 hn        1 STZ      0.314500
     31 HAH1        0.5320   -3.5970   -5.7980 h1        1 STZ      0.066367
     32 HAH2        1.6120   -4.3410   -4.5180 h1        1 STZ      0.066367
     33 HAH3       -0.1490   -4.0360   -4.1540 h1        1 STZ      0.066367
@<TRIPOS>BOND
     1    1    2 1   
     2    1   19 1   
     3    2    3 1   
     4    2   11 1   
     5    2   20 1   
     6    3    4 1   
     7    3    5 1   
     8    3   21 1   
     9    4   23 1   
    10    5    6 1   
    11    5    8 1   
    12    5   24 1   
    13    6    7 1   
    14    6   25 1   
    15    6   26 1   
    16    7   27 1   
    17    8    9 1   
    18    9   10 1   
    19    9   11 1   
    20    9   28 1   
    21   10   29 1   
    22   11   12 1   
    23   11   22 1   
    24   12   13 1   
    25   12   30 1   
    26   13   14 2   
    27   13   15 1   
    28   15   16 1   
    29   15   17 1   
    30   16   31 1   
    31   16   32 1   
    32   16   33 1   
    33   17   18 2   
@<TRIPOS>SUBSTRUCTURE
     1 STZ         1 TEMP              0 ****  ****    0 ROOT
