@<TRIPOS>MOLECULE
STZ
   35    35     1     0     0
SMALL
bcc


@<TRIPOS>ATOM
      1 O3          0.0000    0.0000    0.0000 oh        1 STZ     -0.577800
      2 C3          1.4290    0.0000    0.0000 c3        1 STZ      0.146100
      3 C4          1.9420    0.0000    1.4430 c3        1 STZ      0.148100
      4 O4          1.5290    1.2020    2.0970 oh        1 STZ     -0.520800
      5 C5          3.4690   -0.0790    1.4340 c3        1 STZ      0.137100
      6 C6          3.9870   -0.1400    2.8730 c3        1 STZ      0.236400
      7 O6          5.4160   -0.0960    2.8690 oh        1 STZ     -0.589800
      8 O5          3.8800   -1.2530    0.7300 os        1 STZ     -0.348600
      9 C1          3.4710   -1.2860   -0.6380 c3        1 STZ      0.410900
     10 O1          3.9530   -2.4830   -1.2510 oh        1 STZ     -0.623800
     11 C2          1.9420   -1.2560   -0.7120 c3        1 STZ     -0.108500
     12 N2          1.5200   -1.2290   -2.1150 ny        1 STZ      0.168200
     13 CAM         1.3940   -2.3820   -2.8020 c         1 STZ      0.201100
     14 OAG         1.6310   -3.4420   -2.2590 o         1 STZ     -0.249100
     15 NAN         1.0060   -2.3580   -4.0920 nx        1 STZ      0.217700
     16 CAH         0.8700   -3.6110   -4.8400 c3        1 STZ      0.045100
     17 NAO         0.7550   -1.2320   -4.6700 n2        1 STZ     -0.027400
     18 OAP         0.4040   -1.2100   -5.8350 o         1 STZ      0.068700
     19 H3         -0.3140    0.8770   -0.1430 ho        1 STZ      0.442000
     20 HA          1.7960    0.8810   -0.5130 h1        1 STZ      0.019700
     21 H4          1.5400   -0.8590    1.9680 h1        1 STZ      0.085700
     22 H2          1.5400   -2.1360   -0.2250 hx        1 STZ      0.141700
     23 HB          1.7310    1.9430    1.5490 ho        1 STZ      0.396000
     24 H5          3.8710    0.7960    0.9380 h1        1 STZ      0.028700
     25 H61C        3.6550   -1.0610    3.3380 h1        1 STZ      0.020200
     26 H62C        3.6020    0.7050    3.4320 h1        1 STZ      0.020200
     27 H6          5.7330   -0.0760    3.7560 ho        1 STZ      0.424000
     28 H1          3.8730   -0.4230   -1.1540 h2        1 STZ      0.007700
     29 HC          4.8960   -2.4680   -1.2710 ho        1 STZ      0.471000
     30 HD          0.6290   -0.7750   -2.1420 hn        1 STZ      0.276300
     31 HAH1        1.8290   -3.8840   -5.2650 hx        1 STZ      0.109367
     32 HAH2        0.5340   -4.3960   -4.1730 hx        1 STZ      0.109367
     33 HAH3        0.1480   -3.4800   -5.6370 hx        1 STZ      0.109367
     34 H22         2.1840   -0.6660   -2.6080 hn        1 STZ      0.276300
     35 HAN1        0.0490   -2.4270   -3.8060 hn        1 STZ      0.327800
@<TRIPOS>BOND
     1    1    2 1   
     2    1   19 1   
     3    2    3 1   
     4    2   11 1   
     5    2   20 1   
     6    3    4 1   
     7    3    5 1   
     8    3   21 1   
     9    4   23 1   
    10    5    6 1   
    11    5    8 1   
    12    5   24 1   
    13    6    7 1   
    14    6   25 1   
    15    6   26 1   
    16    7   27 1   
    17    8    9 1   
    18    9   10 1   
    19    9   11 1   
    20    9   28 1   
    21   10   29 1   
    22   11   12 1   
    23   11   22 1   
    24   12   13 1   
    25   12   30 1   
    26   12   34 1   
    27   13   14 2   
    28   13   15 1   
    29   15   16 1   
    30   15   17 1   
    31   15   35 1   
    32   16   31 1   
    33   16   32 1   
    34   16   33 1   
    35   17   18 2   
@<TRIPOS>SUBSTRUCTURE
     1 STZ         1 TEMP              0 ****  ****    0 ROOT
