@<TRIPOS>MOLECULE
SU0
   45    47     1     0     0
SMALL
bcc


@<TRIPOS>ATOM
      1 C1          0.4350    0.3030   -0.2870 ca        1 SU0     -0.465500
      2 N1         -0.0940    2.9270    0.0290 n4        1 SU0     -0.801500
      3 O1          1.2100    2.0360   -1.9460 o         1 SU0     -0.532300
      4 S1          0.1040    1.5770   -1.2730 sy        1 SU0      1.463200
      5 C2         -0.5720   -0.6140    0.0670 ca        1 SU0      0.025000
      6 O2         -1.1680    1.5290   -1.7920 o         1 SU0     -0.532300
      7 C3         -0.2830   -1.7710    0.7850 ca        1 SU0     -0.114000
      8 O3         -0.3870   -3.0930    3.4280 o         1 SU0     -0.381100
      9 C4          1.0450   -2.0270    1.1730 ca        1 SU0      0.064600
     10 O4          4.5540   -0.0200    2.9070 o         1 SU0     -0.577500
     11 C5          2.0650   -1.1140    0.8500 ca        1 SU0     -0.114000
     12 C6          1.7530    0.0300    0.1200 ca        1 SU0      0.025000
     13 C7          0.8030   -3.3200    3.3300 c         1 SU0      0.568100
     14 N7          1.3750   -3.2610    1.8960 n4        1 SU0     -0.580200
     15 C8          1.7820   -3.7160    4.4010 c3        1 SU0     -0.126200
     16 C9          3.0740   -2.9780    4.3260 cc        1 SU0      0.063600
     17 C10         3.1110   -1.7410    3.7600 cd        1 SU0     -0.374200
     18 C11         4.3710   -1.0490    3.5580 c         1 SU0      0.728800
     19 O12         5.5400   -1.5870    4.0620 os        1 SU0     -0.282200
     20 C13         5.4790   -2.8000    4.7240 ca        1 SU0      0.204100
     21 C14         6.6920   -3.2440    5.2530 ca        1 SU0     -0.187000
     22 C15         6.7150   -4.4810    5.9230 ca        1 SU0      0.234100
     23 C16         5.5330   -5.2520    6.0510 ca        1 SU0     -0.212000
     24 C17         4.3480   -4.7900    5.5210 ca        1 SU0     -0.031000
     25 C18         4.2790   -3.5540    4.8410 ca        1 SU0     -0.232800
     26 O19         7.9310   -4.8460    6.4100 os        1 SU0     -0.287900
     27 C20         8.0140   -6.0810    7.1300 c3        1 SU0      0.101700
     28 H10         2.2120   -1.1690    3.4920 ha        1 SU0      0.145000
     29 H20         9.0960   -6.1230    7.4220 h1        1 SU0      0.070033
     30 H20A        7.7470   -6.9370    6.4640 h1        1 SU0      0.070033
     31 H20B        7.3580   -6.0500    8.0340 h1        1 SU0      0.070033
     32 HN1         0.5740    3.6850   -0.1390 hn        1 SU0      0.471467
     33 H2         -1.6210   -0.4340   -0.2510 ha        1 SU0      0.202000
     34 H3         -1.1050   -2.4660    1.0460 ha        1 SU0      0.203000
     35 H14         7.6090   -2.6400    5.1540 ha        1 SU0      0.202000
     36 H5          3.1180   -1.2650    1.1690 ha        1 SU0      0.203000
     37 H6          2.5790    0.7200   -0.1560 ha        1 SU0      0.202000
     38 H16         5.5610   -6.2170    6.5830 ha        1 SU0      0.172000
     39 HN7         2.4020   -3.3530    1.9520 hn        1 SU0      0.481300
     40 H17         3.4360   -5.3940    5.6500 ha        1 SU0      0.136000
     41 H8          1.9410   -4.8320    4.3250 hc        1 SU0      0.149700
     42 H8A         1.2870   -3.5140    5.4000 hc        1 SU0      0.149700
     43 HN1A        0.0470    2.6080    0.9850 hn        1 SU0      0.471467
     44 H13        -1.0300    3.3380   -0.0200 hn        1 SU0      0.471467
     45 H72         0.9950   -4.0580    1.3650 hn        1 SU0      0.481300
@<TRIPOS>BOND
     1    1    4 1   
     2    1    5 ar  
     3    1   12 ar  
     4    2    4 1   
     5    2   32 1   
     6    2   43 1   
     7    2   44 1   
     8    3    4 2   
     9    4    6 2   
    10    5    7 ar  
    11    5   33 1   
    12    7    9 ar  
    13    7   34 1   
    14    8   13 2   
    15    9   11 ar  
    16    9   14 1   
    17   10   18 2   
    18   11   12 ar  
    19   11   36 1   
    20   12   37 1   
    21   13   14 1   
    22   13   15 1   
    23   14   39 1   
    24   14   45 1   
    25   15   16 1   
    26   15   41 1   
    27   15   42 1   
    28   16   17 2   
    29   16   25 1   
    30   17   18 1   
    31   17   28 1   
    32   18   19 1   
    33   19   20 1   
    34   20   21 ar  
    35   20   25 ar  
    36   21   22 ar  
    37   21   35 1   
    38   22   23 ar  
    39   22   26 1   
    40   23   24 ar  
    41   23   38 1   
    42   24   25 ar  
    43   24   40 1   
    44   26   27 1   
    45   27   29 1   
    46   27   30 1   
    47   27   31 1   
@<TRIPOS>SUBSTRUCTURE
     1 SU0         1 TEMP              0 ****  ****    0 ROOT
