@<TRIPOS>MOLECULE
SU0
   43    45     1     0     0
SMALL
bcc


@<TRIPOS>ATOM
      1 C1         -4.0720   -0.5470    0.0010 ca        1 SU0     -0.421500
      2 N1         -6.0410   -0.5900   -1.6670 n3        1 SU0     -1.026700
      3 O1         -5.5540   -2.5590   -0.2780 o         1 SU0     -0.661300
      4 S1         -5.6280   -1.1490   -0.2230 sy        1 SU0      1.532200
      5 C2         -3.8590    0.7070    0.5830 ca        1 SU0      0.011500
      6 O2         -6.4750   -0.5760    0.7510 o         1 SU0     -0.661300
      7 C3         -2.5820    1.2110    0.7940 ca        1 SU0     -0.201000
      8 O3         -0.4870    3.0660    1.2950 o         1 SU0     -0.570100
      9 C4         -1.4530    0.4490    0.4220 ca        1 SU0      0.131600
     10 O4          4.2650    2.1060   -3.0290 o         1 SU0     -0.549500
     11 C5         -1.6630   -0.8290   -0.1620 ca        1 SU0     -0.201000
     12 C6         -2.9500   -1.3020   -0.3600 ca        1 SU0      0.011500
     13 C7          0.2900    2.1350    1.0250 c         1 SU0      0.671100
     14 N7         -0.1350    0.8770    0.6180 n         1 SU0     -0.471100
     15 C8          1.7920    2.3460    1.1810 c3        1 SU0     -0.133200
     16 C9          2.6300    1.6540    0.1650 cc        1 SU0      0.030600
     17 C10         3.0080    2.3030   -0.9620 cd        1 SU0     -0.243200
     18 C11         3.8460    1.6620   -1.9630 c         1 SU0      0.718800
     19 O12         4.2790    0.3500   -1.7620 os        1 SU0     -0.320200
     20 C13         3.9020   -0.3010   -0.6090 ca        1 SU0      0.187100
     21 C14         4.3910   -1.6090   -0.4780 ca        1 SU0     -0.184000
     22 C15         4.0490   -2.3330    0.6700 ca        1 SU0      0.178100
     23 C16         3.2350   -1.7640    1.6690 ca        1 SU0     -0.225000
     24 C17         2.7650   -0.4700    1.5150 ca        1 SU0     -0.054000
     25 C18         3.0810    0.2940    0.3780 ca        1 SU0     -0.199800
     26 O19         4.5650   -3.6070    0.7250 os        1 SU0     -0.313900
     27 C20         4.2510   -4.3730    1.8850 c3        1 SU0      0.109700
     28 H10         2.7100    3.3400   -1.1870 ha        1 SU0      0.176000
     29 H20         3.1480   -4.5320    1.9650 h1        1 SU0      0.052367
     30 H20A        4.7780   -5.3440    1.6990 h1        1 SU0      0.052367
     31 H20B        4.6480   -3.8770    2.8040 h1        1 SU0      0.052367
     32 HN1        -6.5070    0.2700   -1.8080 hn        1 SU0      0.446800
     33 H2         -4.7310    1.3080    0.9020 ha        1 SU0      0.155000
     34 H3         -2.4650    2.2060    1.2550 ha        1 SU0      0.159000
     35 H14         5.0290   -2.0490   -1.2590 ha        1 SU0      0.181000
     36 H5         -0.8090   -1.4560   -0.4590 ha        1 SU0      0.159000
     37 H6         -3.0960   -2.3070   -0.7980 ha        1 SU0      0.155000
     38 H16         2.9710   -2.3360    2.5700 ha        1 SU0      0.151000
     39 HN7         0.5740    0.2180    0.3680 hn        1 SU0      0.330500
     40 H17         2.1330   -0.0370    2.3070 ha        1 SU0      0.142000
     41 H8          1.9660    3.4570    1.1230 hc        1 SU0      0.098700
     42 H8A         2.0760    2.0230    2.2190 hc        1 SU0      0.098700
     43 HN1A       -5.8750   -1.0780   -2.5100 hn        1 SU0      0.446800
@<TRIPOS>BOND
     1    1    4 1   
     2    1    5 ar  
     3    1   12 ar  
     4    2    4 1   
     5    2   32 1   
     6    2   43 1   
     7    3    4 2   
     8    4    6 2   
     9    5    7 ar  
    10    5   33 1   
    11    7    9 ar  
    12    7   34 1   
    13    8   13 2   
    14    9   11 ar  
    15    9   14 1   
    16   10   18 2   
    17   11   12 ar  
    18   11   36 1   
    19   12   37 1   
    20   13   14 1   
    21   13   15 1   
    22   14   39 1   
    23   15   16 1   
    24   15   41 1   
    25   15   42 1   
    26   16   17 2   
    27   16   25 1   
    28   17   18 1   
    29   17   28 1   
    30   18   19 1   
    31   19   20 1   
    32   20   21 ar  
    33   20   25 ar  
    34   21   22 ar  
    35   21   35 1   
    36   22   23 ar  
    37   22   26 1   
    38   23   24 ar  
    39   23   38 1   
    40   24   25 ar  
    41   24   40 1   
    42   26   27 1   
    43   27   29 1   
    44   27   30 1   
    45   27   31 1   
@<TRIPOS>SUBSTRUCTURE
     1 SU0         1 TEMP              0 ****  ****    0 ROOT
