@<TRIPOS>MOLECULE
SU0
   44    46     1     0     0
SMALL
bcc


@<TRIPOS>ATOM
      1 C1         -0.0080   -0.6270    0.1220 ca        1 SU0     -0.642500
      2 N1          0.0040   -0.4650   -2.5430 nz        1 SU0     -0.781500
      3 O1         -1.7980   -1.7290   -1.2410 o         1 SU0     -0.577300
      4 S1         -1.1420   -0.5470   -0.9640 sy        1 SU0      1.513200
      5 C2          0.5310    0.5400    0.7260 ca        1 SU0      0.049000
      6 O2         -1.7710    0.6720   -1.1000 o         1 SU0     -0.577300
      7 C3          1.4780    0.4910    1.7180 ca        1 SU0     -0.215500
      8 O3          3.3980    1.3300    3.6040 o         1 SU0     -0.528100
      9 C4          1.9640   -0.7640    2.1970 ca        1 SU0      0.227600
     10 O4          8.3190   -2.6970    2.5940 o         1 SU0     -0.529500
     11 C5          1.4140   -1.9510    1.6060 ca        1 SU0     -0.215500
     12 C6          0.4710   -1.8700    0.6140 ca        1 SU0      0.049000
     13 C7          3.6330    0.1370    3.8260 c         1 SU0      0.675100
     14 N7          2.9130   -0.8940    3.1800 ns        1 SU0     -0.454100
     15 C8          4.6970   -0.2920    4.8210 c3        1 SU0     -0.124200
     16 C9          5.4330   -1.5230    4.4240 cc        1 SU0      0.008600
     17 C10         6.5720   -1.4280    3.6990 cd        1 SU0     -0.230200
     18 C11         7.3030   -2.6150    3.2780 c         1 SU0      0.713800
     19 O12         6.8330   -3.8770    3.6410 os        1 SU0     -0.314200
     20 C13         5.7010   -3.9640    4.4190 ca        1 SU0      0.190100
     21 C14         5.3320   -5.2660    4.7850 ca        1 SU0     -0.180000
     22 C15         4.1900   -5.4340    5.5800 ca        1 SU0      0.186100
     23 C16         3.4290   -4.3210    5.9950 ca        1 SU0     -0.224000
     24 C17         3.8150   -3.0470    5.6170 ca        1 SU0     -0.065000
     25 C18         4.9530   -2.8310    4.8190 ca        1 SU0     -0.214800
     26 O19         3.8880   -6.7360    5.8900 os        1 SU0     -0.307900
     27 C20         2.8220   -6.9470    6.8160 c3        1 SU0      0.107700
     28 H10         7.0130   -0.4660    3.3900 ha        1 SU0      0.178000
     29 H20         1.8530   -6.6070    6.3770 h1        1 SU0      0.056700
     30 H20A        2.8270   -8.0590    6.9560 h1        1 SU0      0.056700
     31 H20B        3.0280   -6.4240    7.7810 h1        1 SU0      0.056700
     32 HN1        -0.1910   -1.2500   -3.1580 hn        1 SU0      0.449133
     33 H2          0.1560    1.5290    0.3930 ha        1 SU0      0.167000
     34 H3          1.8550    1.4370    2.1520 ha        1 SU0      0.188500
     35 H14         5.9340   -6.1300    4.4660 ha        1 SU0      0.189000
     36 H5          1.7480   -2.9440    1.9530 ha        1 SU0      0.188500
     37 H6          0.0530   -2.8040    0.1880 ha        1 SU0      0.167000
     38 H16         2.5410   -4.4590    6.6280 ha        1 SU0      0.155000
     39 HN7         3.1580   -1.8330    3.4440 hn        1 SU0      0.351500
     40 H17         3.2190   -2.1890    5.9670 ha        1 SU0      0.134000
     41 H8          4.2050   -0.4160    5.8250 hc        1 SU0      0.113700
     42 H8A         5.4160    0.5730    4.9150 hc        1 SU0      0.113700
     43 HN1A        0.9880   -0.4880   -2.3010 hn        1 SU0      0.449133
     44 H13        -0.1760    0.3910   -3.0610 hn        1 SU0      0.449133
@<TRIPOS>BOND
     1    1    4 1   
     2    1    5 ar  
     3    1   12 ar  
     4    2    4 1   
     5    2   32 1   
     6    2   43 1   
     7    2   44 1   
     8    3    4 2   
     9    4    6 2   
    10    5    7 ar  
    11    5   33 1   
    12    7    9 ar  
    13    7   34 1   
    14    8   13 2   
    15    9   11 ar  
    16    9   14 1   
    17   10   18 2   
    18   11   12 ar  
    19   11   36 1   
    20   12   37 1   
    21   13   14 1   
    22   13   15 1   
    23   14   39 1   
    24   15   16 1   
    25   15   41 1   
    26   15   42 1   
    27   16   17 2   
    28   16   25 1   
    29   17   18 1   
    30   17   28 1   
    31   18   19 1   
    32   19   20 1   
    33   20   21 ar  
    34   20   25 ar  
    35   21   22 ar  
    36   21   35 1   
    37   22   23 ar  
    38   22   26 1   
    39   23   24 ar  
    40   23   38 1   
    41   24   25 ar  
    42   24   40 1   
    43   26   27 1   
    44   27   29 1   
    45   27   30 1   
    46   27   31 1   
@<TRIPOS>SUBSTRUCTURE
     1 SU0         1 TEMP              0 ****  ****    0 ROOT
