@<TRIPOS>MOLECULE
SU0
   43    38     1     0     0
SMALL
bcc


@<TRIPOS>ATOM
      1 C1         -3.4750    1.6820   -3.7330 c1        1 SU0     -0.864000
      2 N1         -3.6450    0.6000   -6.3180 n3        1 SU0     -0.953000
      3 O1         -5.5770    1.9850   -5.3570 o         1 SU0     -0.940000
      4 S1         -4.1220    1.8590   -5.3720 s6        1 SU0      2.871000
      5 C2         -4.1320    0.7500   -2.9390 c1        1 SU0      0.012000
      6 O2         -3.7380    3.1100   -5.9450 o         1 SU0     -0.940000
      7 C3         -3.6240    0.4250   -1.6800 c1        1 SU0     -0.188000
      8 O3         -1.8990   -1.3620    0.0700 o         1 SU0     -0.325000
      9 C4         -2.4580    1.0330   -1.2190 c1        1 SU0      0.138000
     10 O4          1.0270   -4.8860    0.9980 o         1 SU0     -0.280000
     11 C5         -1.7970    1.9680   -2.0140 c2        1 SU0     -0.213000
     12 C6         -2.3010    2.2940   -3.2680 c1        1 SU0      0.011000
     13 C7         -1.4840   -0.3520    0.6270 c1        1 SU0      0.312000
     14 N7         -1.7200    0.9310    0.0430 n2        1 SU0     -0.325000
     15 C8         -0.7980   -0.4560    1.9850 c2        1 SU0     -0.169000
     16 C9          0.3340   -1.4290    1.9020 c2        1 SU0      0.041000
     17 C10         0.1050   -2.7610    1.4150 c1        1 SU0     -0.252000
     18 C11         1.1970   -3.7530    1.4640 c2        1 SU0      0.338000
     19 O12         2.4740   -3.3920    2.0450 os        1 SU0     -0.189000
     20 C13         2.7320   -1.9820    2.4670 c2        1 SU0      0.150000
     21 C14         4.0040   -1.6230    2.9610 c2        1 SU0     -0.236000
     22 C15         4.2080   -0.3520    3.5180 c1        1 SU0      0.136000
     23 C16         3.1500    0.5620    3.5840 c1        1 SU0     -0.179000
     24 C17         1.8920    0.2100    3.0960 c1        1 SU0     -0.049000
     25 C18         1.6840   -1.0780    2.5320 c2        1 SU0     -0.181000
     26 O19         5.4590   -0.0150    4.0560 os        1 SU0     -0.200000
     27 C20         6.4260    0.3640    3.0800 c3        1 SU0     -0.081000
     28 H10        -0.8000   -3.0340    1.1180 DU        1 SU0      0.158500
     29 H20         7.1080    0.9350    3.4990 h1        1 SU0      0.092333
     30 H20A        6.8530   -0.4420    2.7130 h1        1 SU0      0.092333
     31 H20B        5.9760    0.8710    2.3400 h1        1 SU0      0.092333
     32 HN1        -2.9130    0.6880   -6.8630 hn        1 SU0      0.242000
     33 H2         -4.9560    0.3220   -3.2620 ha        1 SU0      0.155000
     34 H3         -4.0900   -0.2360   -1.1160 ha        1 SU0      0.178000
     35 H14         4.7270   -2.2450    2.9160 ha        1 SU0      0.168000
     36 H5         -0.9610    2.4040   -1.6810 ha        1 SU0      0.139000
     37 H6         -1.8270    2.9660   -3.8370 ha        1 SU0      0.156000
     38 H16         3.2980    1.4710    3.9830 ha        1 SU0      0.161000
     39 HN7        -1.4890    1.6840    0.4960 hn        1 SU0      0.239000
     40 H17         1.1760    0.8280    3.1410 DU        1 SU0      0.158500
     41 H8         -0.4560    0.4110    2.2380 ha        1 SU0      0.139500
     42 H8A        -1.4280   -0.7540    2.6400 ha        1 SU0      0.139500
     43 HN1A       -4.1410   -0.2010   -6.3210 hn        1 SU0      0.242000
@<TRIPOS>BOND
     1    1    4 1   
     2    1    5 1   
     3    2    4 1   
     4    2   32 1   
     5    2   43 1   
     6    3    4 1   
     7    4    6 1   
     8    5   33 1   
     9    7    9 1   
    10    7   34 1   
    11    8   13 1   
    12    9   11 1   
    13   10   18 1   
    14   11   12 1   
    15   11   36 1   
    16   12   37 1   
    17   13   14 1   
    18   14   39 1   
    19   15   16 1   
    20   15   41 1   
    21   15   42 1   
    22   16   17 1   
    23   16   25 1   
    24   17   18 1   
    25   18   19 1   
    26   19   20 1   
    27   20   21 1   
    28   20   25 1   
    29   21   22 1   
    30   21   35 1   
    31   22   26 1   
    32   23   24 1   
    33   23   38 1   
    34   24   25 1   
    35   26   27 1   
    36   27   29 1   
    37   27   30 1   
    38   27   31 1   
@<TRIPOS>SUBSTRUCTURE
     1 SU0         1 TEMP              0 ****  ****    0 ROOT
