@<TRIPOS>MOLECULE
SU0
   44    46     1     0     0
SMALL
bcc


@<TRIPOS>ATOM
      1 C1         -0.0460   -0.6110    0.1710 ca        1 SU0     -0.642500
      2 N1         -0.0290   -0.3450   -2.4850 n4        1 SU0     -0.781500
      3 O1         -1.7940   -1.7160   -1.2430 o         1 SU0     -0.577300
      4 S1         -1.1780   -0.5250   -0.9170 sy        1 SU0      1.513200
      5 C2          0.4520    0.5480    0.8230 ca        1 SU0      0.049000
      6 O2         -1.8450    0.6780   -1.0080 o         1 SU0     -0.577300
      7 C3          1.3970    0.4900    1.8180 ca        1 SU0     -0.215500
      8 O3          3.2800    1.3160    3.7450 o         1 SU0     -0.528100
      9 C4          1.9200   -0.7670    2.2490 ca        1 SU0      0.227600
     10 O4          8.3330   -2.5060    2.6030 o         1 SU0     -0.529500
     11 C5          1.4110   -1.9460    1.6100 ca        1 SU0     -0.215500
     12 C6          0.4700   -1.8570    0.6170 ca        1 SU0      0.049000
     13 C7          3.5530    0.1230    3.9210 c         1 SU0      0.675100
     14 N7          2.8690   -0.9050    3.2320 n         1 SU0     -0.454100
     15 C8          4.6260   -0.3100    4.9040 c3        1 SU0     -0.124200
     16 C9          5.4040   -1.5000    4.4630 cc        1 SU0      0.008600
     17 C10         6.5420   -1.3390    3.7480 cd        1 SU0     -0.230200
     18 C11         7.3130   -2.4840    3.2840 c         1 SU0      0.713800
     19 O12         6.8830   -3.7740    3.5940 os        1 SU0     -0.314200
     20 C13         5.7510   -3.9290    4.3630 ca        1 SU0      0.190100
     21 C14         5.4230   -5.2560    4.6750 ca        1 SU0     -0.180000
     22 C15         4.2840   -5.4920    5.4570 ca        1 SU0      0.186100
     23 C16         3.4860   -4.4220    5.9120 ca        1 SU0     -0.224000
     24 C17         3.8320   -3.1220    5.5870 ca        1 SU0     -0.065000
     25 C18         4.9650   -2.8380    4.8040 ca        1 SU0     -0.214800
     26 O19         4.0240   -6.8140    5.7130 os        1 SU0     -0.307900
     27 C20         2.9620   -7.0960    6.6240 c3        1 SU0      0.107700
     28 H10         6.9520   -0.3520    3.4790 ha        1 SU0      0.178000
     29 H20         3.0020   -8.2120    6.7210 h1        1 SU0      0.056700
     30 H20A        1.9840   -6.7710    6.1940 h1        1 SU0      0.056700
     31 H20B        3.1470   -6.6060    7.6100 h1        1 SU0      0.056700
     32 HN1         0.9540   -0.3460   -2.2390 hn        1 SU0      0.449133
     33 H2          0.0470    1.5360    0.5270 ha        1 SU0      0.167000
     34 H3          1.7410    1.4300    2.2900 ha        1 SU0      0.188500
     35 H14         6.0540   -6.0870    4.3250 ha        1 SU0      0.189000
     36 H5          1.7750   -2.9410    1.9200 ha        1 SU0      0.188500
     37 H6          0.0840   -2.7860    0.1530 ha        1 SU0      0.167000
     38 H16         2.6010   -4.6140    6.5350 ha        1 SU0      0.155000
     39 HN7         3.1430   -1.8440    3.4610 hn        1 SU0      0.351500
     40 H17         3.2070   -2.2980    5.9670 ha        1 SU0      0.134000
     41 H8          5.3160    0.5730    5.0360 hc        1 SU0      0.113700
     42 H8A         4.1350   -0.4900    5.9000 hc        1 SU0      0.113700
     43 HN1A       -0.1950   -1.1110   -3.1320 hn        1 SU0      0.449133
     44 H13        -0.2340    0.5250   -2.9700 hn        1 SU0      0.449133
@<TRIPOS>BOND
     1    1    4 1   
     2    1    5 ar  
     3    1   12 ar  
     4    2    4 1   
     5    2   32 1   
     6    2   43 1   
     7    2   44 1   
     8    3    4 2   
     9    4    6 2   
    10    5    7 ar  
    11    5   33 1   
    12    7    9 ar  
    13    7   34 1   
    14    8   13 2   
    15    9   11 ar  
    16    9   14 1   
    17   10   18 2   
    18   11   12 ar  
    19   11   36 1   
    20   12   37 1   
    21   13   14 1   
    22   13   15 1   
    23   14   39 1   
    24   15   16 1   
    25   15   41 1   
    26   15   42 1   
    27   16   17 2   
    28   16   25 1   
    29   17   18 1   
    30   17   28 1   
    31   18   19 1   
    32   19   20 1   
    33   20   21 ar  
    34   20   25 ar  
    35   21   22 ar  
    36   21   35 1   
    37   22   23 ar  
    38   22   26 1   
    39   23   24 ar  
    40   23   38 1   
    41   24   25 ar  
    42   24   40 1   
    43   26   27 1   
    44   27   29 1   
    45   27   30 1   
    46   27   31 1   
@<TRIPOS>SUBSTRUCTURE
     1 SU0         1 TEMP              0 ****  ****    0 ROOT
