@<TRIPOS>MOLECULE
SU1
   37    39     1     0     0
SMALL
bcc


@<TRIPOS>ATOM
      1 N1         -0.2250   -0.6500    0.3070 ns        1 SU1     -0.482100
      2 C2          1.1460   -0.5670   -0.0250 c         1 SU1      0.721700
      3 O2          1.5480   -0.8990   -1.1570 o         1 SU1     -0.688500
      4 C3          1.8810   -0.0430    1.1670 cc        1 SU1     -0.202400
      5 C4          0.9310    0.5760    3.5130 ca        1 SU1     -0.074000
      6 C5         -0.2540    0.6380    4.2640 ca        1 SU1     -0.158000
      7 C6         -1.4780    0.2690    3.7180 ca        1 SU1     -0.124000
      8 C7         -1.5830   -0.1820    2.3950 ca        1 SU1     -0.184000
      9 C8         -0.4160   -0.2460    1.6410 ca        1 SU1      0.031600
     10 C9          0.8530    0.1380    2.2040 ca        1 SU1     -0.078800
     11 C10         3.1830    0.2420    1.3650 cf        1 SU1      0.053800
     12 N1'         4.3410   -0.3670   -0.8100 na        1 SU1     -0.149100
     13 C2'         4.3140    0.1260    0.5020 cd        1 SU1     -0.152100
     14 C3'         5.6450    0.4990    0.8550 cc        1 SU1     -0.047300
     15 C4'         6.4720    0.2190   -0.2780 cc        1 SU1     -0.187300
     16 C5'         5.6330   -0.3140   -1.2820 cd        1 SU1     -0.146300
     17 C11         7.9140    0.4380   -0.3880 c3        1 SU1     -0.008800
     18 C12         6.0640    1.0910    2.1360 c3        1 SU1     -0.017100
     19 C13         5.9360    0.1430    3.3150 c3        1 SU1     -0.196400
     20 C14         5.1450    0.7700    4.4740 c         1 SU1      0.909600
     21 O3          4.0160    1.2980    4.2160 o         1 SU1     -0.851300
     22 O4          5.6350    0.7190    5.6330 o         1 SU1     -0.851300
     23 HN1        -0.9300   -1.0090   -0.2770 hn        1 SU1      0.323500
     24 H4          1.9040    0.8690    3.9600 ha        1 SU1      0.218000
     25 H5         -0.2010    0.9850    5.3070 ha        1 SU1      0.132000
     26 H6         -2.3890    0.3270    4.3300 ha        1 SU1      0.113000
     27 H7         -2.5550   -0.4710    1.9770 ha        1 SU1      0.119000
     28 H101        3.4670    0.6440    2.3840 ha        1 SU1      0.239000
     29 H5'1        5.8920   -0.6510   -2.2860 h4        1 SU1      0.152000
     30 H111        8.4580   -0.1150    0.4190 hc        1 SU1      0.030033
     31 H112        8.2990    0.0900   -1.3780 hc        1 SU1      0.030033
     32 H113        8.1550    1.5260   -0.2780 hc        1 SU1      0.030033
     33 H121        7.1280    1.4400    2.0450 hc        1 SU1      0.052200
     34 H122        5.4270    2.0010    2.3350 hc        1 SU1      0.052200
     35 H131        5.4000   -0.7920    3.0120 hc        1 SU1      0.033700
     36 H132        6.9510   -0.1490    3.6820 hc        1 SU1      0.033700
     37 HN1'        3.5490   -0.6990   -1.3070 hn        1 SU1      0.325700
@<TRIPOS>BOND
     1    1    2 1   
     2    1    9 1   
     3    1   23 1   
     4    2    3 2   
     5    2    4 1   
     6    4   10 1   
     7    4   11 2   
     8    5    6 ar  
     9    5   10 ar  
    10    5   24 1   
    11    6    7 ar  
    12    6   25 1   
    13    7    8 ar  
    14    7   26 1   
    15    8    9 ar  
    16    8   27 1   
    17    9   10 ar  
    18   11   13 1   
    19   11   28 1   
    20   12   13 1   
    21   12   16 1   
    22   12   37 1   
    23   13   14 2   
    24   14   15 1   
    25   14   18 1   
    26   15   16 2   
    27   15   17 1   
    28   16   29 1   
    29   17   30 1   
    30   17   31 1   
    31   17   32 1   
    32   18   19 1   
    33   18   33 1   
    34   18   34 1   
    35   19   20 1   
    36   19   35 1   
    37   19   36 1   
    38   20   21 1   
    39   20   22 1   
@<TRIPOS>SUBSTRUCTURE
     1 SU1         1 TEMP              0 ****  ****    0 ROOT
