@<TRIPOS>MOLECULE
SU1
   37    39     1     0     0
SMALL
bcc


@<TRIPOS>ATOM
      1 N1          1.1420   -0.2840   -3.7710 n         1 SU1     -0.482100
      2 C2          1.6280   -0.2570   -2.4440 c         1 SU1      0.721700
      3 O2          2.8450   -0.3850   -2.2090 o         1 SU1     -0.688500
      4 C3          0.4640   -0.0570   -1.5280 cc        1 SU1     -0.202400
      5 C4         -2.0610    0.1520   -2.1380 ca        1 SU1     -0.074000
      6 C5         -2.9580    0.1630   -3.2180 ca        1 SU1     -0.158000
      7 C6         -2.5150    0.0250   -4.5290 ca        1 SU1     -0.124000
      8 C7         -1.1550   -0.1340   -4.8290 ca        1 SU1     -0.184000
      9 C8         -0.2580   -0.1460   -3.7670 ca        1 SU1      0.031600
     10 C9         -0.7140   -0.0000   -2.4090 ca        1 SU1     -0.078800
     11 C10         0.3860    0.0650   -0.1870 cf        1 SU1      0.053800
     12 N1'         2.7690   -0.1870    0.6470 na        1 SU1     -0.149100
     13 C2'         1.3950    0.0280    0.8210 cd        1 SU1     -0.152100
     14 C3'         1.1530    0.2000    2.2160 cc        1 SU1     -0.047300
     15 C4'         2.4170    0.0860    2.8770 cc        1 SU1     -0.187300
     16 C5'         3.3870   -0.1530    1.8770 cd        1 SU1     -0.146300
     17 C11         2.6700    0.1940    4.3140 c3        1 SU1     -0.008800
     18 C12        -0.1520    0.4780    2.8380 c3        1 SU1     -0.017100
     19 C13        -1.1330   -0.6770    2.7340 c3        1 SU1     -0.196400
     20 C14        -2.4830   -0.2330    2.1510 c         1 SU1      0.909600
     21 O3         -2.4810    0.4350    1.0680 o         1 SU1     -0.851300
     22 O4         -3.5380   -0.5640    2.7570 o         1 SU1     -0.851300
     23 HN1         1.6870   -0.4510   -4.5710 hn        1 SU1      0.323500
     24 H4         -2.4260    0.2580   -1.0940 ha        1 SU1      0.218000
     25 H5         -4.0320    0.2830   -3.0110 ha        1 SU1      0.132000
     26 H6         -3.2410    0.0370   -5.3550 ha        1 SU1      0.113000
     27 H7         -0.8210   -0.2440   -5.8670 ha        1 SU1      0.119000
     28 H101       -0.6460    0.2230    0.2510 ha        1 SU1      0.239000
     29 H5'1        4.4620   -0.2990    1.9840 h4        1 SU1      0.152000
     30 H111        2.3840    1.2100    4.6870 hc        1 SU1      0.030033
     31 H112        2.0630   -0.5610    4.8760 hc        1 SU1      0.030033
     32 H113        3.7500    0.0230    4.5450 hc        1 SU1      0.030033
     33 H121        0.0080    0.7420    3.9180 hc        1 SU1      0.052200
     34 H122       -0.6040    1.3800    2.3340 hc        1 SU1      0.052200
     35 H131       -0.7280   -1.4780    2.0650 hc        1 SU1      0.033700
     36 H132       -1.3010   -1.1270    3.7430 hc        1 SU1      0.033700
     37 HN1'        3.2130   -0.3370   -0.2270 hn        1 SU1      0.325700
@<TRIPOS>BOND
     1    1    2 1   
     2    1    9 1   
     3    1   23 1   
     4    2    3 2   
     5    2    4 1   
     6    4   10 1   
     7    4   11 2   
     8    5    6 ar  
     9    5   10 ar  
    10    5   24 1   
    11    6    7 ar  
    12    6   25 1   
    13    7    8 ar  
    14    7   26 1   
    15    8    9 ar  
    16    8   27 1   
    17    9   10 ar  
    18   11   13 1   
    19   11   28 1   
    20   12   13 1   
    21   12   16 1   
    22   12   37 1   
    23   13   14 2   
    24   14   15 1   
    25   14   18 1   
    26   15   16 2   
    27   15   17 1   
    28   16   29 1   
    29   17   30 1   
    30   17   31 1   
    31   17   32 1   
    32   18   19 1   
    33   18   33 1   
    34   18   34 1   
    35   19   20 1   
    36   19   35 1   
    37   19   36 1   
    38   20   21 1   
    39   20   22 1   
@<TRIPOS>SUBSTRUCTURE
     1 SU1         1 TEMP              0 ****  ****    0 ROOT
