@<TRIPOS>MOLECULE
SU1
   37    39     1     0     0
SMALL
bcc


@<TRIPOS>ATOM
      1 N1         -0.2140   -0.7040    0.3140 n         1 SU1     -0.482100
      2 C2          1.1570   -0.6190   -0.0150 c         1 SU1      0.721700
      3 O2          1.5660   -0.9740   -1.1370 o         1 SU1     -0.688500
      4 C3          1.8840   -0.0640    1.1670 cc        1 SU1     -0.202400
      5 C4          0.9210    0.6020    3.4950 ca        1 SU1     -0.074000
      6 C5         -0.2660    0.6730    4.2410 ca        1 SU1     -0.158000
      7 C6         -1.4860    0.2840    3.6990 ca        1 SU1     -0.124000
      8 C7         -1.5830   -0.1970    2.3850 ca        1 SU1     -0.184000
      9 C8         -0.4130   -0.2710    1.6370 ca        1 SU1      0.031600
     10 C9          0.8510    0.1340    2.1960 ca        1 SU1     -0.078800
     11 C10         3.1840    0.2340    1.3640 cf        1 SU1      0.053800
     12 N1'         4.3540   -0.4170   -0.7930 na        1 SU1     -0.149100
     13 C2'         4.3190    0.1050    0.5070 cd        1 SU1     -0.152100
     14 C3'         5.6460    0.4950    0.8570 cc        1 SU1     -0.047300
     15 C4'         6.4800    0.1950   -0.2660 cc        1 SU1     -0.187300
     16 C5'         5.6470   -0.3660   -1.2610 cd        1 SU1     -0.146300
     17 C11         7.9200    0.4210   -0.3760 c3        1 SU1     -0.008800
     18 C12         6.0570    1.1190    2.1260 c3        1 SU1     -0.017100
     19 C13         5.9300    0.1960    3.3250 c3        1 SU1     -0.196400
     20 C14         5.1310    0.8440    4.4670 c         1 SU1      0.909600
     21 O3          4.0000    1.3590    4.1930 o         1 SU1     -0.851300
     22 O4          5.6170    0.8220    5.6290 o         1 SU1     -0.851300
     23 HN1        -0.9140   -1.0800   -0.2640 hn        1 SU1      0.323500
     24 H4          1.8910    0.9110    3.9400 ha        1 SU1      0.218000
     25 H5         -0.2190    1.0440    5.2760 ha        1 SU1      0.132000
     26 H6         -2.4000    0.3500    4.3060 ha        1 SU1      0.113000
     27 H7         -2.5520   -0.5020    1.9710 ha        1 SU1      0.119000
     28 H101        3.4620    0.6610    2.3740 ha        1 SU1      0.239000
     29 H5'1        5.9120   -0.7240   -2.2560 h4        1 SU1      0.152000
     30 H111        8.4650   -0.1120    0.4450 hc        1 SU1      0.030033
     31 H112        8.3110    0.0530   -1.3570 hc        1 SU1      0.030033
     32 H113        8.1540    1.5120   -0.2890 hc        1 SU1      0.030033
     33 H121        7.1190    1.4720    2.0310 hc        1 SU1      0.052200
     34 H122        5.4130    2.0280    2.3020 hc        1 SU1      0.052200
     35 H131        5.4010   -0.7490    3.0420 hc        1 SU1      0.033700
     36 H132        6.9460   -0.0810    3.7030 hc        1 SU1      0.033700
     37 HN1'        3.5660   -0.7640   -1.2850 hn        1 SU1      0.325700
@<TRIPOS>BOND
     1    1    2 1   
     2    1    9 1   
     3    1   23 1   
     4    2    3 2   
     5    2    4 1   
     6    4   10 1   
     7    4   11 2   
     8    5    6 ar  
     9    5   10 ar  
    10    5   24 1   
    11    6    7 ar  
    12    6   25 1   
    13    7    8 ar  
    14    7   26 1   
    15    8    9 ar  
    16    8   27 1   
    17    9   10 ar  
    18   11   13 1   
    19   11   28 1   
    20   12   13 1   
    21   12   16 1   
    22   12   37 1   
    23   13   14 2   
    24   14   15 1   
    25   14   18 1   
    26   15   16 2   
    27   15   17 1   
    28   16   29 1   
    29   17   30 1   
    30   17   31 1   
    31   17   32 1   
    32   18   19 1   
    33   18   33 1   
    34   18   34 1   
    35   19   20 1   
    36   19   35 1   
    37   19   36 1   
    38   20   21 1   
    39   20   22 1   
@<TRIPOS>SUBSTRUCTURE
     1 SU1         1 TEMP              0 ****  ****    0 ROOT
