@<TRIPOS>MOLECULE
SU1
   37    39     1     0     0
SMALL
bcc


@<TRIPOS>ATOM
      1 N1         -0.2170   -0.6380    0.2800 n         1 SU1     -0.482100
      2 C2          1.1560   -0.5590   -0.0420 c         1 SU1      0.721700
      3 O2          1.5660   -0.8940   -1.1700 o         1 SU1     -0.688500
      4 C3          1.8840   -0.0380    1.1550 cc        1 SU1     -0.202400
      5 C4          0.9180    0.5860    3.4940 ca        1 SU1     -0.074000
      6 C5         -0.2720    0.6520    4.2360 ca        1 SU1     -0.158000
      7 C6         -1.4930    0.2870    3.6810 ca        1 SU1     -0.124000
      8 C7         -1.5900   -0.1640    2.3570 ca        1 SU1     -0.184000
      9 C8         -0.4180   -0.2330    1.6120 ca        1 SU1      0.031600
     10 C9          0.8480    0.1480    2.1840 ca        1 SU1     -0.078800
     11 C10         3.1860    0.2430    1.3630 cf        1 SU1      0.053800
     12 N1'         4.3580   -0.3720   -0.8020 na        1 SU1     -0.149100
     13 C2'         4.3220    0.1220    0.5090 cd        1 SU1     -0.152100
     14 C3'         5.6520    0.4900    0.8720 cc        1 SU1     -0.047300
     15 C4'         6.4870    0.2070   -0.2540 cc        1 SU1     -0.187300
     16 C5'         5.6540   -0.3240   -1.2640 cd        1 SU1     -0.146300
     17 C11         7.9310    0.4210   -0.3530 c3        1 SU1     -0.008800
     18 C12         6.0630    1.0820    2.1560 c3        1 SU1     -0.017100
     19 C13         5.9230    0.1350    3.3340 c3        1 SU1     -0.196400
     20 C14         5.1250    0.7650    4.4870 c         1 SU1      0.909600
     21 O3          4.0010    1.2970    4.2200 o         1 SU1     -0.851300
     22 O4          5.6060    0.7110    5.6510 o         1 SU1     -0.851300
     23 HN1        -0.9190   -0.9940   -0.3090 hn        1 SU1      0.323500
     24 H4          1.8890    0.8750    3.9490 ha        1 SU1      0.218000
     25 H5         -0.2260    0.9990    5.2790 ha        1 SU1      0.132000
     26 H6         -2.4090    0.3490    4.2860 ha        1 SU1      0.113000
     27 H7         -2.5590   -0.4500    1.9320 ha        1 SU1      0.119000
     28 H101        3.4630    0.6450    2.3840 ha        1 SU1      0.239000
     29 H5'1        5.9190   -0.6620   -2.2660 h4        1 SU1      0.152000
     30 H111        8.1750    1.5080   -0.2430 hc        1 SU1      0.030033
     31 H112        8.4660   -0.1330    0.4590 hc        1 SU1      0.030033
     32 H113        8.3220    0.0690   -1.3390 hc        1 SU1      0.030033
     33 H121        5.4280    1.9940    2.3500 hc        1 SU1      0.052200
     34 H122        7.1290    1.4270    2.0740 hc        1 SU1      0.052200
     35 H131        5.3860   -0.7990    3.0280 hc        1 SU1      0.033700
     36 H132        6.9340   -0.1610    3.7100 hc        1 SU1      0.033700
     37 HN1'        3.5690   -0.7000   -1.3050 hn        1 SU1      0.325700
@<TRIPOS>BOND
     1    1    2 1   
     2    1    9 1   
     3    1   23 1   
     4    2    3 2   
     5    2    4 1   
     6    4   10 1   
     7    4   11 2   
     8    5    6 ar  
     9    5   10 ar  
    10    5   24 1   
    11    6    7 ar  
    12    6   25 1   
    13    7    8 ar  
    14    7   26 1   
    15    8    9 ar  
    16    8   27 1   
    17    9   10 ar  
    18   11   13 1   
    19   11   28 1   
    20   12   13 1   
    21   12   16 1   
    22   12   37 1   
    23   13   14 2   
    24   14   15 1   
    25   14   18 1   
    26   15   16 2   
    27   15   17 1   
    28   16   29 1   
    29   17   30 1   
    30   17   31 1   
    31   17   32 1   
    32   18   19 1   
    33   18   33 1   
    34   18   34 1   
    35   19   20 1   
    36   19   35 1   
    37   19   36 1   
    38   20   21 1   
    39   20   22 1   
@<TRIPOS>SUBSTRUCTURE
     1 SU1         1 TEMP              0 ****  ****    0 ROOT
