@<TRIPOS>MOLECULE
SU2
   46    49     1     0     0
SMALL
bcc


@<TRIPOS>ATOM
      1 N1         -1.0270   -0.6910    0.2920 n         1 SU2     -0.480100
      2 C2          0.2550   -1.0300   -0.1770 c         1 SU2      0.700500
      3 O2          0.4580   -1.6130   -1.2480 o         1 SU2     -0.609500
      4 C3          1.3080   -0.5360    0.8470 c3        1 SU2     -0.078400
      5 C4          0.7860    0.6650    3.1190 ca        1 SU2     -0.076000
      6 C5         -0.2380    1.1590    3.9420 ca        1 SU2     -0.162000
      7 C6         -1.5720    1.0450    3.5660 ca        1 SU2     -0.093000
      8 C7         -1.9430    0.4380    2.3600 ca        1 SU2     -0.167000
      9 C8         -0.9300   -0.0520    1.5390 ca        1 SU2      0.059600
     10 C9          0.4480    0.0630    1.9260 ca        1 SU2     -0.146300
     11 C10         2.2010   -1.6650    1.3380 c3        1 SU2     -0.012100
     12 C1'         3.5370   -1.6630    0.6820 ca        1 SU2     -0.120300
     13 C2'         4.7000   -1.4920    1.4380 ca        1 SU2     -0.101000
     14 C3'         5.9530   -1.5110    0.8370 ca        1 SU2     -0.167000
     15 C4'         6.0820   -1.7080   -0.5580 ca        1 SU2      0.133600
     16 C5'         4.9010   -1.8860   -1.3120 ca        1 SU2     -0.167000
     17 C6'         3.6540   -1.8590   -0.6980 ca        1 SU2     -0.101000
     18 N1'         9.8340   -2.1550   -2.5790 n         1 SU2     -0.479800
     19 C11        10.5510   -3.0390   -3.3620 c         1 SU2      0.657900
     20 O3         11.3060   -3.9030   -2.8840 o         1 SU2     -0.600100
     21 C2B         8.8210   -1.3010   -3.1480 c3        1 SU2      0.084500
     22 C3B         7.4000   -1.5840   -2.6050 c3        1 SU2      0.162800
     23 N4'         7.3690   -1.6400   -1.1540 nh        1 SU2     -0.635000
     24 C5B         8.3600   -2.5510   -0.5980 c3        1 SU2      0.162800
     25 C6B         9.7810   -2.2820   -1.1410 c3        1 SU2      0.084500
     26 HN1        -1.8770   -0.9150   -0.1540 hn        1 SU2      0.340500
     27 H3          1.9220    0.2620    0.3470 hc        1 SU2      0.105700
     28 H4          1.8380    0.7590    3.4250 ha        1 SU2      0.139000
     29 H5          0.0240    1.6410    4.8960 ha        1 SU2      0.136000
     30 H6         -2.3600    1.4390    4.2260 ha        1 SU2      0.135000
     31 H7         -3.0010    0.3570    2.0770 ha        1 SU2      0.141000
     32 H101        2.3240   -1.5670    2.4510 hc        1 SU2      0.061700
     33 H102        1.7010   -2.6530    1.1440 hc        1 SU2      0.061700
     34 H2'         4.6300   -1.3380    2.5260 ha        1 SU2      0.145000
     35 H3'         6.8450   -1.3550    1.4630 ha        1 SU2      0.135000
     36 H5'         4.9430   -2.0520   -2.3990 ha        1 SU2      0.135000
     37 H6'         2.7410   -1.9950   -1.3040 ha        1 SU2      0.145000
     38 H11        10.4360   -2.8790   -4.4590 h5        1 SU2      0.030200
     39 H2'1        8.7910   -1.4190   -4.2670 h1        1 SU2      0.063450
     40 H2'2        9.0930   -0.2320   -2.9130 h1        1 SU2      0.063450
     41 H3'1        7.0200   -2.5400   -3.0700 h1        1 SU2      0.047200
     42 H3'2        6.7340   -0.7400   -2.9400 h1        1 SU2      0.047200
     43 H5'1        8.0870   -3.6260   -0.8060 h1        1 SU2      0.047200
     44 H5'2        8.3930   -2.4120    0.5180 h1        1 SU2      0.047200
     45 H6'1       10.4480   -3.1300   -0.8150 h1        1 SU2      0.063450
     46 H6'2       10.1690   -1.3240   -0.6920 h1        1 SU2      0.063450
@<TRIPOS>BOND
     1    1    2 1   
     2    1    9 1   
     3    1   26 1   
     4    2    3 2   
     5    2    4 1   
     6    4   10 1   
     7    4   11 1   
     8    4   27 1   
     9    5    6 ar  
    10    5   10 ar  
    11    5   28 1   
    12    6    7 ar  
    13    6   29 1   
    14    7    8 ar  
    15    7   30 1   
    16    8    9 ar  
    17    8   31 1   
    18    9   10 ar  
    19   11   12 1   
    20   11   32 1   
    21   11   33 1   
    22   12   13 ar  
    23   12   17 ar  
    24   13   14 ar  
    25   13   34 1   
    26   14   15 ar  
    27   14   35 1   
    28   15   16 ar  
    29   15   23 1   
    30   16   17 ar  
    31   16   36 1   
    32   17   37 1   
    33   18   19 1   
    34   18   21 1   
    35   18   25 1   
    36   19   20 2   
    37   19   38 1   
    38   21   22 1   
    39   21   39 1   
    40   21   40 1   
    41   22   23 1   
    42   22   41 1   
    43   22   42 1   
    44   23   24 1   
    45   24   25 1   
    46   24   43 1   
    47   24   44 1   
    48   25   45 1   
    49   25   46 1   
@<TRIPOS>SUBSTRUCTURE
     1 SU2         1 TEMP              0 ****  ****    0 ROOT
