@<TRIPOS>MOLECULE
SU2
   46    49     1     0     0
SMALL
bcc


@<TRIPOS>ATOM
      1 N1         -1.0320   -0.7320    0.3070 n         1 SU2     -0.480100
      2 C2          0.2510   -1.0690   -0.1610 c         1 SU2      0.700500
      3 O2          0.4540   -1.6700   -1.2220 o         1 SU2     -0.609500
      4 C3          1.3040   -0.5470    0.8480 c3        1 SU2     -0.078400
      5 C4          0.7810    0.6920    3.1000 ca        1 SU2     -0.076000
      6 C5         -0.2430    1.1910    3.9190 ca        1 SU2     -0.162000
      7 C6         -1.5780    1.0590    3.5510 ca        1 SU2     -0.093000
      8 C7         -1.9490    0.4270    2.3580 ca        1 SU2     -0.167000
      9 C8         -0.9350   -0.0700    1.5420 ca        1 SU2      0.059600
     10 C9          0.4430    0.0650    1.9200 ca        1 SU2     -0.146300
     11 C10         2.2090   -1.6580    1.3550 c3        1 SU2     -0.012100
     12 C1'         3.5420   -1.6560    0.6930 ca        1 SU2     -0.120300
     13 C2'         4.7070   -1.4600    1.4400 ca        1 SU2     -0.101000
     14 C3'         5.9570   -1.4780    0.8340 ca        1 SU2     -0.167000
     15 C4'         6.0820   -1.7010   -0.5580 ca        1 SU2      0.133600
     16 C5'         4.8990   -1.9040   -1.3020 ca        1 SU2     -0.167000
     17 C6'         3.6540   -1.8770   -0.6830 ca        1 SU2     -0.101000
     18 N1'         9.8280   -2.1500   -2.5890 n         1 SU2     -0.479800
     19 C11        10.5500   -3.0430   -3.3580 c         1 SU2      0.657900
     20 O3         11.3150   -3.8900   -2.8680 o         1 SU2     -0.600100
     21 C2B         8.8040   -1.3180   -3.1690 c3        1 SU2      0.084500
     22 C3B         7.3880   -1.6030   -2.6140 c3        1 SU2      0.162800
     23 N4'         7.3650   -1.6320   -1.1620 nh        1 SU2     -0.635000
     24 C5B         8.3670   -2.5220   -0.5930 c3        1 SU2      0.162800
     25 C6B         9.7830   -2.2510   -1.1490 c3        1 SU2      0.084500
     26 HN1        -1.8820   -0.9720   -0.1310 hn        1 SU2      0.340500
     27 H3          1.9080    0.2470    0.3310 hc        1 SU2      0.105700
     28 H4          1.8340    0.8010    3.3990 ha        1 SU2      0.139000
     29 H5          0.0180    1.6930    4.8620 ha        1 SU2      0.136000
     30 H6         -2.3670    1.4580    4.2070 ha        1 SU2      0.135000
     31 H7         -3.0070    0.3310    2.0810 ha        1 SU2      0.141000
     32 H101        2.3360   -1.5380    2.4660 hc        1 SU2      0.061700
     33 H102        1.7170   -2.6540    1.1820 hc        1 SU2      0.061700
     34 H2'         4.6400   -1.2860    2.5250 ha        1 SU2      0.145000
     35 H3'         6.8510   -1.3020    1.4520 ha        1 SU2      0.135000
     36 H5'         4.9370   -2.0910   -2.3860 ha        1 SU2      0.135000
     37 H6'         2.7400   -2.0330   -1.2820 ha        1 SU2      0.145000
     38 H11        10.4280   -2.9050   -4.4580 h5        1 SU2      0.030200
     39 H2'1        8.7700   -1.4570   -4.2850 h1        1 SU2      0.063450
     40 H2'2        9.0670   -0.2420   -2.9550 h1        1 SU2      0.063450
     41 H3'1        7.0160   -2.5720   -3.0580 h1        1 SU2      0.047200
     42 H3'2        6.7130   -0.7720   -2.9620 h1        1 SU2      0.047200
     43 H5'1        8.4040   -2.3620    0.5200 h1        1 SU2      0.047200
     44 H5'2        8.1030   -3.6040   -0.7800 h1        1 SU2      0.047200
     45 H6'1       10.1640   -1.2810   -0.7200 h1        1 SU2      0.063450
     46 H6'2       10.4600   -3.0860   -0.8100 h1        1 SU2      0.063450
@<TRIPOS>BOND
     1    1    2 1   
     2    1    9 1   
     3    1   26 1   
     4    2    3 2   
     5    2    4 1   
     6    4   10 1   
     7    4   11 1   
     8    4   27 1   
     9    5    6 ar  
    10    5   10 ar  
    11    5   28 1   
    12    6    7 ar  
    13    6   29 1   
    14    7    8 ar  
    15    7   30 1   
    16    8    9 ar  
    17    8   31 1   
    18    9   10 ar  
    19   11   12 1   
    20   11   32 1   
    21   11   33 1   
    22   12   13 ar  
    23   12   17 ar  
    24   13   14 ar  
    25   13   34 1   
    26   14   15 ar  
    27   14   35 1   
    28   15   16 ar  
    29   15   23 1   
    30   16   17 ar  
    31   16   36 1   
    32   17   37 1   
    33   18   19 1   
    34   18   21 1   
    35   18   25 1   
    36   19   20 2   
    37   19   38 1   
    38   21   22 1   
    39   21   39 1   
    40   21   40 1   
    41   22   23 1   
    42   22   41 1   
    43   22   42 1   
    44   23   24 1   
    45   24   25 1   
    46   24   43 1   
    47   24   44 1   
    48   25   45 1   
    49   25   46 1   
@<TRIPOS>SUBSTRUCTURE
     1 SU2         1 TEMP              0 ****  ****    0 ROOT
