@<TRIPOS>MOLECULE
SU2
   46    49     1     0     0
SMALL
bcc


@<TRIPOS>ATOM
      1 N1          1.9170    0.7870    4.9130 n         1 SU2     -0.480100
      2 C2          1.7970    0.7860    3.5110 c         1 SU2      0.700500
      3 O2          2.6640    1.2330    2.7520 o         1 SU2     -0.609500
      4 C3          0.4470    0.1310    3.1270 c3        1 SU2     -0.078400
      5 C4         -1.3560   -0.7590    4.8110 ca        1 SU2     -0.076000
      6 C5         -1.6590   -0.9440    6.1690 ca        1 SU2     -0.162000
      7 C6         -0.7660   -0.5490    7.1590 ca        1 SU2     -0.093000
      8 C7          0.4620    0.0450    6.8410 ca        1 SU2     -0.167000
      9 C8          0.7670    0.2300    5.4950 ca        1 SU2      0.059600
     10 C9         -0.1530   -0.1770    4.4710 ca        1 SU2     -0.146300
     11 C10        -0.4130    1.0520    2.2740 c3        1 SU2     -0.012100
     12 C1'        -0.3730    0.6940    0.8300 ca        1 SU2     -0.120300
     13 C2'        -1.5390    0.3080    0.1600 ca        1 SU2     -0.101000
     14 C3'        -1.5160   -0.0070   -1.1930 ca        1 SU2     -0.167000
     15 C4'        -0.3090    0.0600   -1.9290 ca        1 SU2      0.133600
     16 C5'         0.8610    0.4580   -1.2450 ca        1 SU2     -0.167000
     17 C6'         0.8240    0.7630    0.1110 ca        1 SU2     -0.101000
     18 N1'        -0.0520   -0.5160   -6.1670 n         1 SU2     -0.479800
     19 C11         0.3280    0.1220   -7.3330 c         1 SU2      0.657900
     20 O3         -0.4520    0.8160   -8.0050 o         1 SU2     -0.600100
     21 C2B         0.9190   -1.1470   -5.3080 c3        1 SU2      0.084500
     22 C3B         1.0070   -0.5050   -3.9020 c3        1 SU2      0.162800
     23 N4'        -0.3010   -0.3460   -3.2890 nh        1 SU2     -0.635000
     24 C5B        -1.2530    0.3450   -4.1490 c3        1 SU2      0.162800
     25 C6B        -1.3410   -0.2840   -5.5590 c3        1 SU2      0.084500
     26 HN1         2.6690    1.1730    5.4210 hn        1 SU2      0.340500
     27 H3          0.6740   -0.8200    2.5720 hc        1 SU2      0.105700
     28 H4         -2.0680   -1.0750    4.0350 ha        1 SU2      0.139000
     29 H5         -2.6160   -1.4090    6.4480 ha        1 SU2      0.136000
     30 H6         -1.0220   -0.7030    8.2190 ha        1 SU2      0.135000
     31 H7          1.1570    0.3510    7.6350 ha        1 SU2      0.141000
     32 H101       -0.0650    2.1130    2.3970 hc        1 SU2      0.061700
     33 H102       -1.4710    1.0020    2.6490 hc        1 SU2      0.061700
     34 H2'        -2.4920    0.2480    0.7080 ha        1 SU2      0.145000
     35 H3'        -2.4500   -0.3240   -1.6810 ha        1 SU2      0.135000
     36 H5'         1.8250    0.5360   -1.7700 ha        1 SU2      0.135000
     37 H6'         1.7500    1.0670    0.6300 ha        1 SU2      0.145000
     38 H11         1.3790   -0.0800   -7.6460 h5        1 SU2      0.030200
     39 H2'1        0.6310   -2.2310   -5.1930 h1        1 SU2      0.063450
     40 H2'2        1.9430   -1.1000   -5.7710 h1        1 SU2      0.063450
     41 H3'1        1.6200   -1.1910   -3.2530 h1        1 SU2      0.047200
     42 H3'2        1.5510    0.4800   -3.9900 h1        1 SU2      0.047200
     43 H5'1       -2.2750    0.2770   -3.6850 h1        1 SU2      0.047200
     44 H5'2       -0.9890    1.4370   -4.2530 h1        1 SU2      0.047200
     45 H6'1       -1.9460    0.4050   -6.2130 h1        1 SU2      0.063450
     46 H6'2       -1.8750   -1.2740   -5.4850 h1        1 SU2      0.063450
@<TRIPOS>BOND
     1    1    2 1   
     2    1    9 1   
     3    1   26 1   
     4    2    3 2   
     5    2    4 1   
     6    4   10 1   
     7    4   11 1   
     8    4   27 1   
     9    5    6 ar  
    10    5   10 ar  
    11    5   28 1   
    12    6    7 ar  
    13    6   29 1   
    14    7    8 ar  
    15    7   30 1   
    16    8    9 ar  
    17    8   31 1   
    18    9   10 ar  
    19   11   12 1   
    20   11   32 1   
    21   11   33 1   
    22   12   13 ar  
    23   12   17 ar  
    24   13   14 ar  
    25   13   34 1   
    26   14   15 ar  
    27   14   35 1   
    28   15   16 ar  
    29   15   23 1   
    30   16   17 ar  
    31   16   36 1   
    32   17   37 1   
    33   18   19 1   
    34   18   21 1   
    35   18   25 1   
    36   19   20 2   
    37   19   38 1   
    38   21   22 1   
    39   21   39 1   
    40   21   40 1   
    41   22   23 1   
    42   22   41 1   
    43   22   42 1   
    44   23   24 1   
    45   24   25 1   
    46   24   43 1   
    47   24   44 1   
    48   25   45 1   
    49   25   46 1   
@<TRIPOS>SUBSTRUCTURE
     1 SU2         1 TEMP              0 ****  ****    0 ROOT
