@<TRIPOS>MOLECULE
SU2
   46    49     1     0     0
SMALL
bcc


@<TRIPOS>ATOM
      1 N1         -1.0300   -0.6890    0.2810 ns        1 SU2     -0.480100
      2 C2          0.2540   -1.0260   -0.1860 c         1 SU2      0.700500
      3 O2          0.4590   -1.6050   -1.2590 o         1 SU2     -0.609500
      4 C3          1.3040   -0.5370    0.8420 c3        1 SU2     -0.078400
      5 C4          0.7770    0.6540    3.1190 ca        1 SU2     -0.076000
      6 C5         -0.2490    1.1450    3.9410 ca        1 SU2     -0.162000
      7 C6         -1.5820    1.0330    3.5620 ca        1 SU2     -0.093000
      8 C7         -1.9500    0.4310    2.3520 ca        1 SU2     -0.167000
      9 C8         -0.9350   -0.0560    1.5310 ca        1 SU2      0.059600
     10 C9          0.4410    0.0580    1.9220 ca        1 SU2     -0.146300
     11 C10         2.1960   -1.6680    1.3300 c3        1 SU2     -0.012100
     12 C1'         3.5330   -1.6640    0.6770 ca        1 SU2     -0.120300
     13 C2'         4.6950   -1.4960    1.4370 ca        1 SU2     -0.101000
     14 C3'         5.9490   -1.5120    0.8390 ca        1 SU2     -0.167000
     15 C4'         6.0810   -1.7040   -0.5570 ca        1 SU2      0.133600
     16 C5'         4.9020   -1.8790   -1.3140 ca        1 SU2     -0.167000
     17 C6'         3.6530   -1.8530   -0.7030 ca        1 SU2     -0.101000
     18 N1'         9.8380   -2.1430   -2.5710 n         1 SU2     -0.479800
     19 C11        10.5560   -3.0250   -3.3560 c         1 SU2      0.657900
     20 O3         11.3090   -3.8910   -2.8810 o         1 SU2     -0.600100
     21 C2B         8.8260   -1.2870   -3.1400 c3        1 SU2      0.084500
     22 C3B         7.4030   -1.5710   -2.6010 c3        1 SU2      0.162800
     23 N4'         7.3690   -1.6330   -1.1500 nh        1 SU2     -0.635000
     24 C5B         8.3590   -2.5470   -0.5950 c3        1 SU2      0.162800
     25 C6B         9.7810   -2.2770   -1.1350 c3        1 SU2      0.084500
     26 HN1        -1.8780   -0.9110   -0.1680 hn        1 SU2      0.340500
     27 H3          1.9190    0.2630    0.3470 hc        1 SU2      0.105700
     28 H4          1.8290    0.7470    3.4270 ha        1 SU2      0.139000
     29 H5          0.0110    1.6230    4.8970 ha        1 SU2      0.136000
     30 H6         -2.3720    1.4240    4.2210 ha        1 SU2      0.135000
     31 H7         -3.0070    0.3510    2.0660 ha        1 SU2      0.141000
     32 H101        2.3160   -1.5750    2.4440 hc        1 SU2      0.061700
     33 H102        1.6960   -2.6550    1.1310 hc        1 SU2      0.061700
     34 H2'         4.6220   -1.3460    2.5250 ha        1 SU2      0.145000
     35 H3'         6.8400   -1.3590    1.4670 ha        1 SU2      0.135000
     36 H5'         4.9460   -2.0400   -2.4010 ha        1 SU2      0.135000
     37 H6'         2.7410   -1.9870   -1.3120 ha        1 SU2      0.145000
     38 H11        10.4430   -2.8600   -4.4540 h5        1 SU2      0.030200
     39 H2'1        9.0980   -0.2190   -2.8980 h1        1 SU2      0.063450
     40 H2'2        8.7980   -1.4010   -4.2590 h1        1 SU2      0.063450
     41 H3'1        7.0240   -2.5260   -3.0700 h1        1 SU2      0.047200
     42 H3'2        6.7390   -0.7260   -2.9340 h1        1 SU2      0.047200
     43 H5'1        8.3890   -2.4130    0.5210 h1        1 SU2      0.047200
     44 H5'2        8.0860   -3.6210   -0.8080 h1        1 SU2      0.047200
     45 H6'1       10.1690   -1.3210   -0.6810 h1        1 SU2      0.063450
     46 H6'2       10.4470   -3.1260   -0.8100 h1        1 SU2      0.063450
@<TRIPOS>BOND
     1    1    2 1   
     2    1    9 1   
     3    1   26 1   
     4    2    3 2   
     5    2    4 1   
     6    4   10 1   
     7    4   11 1   
     8    4   27 1   
     9    5    6 ar  
    10    5   10 ar  
    11    5   28 1   
    12    6    7 ar  
    13    6   29 1   
    14    7    8 ar  
    15    7   30 1   
    16    8    9 ar  
    17    8   31 1   
    18    9   10 ar  
    19   11   12 1   
    20   11   32 1   
    21   11   33 1   
    22   12   13 ar  
    23   12   17 ar  
    24   13   14 ar  
    25   13   34 1   
    26   14   15 ar  
    27   14   35 1   
    28   15   16 ar  
    29   15   23 1   
    30   16   17 ar  
    31   16   36 1   
    32   17   37 1   
    33   18   19 1   
    34   18   21 1   
    35   18   25 1   
    36   19   20 2   
    37   19   38 1   
    38   21   22 1   
    39   21   39 1   
    40   21   40 1   
    41   22   23 1   
    42   22   41 1   
    43   22   42 1   
    44   23   24 1   
    45   24   25 1   
    46   24   43 1   
    47   24   44 1   
    48   25   45 1   
    49   25   46 1   
@<TRIPOS>SUBSTRUCTURE
     1 SU2         1 TEMP              0 ****  ****    0 ROOT
