@<TRIPOS>MOLECULE
SU4
   46    47     1     0     0
SMALL
bcc


@<TRIPOS>ATOM
      1 O3          0.6150    0.1140    0.3230 o         1 SU4     -0.453400
      2 S           1.8660   -0.3300   -0.0010 s4        1 SU4      1.669300
      3 O2          2.9430   -0.0530    0.7890 o         1 SU4     -0.453400
      4 C7          1.9220   -1.6050   -0.9130 ca        1 SU4     -0.634500
      5 C12         3.1460   -2.2730   -1.1920 ca        1 SU4      0.060500
      6 C11         3.1930   -3.4280   -1.9400 ca        1 SU4     -0.219500
      7 C10         1.9890   -3.9710   -2.4510 ca        1 SU4      0.274100
      8 O4          2.0980   -5.1070   -3.1720 oh        1 SU4     -0.442100
      9 C9          0.7540   -3.3260   -2.2010 ca        1 SU4     -0.219500
     10 C8          0.7350   -2.1710   -1.4520 ca        1 SU4      0.060500
     11 N           2.2950    1.1290   -1.6450 n3        1 SU4     -0.873200
     12 C4          1.0380    1.7200   -2.0570 cx        1 SU4      0.026500
     13 C6          0.5960    3.1250   -1.7030 cx        1 SU4     -0.108900
     14 C5          0.9020    2.7840   -3.1280 cx        1 SU4     -0.108900
     15 C3          3.3340    2.0930   -1.2580 c3        1 SU4      0.088800
     16 C2          4.7850    1.5640   -1.4340 c3        1 SU4      0.208100
     17 C1          5.1280    1.4060   -2.9130 c3        1 SU4     -0.099100
     18 O1          4.8490    0.2540   -0.8680 oh        1 SU4     -0.644800
     19 C13         5.7670    2.4970   -0.7720 ca        1 SU4     -0.144300
     20 C18         7.0110    1.9790   -0.3850 ca        1 SU4     -0.118000
     21 C17         7.9630    2.8020    0.2120 ca        1 SU4     -0.118500
     22 C16         7.6860    4.1530    0.4240 ca        1 SU4     -0.103000
     23 C15         6.4540    4.6750    0.0320 ca        1 SU4     -0.118500
     24 C14         5.4970    3.8530   -0.5650 ca        1 SU4     -0.118000
     25 H12         4.0890   -1.8440   -0.7940 ha        1 SU4      0.179000
     26 H8         -0.2320   -1.6700   -1.2480 ha        1 SU4      0.179000
     27 H11         4.1460   -3.9430   -2.1470 ha        1 SU4      0.183000
     28 H4          1.2160   -5.4010   -3.4650 ho        1 SU4      0.458000
     29 H9         -0.1810   -3.7510   -2.6000 ha        1 SU4      0.183000
     30 HA          0.2480    0.9290   -2.0330 h1        1 SU4      0.104700
     31 H31C        3.2420    3.0350   -1.8710 h1        1 SU4      0.086200
     32 H32C        3.1700    2.3500   -0.1730 h1        1 SU4      0.086200
     33 H61C        1.2760    3.7980   -1.1490 hc        1 SU4      0.096950
     34 H62C       -0.4560    3.2600   -1.3860 hc        1 SU4      0.096950
     35 H51C        0.0740    2.6820   -3.8540 hc        1 SU4      0.096950
     36 H52C        1.8080    3.2080   -3.6000 hc        1 SU4      0.096950
     37 H11C        4.9190    2.3580   -3.4550 hc        1 SU4      0.057367
     38 H12C        6.2140    1.1620   -3.0160 hc        1 SU4      0.057367
     39 H13C        4.5430    0.5760   -3.3740 hc        1 SU4      0.057367
     40 H1          5.0360    0.3470    0.0790 ho        1 SU4      0.444000
     41 H18         7.2380    0.9160   -0.5640 ha        1 SU4      0.133500
     42 H14         4.5390    4.2970   -0.8690 ha        1 SU4      0.133500
     43 H17         8.9370    2.3850    0.5130 ha        1 SU4      0.148000
     44 H16         8.4380    4.8040    0.8950 ha        1 SU4      0.150000
     45 H15         6.2320    5.7420    0.1920 ha        1 SU4      0.148000
     46 HN1         2.6470    0.5710   -2.4160 hn        1 SU4      0.410800
@<TRIPOS>BOND
     1    1    2 1   
     2    2    3 1   
     3    2    4 1   
     4    4    5 ar  
     5    4   10 ar  
     6    5    6 ar  
     7    5   25 1   
     8    6    7 ar  
     9    6   27 1   
    10    7    8 1   
    11    7    9 ar  
    12    8   28 1   
    13    9   10 ar  
    14    9   29 1   
    15   10   26 1   
    16   11   12 1   
    17   11   15 1   
    18   11   46 1   
    19   12   13 1   
    20   12   14 1   
    21   12   30 1   
    22   13   14 1   
    23   13   33 1   
    24   13   34 1   
    25   14   35 1   
    26   14   36 1   
    27   15   16 1   
    28   15   31 1   
    29   15   32 1   
    30   16   17 1   
    31   16   18 1   
    32   16   19 1   
    33   17   37 1   
    34   17   38 1   
    35   17   39 1   
    36   18   40 1   
    37   19   20 ar  
    38   19   24 ar  
    39   20   21 ar  
    40   20   41 1   
    41   21   22 ar  
    42   21   43 1   
    43   22   23 ar  
    44   22   44 1   
    45   23   24 ar  
    46   23   45 1   
    47   24   42 1   
@<TRIPOS>SUBSTRUCTURE
     1 SU4         1 TEMP              0 ****  ****    0 ROOT
