@<TRIPOS>MOLECULE
SU4
   46    47     1     0     0
SMALL
bcc


@<TRIPOS>ATOM
      1 O3          0.6220    0.0990    0.3280 o         1 SU4     -0.453400
      2 S           1.8730   -0.3400   -0.0000 s4        1 SU4      1.669300
      3 O2          2.9510   -0.0630    0.7880 o         1 SU4     -0.453400
      4 C7          1.9310   -1.6110   -0.9180 ca        1 SU4     -0.634500
      5 C12         3.1560   -2.2750   -1.2020 ca        1 SU4      0.060500
      6 C11         3.2050   -3.4270   -1.9540 ca        1 SU4     -0.219500
      7 C10         2.0010   -3.9710   -2.4650 ca        1 SU4      0.274100
      8 O4          2.1120   -5.1040   -3.1910 oh        1 SU4     -0.442100
      9 C9          0.7650   -3.3300   -2.2100 ca        1 SU4     -0.219500
     10 C8          0.7440   -2.1790   -1.4560 ca        1 SU4      0.060500
     11 N           2.2920    1.1270   -1.6400 n7        1 SU4     -0.873200
     12 C4          1.0330    1.7160   -2.0450 cx        1 SU4      0.026500
     13 C6          0.5880    3.1190   -1.6840 cx        1 SU4     -0.108900
     14 C5          0.8900    2.7850   -3.1110 cx        1 SU4     -0.108900
     15 C3          3.3300    2.0920   -1.2530 c3        1 SU4      0.088800
     16 C2          4.7820    1.5680   -1.4350 c3        1 SU4      0.208100
     17 C1          5.1220    1.4150   -2.9160 c3        1 SU4     -0.099100
     18 O1          4.8510    0.2560   -0.8730 oh        1 SU4     -0.644800
     19 C13         5.7640    2.5010   -0.7730 ca        1 SU4     -0.144300
     20 C18         7.0110    1.9850   -0.3920 ca        1 SU4     -0.118000
     21 C17         7.9620    2.8080    0.2050 ca        1 SU4     -0.118500
     22 C16         7.6820    4.1580    0.4220 ca        1 SU4     -0.103000
     23 C15         6.4480    4.6780    0.0360 ca        1 SU4     -0.118500
     24 C14         5.4920    3.8560   -0.5600 ca        1 SU4     -0.118000
     25 H12         4.0990   -1.8450   -0.8040 ha        1 SU4      0.179000
     26 H8         -0.2240   -1.6810   -1.2490 ha        1 SU4      0.179000
     27 H11         4.1590   -3.9380   -2.1650 ha        1 SU4      0.183000
     28 H4          1.2300   -5.3990   -3.4830 ho        1 SU4      0.458000
     29 H9         -0.1700   -3.7570   -2.6090 ha        1 SU4      0.183000
     30 HA          0.2450    0.9230   -2.0220 h1        1 SU4      0.104700
     31 H31C        3.2340    3.0360   -1.8620 h1        1 SU4      0.086200
     32 H32C        3.1690    2.3450   -0.1660 h1        1 SU4      0.086200
     33 H61C       -0.4630    3.2500   -1.3630 hc        1 SU4      0.096950
     34 H62C        1.2680    3.7920   -1.1290 hc        1 SU4      0.096950
     35 H51C        0.0600    2.6830   -3.8350 hc        1 SU4      0.096950
     36 H52C        1.7930    3.2120   -3.5850 hc        1 SU4      0.096950
     37 H11C        4.9080    2.3680   -3.4540 hc        1 SU4      0.057367
     38 H12C        6.2080    1.1740   -3.0230 hc        1 SU4      0.057367
     39 H13C        4.5370    0.5840   -3.3770 hc        1 SU4      0.057367
     40 H1          5.0410    0.3470    0.0730 ho        1 SU4      0.444000
     41 H18         7.2390    0.9230   -0.5740 ha        1 SU4      0.133500
     42 H14         4.5310    4.2980   -0.8610 ha        1 SU4      0.133500
     43 H17         8.9380    2.3930    0.5020 ha        1 SU4      0.148000
     44 H16         8.4340    4.8090    0.8930 ha        1 SU4      0.150000
     45 H15         6.2240    5.7440    0.2000 ha        1 SU4      0.148000
     46 HN1         2.6440    0.5730   -2.4150 hn        1 SU4      0.410800
@<TRIPOS>BOND
     1    1    2 1   
     2    2    3 1   
     3    2    4 1   
     4    4    5 ar  
     5    4   10 ar  
     6    5    6 ar  
     7    5   25 1   
     8    6    7 ar  
     9    6   27 1   
    10    7    8 1   
    11    7    9 ar  
    12    8   28 1   
    13    9   10 ar  
    14    9   29 1   
    15   10   26 1   
    16   11   12 1   
    17   11   15 1   
    18   11   46 1   
    19   12   13 1   
    20   12   14 1   
    21   12   30 1   
    22   13   14 1   
    23   13   33 1   
    24   13   34 1   
    25   14   35 1   
    26   14   36 1   
    27   15   16 1   
    28   15   31 1   
    29   15   32 1   
    30   16   17 1   
    31   16   18 1   
    32   16   19 1   
    33   17   37 1   
    34   17   38 1   
    35   17   39 1   
    36   18   40 1   
    37   19   20 ar  
    38   19   24 ar  
    39   20   21 ar  
    40   20   41 1   
    41   21   22 ar  
    42   21   43 1   
    43   22   23 ar  
    44   22   44 1   
    45   23   24 ar  
    46   23   45 1   
    47   24   42 1   
@<TRIPOS>SUBSTRUCTURE
     1 SU4         1 TEMP              0 ****  ****    0 ROOT
