@<TRIPOS>MOLECULE
SU4
   45    47     1     0     0
SMALL
bcc


@<TRIPOS>ATOM
      1 O3         -1.6690    1.9260    1.9070 o         1 SU4     -0.659800
      2 S          -1.1340    0.7740    1.2960 sy        1 SU4      1.520200
      3 O2         -0.4780   -0.1260    2.1700 o         1 SU4     -0.659800
      4 C7         -2.3740   -0.0080    0.4820 ca        1 SU4     -0.430500
      5 C12        -2.2160   -1.3170    0.0090 ca        1 SU4      0.023000
      6 C11        -3.2580   -1.9870   -0.6210 ca        1 SU4     -0.219000
      7 C10        -4.4900   -1.3340   -0.7840 ca        1 SU4      0.191100
      8 O4         -5.5650   -1.9220   -1.3950 oh        1 SU4     -0.487100
      9 C9         -4.6750   -0.0180   -0.3160 ca        1 SU4     -0.219000
     10 C8         -3.6180    0.6230    0.3080 ca        1 SU4      0.023000
     11 N          -0.0820    1.1950    0.1020 n3        1 SU4     -0.763500
     12 C4         -0.5330    2.0330   -0.9520 cx        1 SU4      0.176500
     13 C6          0.0610    3.3970   -1.2540 cx        1 SU4     -0.142400
     14 C5          0.2050    2.2850   -2.2500 cx        1 SU4     -0.142400
     15 C3          1.3110    0.8590    0.2030 c3        1 SU4      0.197800
     16 C2          1.7320   -0.5600   -0.2880 c3        1 SU4      0.188100
     17 C1          1.4990   -0.7510   -1.7830 c3        1 SU4     -0.084100
     18 O1          0.9390   -1.5570    0.3480 oh        1 SU4     -0.618800
     19 C13         3.2000   -0.7390    0.0340 ca        1 SU4     -0.115300
     20 C18         3.6340   -1.8020    0.8330 ca        1 SU4     -0.119500
     21 C17         4.9900   -1.9600    1.1200 ca        1 SU4     -0.129000
     22 C16         5.9250   -1.0630    0.6080 ca        1 SU4     -0.126000
     23 C15         5.5000   -0.0070   -0.1990 ca        1 SU4     -0.129000
     24 C14         4.1460    0.1530   -0.4870 ca        1 SU4     -0.119500
     25 H12        -1.2410   -1.8270    0.1420 ha        1 SU4      0.169000
     26 H8         -3.7540    1.6510    0.6940 ha        1 SU4      0.169000
     27 H11        -3.1200   -3.0150   -0.9850 ha        1 SU4      0.152000
     28 H4         -5.3140   -2.8230   -1.6540 ho        1 SU4      0.428000
     29 H9         -5.6490    0.4730   -0.4480 ha        1 SU4      0.152000
     30 HA         -1.6460    1.9530   -1.0400 h1        1 SU4      0.086700
     31 H31C        1.9240    1.6120   -0.3660 h1        1 SU4      0.063700
     32 H32C        1.6070    0.9250    1.2930 h1        1 SU4      0.063700
     33 H61C       -0.6330    4.2300   -1.4640 hc        1 SU4      0.076950
     34 H62C        0.9560    3.7380   -0.7040 hc        1 SU4      0.076950
     35 H51C        1.2020    1.8410   -2.4170 hc        1 SU4      0.076950
     36 H52C       -0.3910    2.3080   -3.1800 hc        1 SU4      0.076950
     37 H11C        2.2100   -0.1150   -2.3610 hc        1 SU4      0.048700
     38 H12C        1.6660   -1.8220   -2.0530 hc        1 SU4      0.048700
     39 H13C        0.4520   -0.4740   -2.0500 hc        1 SU4      0.048700
     40 H1          0.9930   -1.4130    1.3060 ho        1 SU4      0.436000
     41 H18         2.9050   -2.5260    1.2300 ha        1 SU4      0.136000
     42 H14         3.8260    0.9830   -1.1340 ha        1 SU4      0.136000
     43 H17         5.3190   -2.7990    1.7520 ha        1 SU4      0.133000
     44 H16         6.9930   -1.1870    0.8360 ha        1 SU4      0.133000
     45 H15         6.2340    0.7010   -0.6110 ha        1 SU4      0.133000
@<TRIPOS>BOND
     1    1    2 2   
     2    2    3 2   
     3    2    4 1   
     4    2   11 1   
     5    4    5 ar  
     6    4   10 ar  
     7    5    6 ar  
     8    5   25 1   
     9    6    7 ar  
    10    6   27 1   
    11    7    8 1   
    12    7    9 ar  
    13    8   28 1   
    14    9   10 ar  
    15    9   29 1   
    16   10   26 1   
    17   11   12 1   
    18   11   15 1   
    19   12   13 1   
    20   12   14 1   
    21   12   30 1   
    22   13   14 1   
    23   13   33 1   
    24   13   34 1   
    25   14   35 1   
    26   14   36 1   
    27   15   16 1   
    28   15   31 1   
    29   15   32 1   
    30   16   17 1   
    31   16   18 1   
    32   16   19 1   
    33   17   37 1   
    34   17   38 1   
    35   17   39 1   
    36   18   40 1   
    37   19   20 ar  
    38   19   24 ar  
    39   20   21 ar  
    40   20   41 1   
    41   21   22 ar  
    42   21   43 1   
    43   22   23 ar  
    44   22   44 1   
    45   23   24 ar  
    46   23   45 1   
    47   24   42 1   
@<TRIPOS>SUBSTRUCTURE
     1 SU4         1 TEMP              0 ****  ****    0 ROOT
