@<TRIPOS>MOLECULE
SU4
   46    47     1     0     0
SMALL
bcc


@<TRIPOS>ATOM
      1 O3          0.6150    0.0920    0.3140 o         1 SU4     -0.453400
      2 S           1.8680   -0.3450   -0.0110 s4        1 SU4      1.669300
      3 O2          2.9420   -0.0690    0.7830 o         1 SU4     -0.453400
      4 C7          1.9310   -1.6140   -0.9310 ca        1 SU4     -0.634500
      5 C12         3.1580   -2.2760   -1.2120 ca        1 SU4      0.060500
      6 C11         3.2120   -3.4250   -1.9660 ca        1 SU4     -0.219500
      7 C10         2.0100   -3.9700   -2.4840 ca        1 SU4      0.274100
      8 O4          2.1260   -5.1010   -3.2130 oh        1 SU4     -0.442100
      9 C9          0.7720   -3.3310   -2.2320 ca        1 SU4     -0.219500
     10 C8          0.7470   -2.1820   -1.4760 ca        1 SU4      0.060500
     11 N           2.2930    1.1260   -1.6450 n3        1 SU4     -0.873200
     12 C4          1.0350    1.7150   -2.0540 cx        1 SU4      0.026500
     13 C6          0.5870    3.1170   -1.6920 cx        1 SU4     -0.108900
     14 C5          0.8960    2.7860   -3.1180 cx        1 SU4     -0.108900
     15 C3          3.3280    2.0910   -1.2500 c3        1 SU4      0.088800
     16 C2          4.7820    1.5690   -1.4280 c3        1 SU4      0.208100
     17 C1          5.1280    1.4210   -2.9080 c3        1 SU4     -0.099100
     18 O1          4.8500    0.2560   -0.8690 oh        1 SU4     -0.644800
     19 C13         5.7590    2.5020   -0.7590 ca        1 SU4     -0.144300
     20 C18         7.0050    1.9860   -0.3730 ca        1 SU4     -0.118000
     21 C17         7.9530    2.8090    0.2300 ca        1 SU4     -0.118500
     22 C16         7.6700    4.1580    0.4490 ca        1 SU4     -0.103000
     23 C15         6.4370    4.6780    0.0590 ca        1 SU4     -0.118500
     24 C14         5.4850    3.8560   -0.5440 ca        1 SU4     -0.118000
     25 H12         4.0990   -1.8460   -0.8090 ha        1 SU4      0.179000
     26 H8         -0.2220   -1.6860   -1.2710 ha        1 SU4      0.179000
     27 H11         4.1670   -3.9350   -2.1750 ha        1 SU4      0.183000
     28 H4          1.2450   -5.3960   -3.5090 ho        1 SU4      0.458000
     29 H9         -0.1600   -3.7580   -2.6360 ha        1 SU4      0.183000
     30 HA          0.2480    0.9210   -2.0370 h1        1 SU4      0.104700
     31 H31C        3.1620    2.3420   -0.1640 h1        1 SU4      0.086200
     32 H32C        3.2340    3.0370   -1.8580 h1        1 SU4      0.086200
     33 H61C        1.2640    3.7880   -1.1330 hc        1 SU4      0.096950
     34 H62C       -0.4660    3.2460   -1.3750 hc        1 SU4      0.096950
     35 H51C        0.0700    2.6850   -3.8470 hc        1 SU4      0.096950
     36 H52C        1.8010    3.2160   -3.5870 hc        1 SU4      0.096950
     37 H11C        4.9150    2.3760   -3.4440 hc        1 SU4      0.057367
     38 H12C        6.2150    1.1810   -3.0100 hc        1 SU4      0.057367
     39 H13C        4.5460    0.5910   -3.3730 hc        1 SU4      0.057367
     40 H1          5.0350    0.3450    0.0790 ho        1 SU4      0.444000
     41 H18         7.2360    0.9250   -0.5580 ha        1 SU4      0.133500
     42 H14         4.5250    4.2980   -0.8480 ha        1 SU4      0.133500
     43 H17         8.9280    2.3940    0.5300 ha        1 SU4      0.148000
     44 H16         8.4190    4.8090    0.9250 ha        1 SU4      0.150000
     45 H15         6.2110    5.7430    0.2250 ha        1 SU4      0.148000
     46 HN1         2.6490    0.5740   -2.4190 hn        1 SU4      0.410800
@<TRIPOS>BOND
     1    1    2 1   
     2    2    3 1   
     3    2    4 1   
     4    4    5 ar  
     5    4   10 ar  
     6    5    6 ar  
     7    5   25 1   
     8    6    7 ar  
     9    6   27 1   
    10    7    8 1   
    11    7    9 ar  
    12    8   28 1   
    13    9   10 ar  
    14    9   29 1   
    15   10   26 1   
    16   11   12 1   
    17   11   15 1   
    18   11   46 1   
    19   12   13 1   
    20   12   14 1   
    21   12   30 1   
    22   13   14 1   
    23   13   33 1   
    24   13   34 1   
    25   14   35 1   
    26   14   36 1   
    27   15   16 1   
    28   15   31 1   
    29   15   32 1   
    30   16   17 1   
    31   16   18 1   
    32   16   19 1   
    33   17   37 1   
    34   17   38 1   
    35   17   39 1   
    36   18   40 1   
    37   19   20 ar  
    38   19   24 ar  
    39   20   21 ar  
    40   20   41 1   
    41   21   22 ar  
    42   21   43 1   
    43   22   23 ar  
    44   22   44 1   
    45   23   24 ar  
    46   23   45 1   
    47   24   42 1   
@<TRIPOS>SUBSTRUCTURE
     1 SU4         1 TEMP              0 ****  ****    0 ROOT
