@<TRIPOS>MOLECULE
SU6
   40    42     1     0     0
SMALL
bcc


@<TRIPOS>ATOM
      1 C1          5.9640   -0.2450    0.1720 c         1 SU6      0.907600
      2 N1          0.6320   -1.1590   -0.5060 na        1 SU6     -0.137100
      3 O1          7.0270    0.2140    0.6750 o         1 SU6     -0.848800
      4 C2          4.6330    0.4320    0.5470 c3        1 SU6     -0.197400
      5 N2         -4.0160   -1.9000   -0.1310 n         1 SU6     -0.483100
      6 O2          5.9280   -1.2450   -0.6080 o         1 SU6     -0.848800
      7 C3          3.7970    0.7420   -0.6810 c3        1 SU6     -0.006100
      8 O3         -1.8360   -2.6200   -0.4210 o         1 SU6     -0.661500
      9 C4          2.4020    0.2830   -0.5620 cc        1 SU6     -0.132300
     10 C5          2.0000   -1.0900   -0.6410 cd        1 SU6     -0.017600
     11 C6          2.8800   -2.2550   -0.8400 c3        1 SU6     -0.088800
     12 C7          1.2280    1.0470   -0.3680 cc        1 SU6     -0.070300
     13 C8          1.1230    2.5000   -0.2210 c3        1 SU6     -0.032800
     14 C9          0.1140    0.1350   -0.3340 cd        1 SU6     -0.208100
     15 C10        -1.2330    0.5100   -0.1570 cf        1 SU6      0.099800
     16 C11        -2.3830   -0.2080   -0.1140 cc        1 SU6     -0.245400
     17 C12        -2.6200   -1.6730   -0.2440 c         1 SU6      0.729700
     18 C13        -3.7090    0.3870    0.0840 ca        1 SU6     -0.063800
     19 C14        -4.6800   -0.6830    0.0700 ca        1 SU6      0.046600
     20 C15        -6.0360   -0.4210    0.2370 ca        1 SU6     -0.172000
     21 C16        -6.4300    0.9110    0.4190 ca        1 SU6     -0.118000
     22 C17        -5.5000    1.9450    0.4340 ca        1 SU6     -0.161000
     23 C18        -4.1310    1.6900    0.2670 ca        1 SU6     -0.103000
     24 H1          0.0880   -1.9890   -0.5120 hn        1 SU6      0.325700
     25 H3          4.0870   -0.2680    1.2290 hc        1 SU6      0.029200
     26 H4         -4.4510   -2.7820   -0.1610 hn        1 SU6      0.331500
     27 H5          3.8150    1.8460   -0.8830 hc        1 SU6      0.049700
     28 H6          2.6480   -3.0690   -0.1090 hc        1 SU6      0.080700
     29 H7          2.7590   -2.6620   -1.8750 hc        1 SU6      0.080700
     30 H8          3.9590   -1.9370   -0.7030 hc        1 SU6      0.080700
     31 H9          0.5100    2.9380   -1.0490 hc        1 SU6      0.040700
     32 H10         0.6340    2.7640    0.7510 hc        1 SU6      0.040700
     33 H11         2.1360    2.9760   -0.2420 hc        1 SU6      0.040700
     34 H12        -1.3490    1.6110   -0.0340 ha        1 SU6      0.131000
     35 H15        -6.7810   -1.2270    0.2280 ha        1 SU6      0.128000
     36 H16        -7.4980    1.1350    0.5530 ha        1 SU6      0.121000
     37 H17        -5.8380    2.9810    0.5790 ha        1 SU6      0.123000
     38 H18        -3.4100    2.5180    0.2810 ha        1 SU6      0.131000
     39 H19         4.8440    1.3700    1.1170 hc        1 SU6      0.029200
     40 H20         4.2650    0.2320   -1.5710 hc        1 SU6      0.049700
@<TRIPOS>BOND
     1    1    3 1   
     2    1    4 1   
     3    1    6 1   
     4    2   10 1   
     5    2   14 1   
     6    2   24 1   
     7    4    7 1   
     8    4   25 1   
     9    4   39 1   
    10    5   17 1   
    11    5   19 1   
    12    5   26 1   
    13    7    9 1   
    14    7   27 1   
    15    7   40 1   
    16    8   17 2   
    17    9   10 2   
    18    9   12 1   
    19   10   11 1   
    20   11   28 1   
    21   11   29 1   
    22   11   30 1   
    23   12   13 1   
    24   12   14 2   
    25   13   31 1   
    26   13   32 1   
    27   13   33 1   
    28   14   15 1   
    29   15   16 2   
    30   15   34 1   
    31   16   17 1   
    32   16   18 1   
    33   18   19 ar  
    34   18   23 ar  
    35   19   20 ar  
    36   20   21 ar  
    37   20   35 1   
    38   21   22 ar  
    39   21   36 1   
    40   22   23 ar  
    41   22   37 1   
    42   23   38 1   
@<TRIPOS>SUBSTRUCTURE
     1 SU6         1 TEMP              0 ****  ****    0 ROOT
