@<TRIPOS>MOLECULE
SU6
   40    42     1     0     0
SMALL
bcc


@<TRIPOS>ATOM
      1 C1         -0.4150   -0.7440   -0.3050 c         1 SU6      0.907600
      2 N1         -3.4230   -0.8030    4.2420 na        1 SU6     -0.137100
      3 O1          0.4570   -0.3700   -1.1360 o         1 SU6     -0.848800
      4 C2         -0.8410    0.2450    0.7950 c3        1 SU6     -0.197400
      5 N2         -5.2220   -0.5330    8.6000 n         1 SU6     -0.483100
      6 O2         -0.9470   -1.8970   -0.3110 o         1 SU6     -0.848800
      7 C3         -2.3510    0.3530    0.8990 c3        1 SU6     -0.006100
      8 O3         -4.3080   -1.6980    6.8210 o         1 SU6     -0.661500
      9 C4         -2.8480    0.2120    2.2790 cc        1 SU6     -0.132300
     10 C5         -2.8920   -1.0290    2.9930 cd        1 SU6     -0.017600
     11 C6         -2.4550   -2.3470    2.4970 c3        1 SU6     -0.088800
     12 C7         -3.3670    1.2050    3.1430 cc        1 SU6     -0.070300
     13 C8         -3.5210    2.6350    2.8680 c3        1 SU6     -0.032800
     14 C9         -3.7290    0.5610    4.3790 cd        1 SU6     -0.208100
     15 C10        -4.2860    1.2140    5.4980 cf        1 SU6      0.099800
     16 C11        -4.6890    0.7620    6.7120 cc        1 SU6     -0.245400
     17 C12        -4.6830   -0.6100    7.2900 c         1 SU6      0.729700
     18 C13        -5.2510    1.6250    7.7570 ca        1 SU6     -0.063800
     19 C14        -5.5610    0.7930    8.8960 ca        1 SU6      0.046600
     20 C15        -6.1120    1.3380   10.0520 ca        1 SU6     -0.172000
     21 C16        -6.3550    2.7170   10.0750 ca        1 SU6     -0.118000
     22 C17        -6.0590    3.5230    8.9820 ca        1 SU6     -0.161000
     23 C18        -5.5030    2.9820    7.8130 ca        1 SU6     -0.103000
     24 H1         -3.5590   -1.4860    4.9490 hn        1 SU6      0.325700
     25 H3         -0.3970    1.2480    0.5810 hc        1 SU6      0.029200
     26 H4         -5.3180   -1.2920    9.2180 hn        1 SU6      0.331500
     27 H5         -2.6920    1.3340    0.4730 hc        1 SU6      0.049700
     28 H6         -1.8080   -2.8680    3.2450 hc        1 SU6      0.080700
     29 H7         -1.8680   -2.2090    1.5370 hc        1 SU6      0.080700
     30 H8         -3.3410   -2.9940    2.2800 hc        1 SU6      0.080700
     31 H9         -4.5990    2.9320    2.9130 hc        1 SU6      0.040700
     32 H10        -2.9600    3.2430    3.6230 hc        1 SU6      0.040700
     33 H11        -3.1270    2.8890    1.8520 hc        1 SU6      0.040700
     34 H12        -4.4090    2.3080    5.3260 ha        1 SU6      0.131000
     35 H15        -6.3510    0.7140   10.9220 ha        1 SU6      0.128000
     36 H16        -6.7900    3.1640   10.9810 ha        1 SU6      0.121000
     37 H17        -6.2600    4.6030    9.0290 ha        1 SU6      0.123000
     38 H18        -5.2740    3.6340    6.9580 ha        1 SU6      0.131000
     39 H19        -0.4060   -0.1240    1.7580 hc        1 SU6      0.029200
     40 H20        -2.8120   -0.4620    0.2700 hc        1 SU6      0.049700
@<TRIPOS>BOND
     1    1    3 1   
     2    1    4 1   
     3    1    6 1   
     4    2   10 1   
     5    2   14 1   
     6    2   24 1   
     7    4    7 1   
     8    4   25 1   
     9    4   39 1   
    10    5   17 1   
    11    5   19 1   
    12    5   26 1   
    13    7    9 1   
    14    7   27 1   
    15    7   40 1   
    16    8   17 2   
    17    9   10 2   
    18    9   12 1   
    19   10   11 1   
    20   11   28 1   
    21   11   29 1   
    22   11   30 1   
    23   12   13 1   
    24   12   14 2   
    25   13   31 1   
    26   13   32 1   
    27   13   33 1   
    28   14   15 1   
    29   15   16 2   
    30   15   34 1   
    31   16   17 1   
    32   16   18 1   
    33   18   19 ar  
    34   18   23 ar  
    35   19   20 ar  
    36   20   21 ar  
    37   20   35 1   
    38   21   22 ar  
    39   21   36 1   
    40   22   23 ar  
    41   22   37 1   
    42   23   38 1   
@<TRIPOS>SUBSTRUCTURE
     1 SU6         1 TEMP              0 ****  ****    0 ROOT
