@<TRIPOS>MOLECULE
SU6
   40    42     1     0     0
SMALL
bcc


@<TRIPOS>ATOM
      1 C1         -0.4640   -0.6470   -0.3620 c         1 SU6      0.907600
      2 N1         -3.4010   -0.7950    4.2290 na        1 SU6     -0.137100
      3 O1          0.3880   -0.2500   -1.2040 o         1 SU6     -0.848800
      4 C2         -0.8920    0.3260    0.7510 c3        1 SU6     -0.197400
      5 N2         -5.1400   -0.5900    8.6150 ns        1 SU6     -0.483100
      6 O2         -0.9720   -1.8100   -0.3680 o         1 SU6     -0.848800
      7 C3         -2.4030    0.4030    0.8780 c3        1 SU6     -0.006100
      8 O3         -4.2290   -1.7250    6.8150 o         1 SU6     -0.661500
      9 C4         -2.8760    0.2440    2.2640 cc        1 SU6     -0.132300
     10 C5         -2.8840   -1.0020    2.9710 cd        1 SU6     -0.017600
     11 C6         -2.4280   -2.3080    2.4600 c3        1 SU6     -0.088800
     12 C7         -3.4020    1.2200    3.1430 cc        1 SU6     -0.070300
     13 C8         -3.5880    2.6490    2.8800 c3        1 SU6     -0.032800
     14 C9         -3.7320    0.5610    4.3800 cd        1 SU6     -0.208100
     15 C10        -4.2850    1.1960    5.5110 cf        1 SU6      0.099800
     16 C11        -4.6600    0.7280    6.7280 cc        1 SU6     -0.245400
     17 C12        -4.6190   -0.6470    7.2960 c         1 SU6      0.729700
     18 C13        -5.2240    1.5730    7.7870 ca        1 SU6     -0.063800
     19 C14        -5.5010    0.7270    8.9250 ca        1 SU6      0.046600
     20 C15        -6.0450    1.2540   10.0920 ca        1 SU6     -0.172000
     21 C16        -6.3160    2.6280   10.1290 ca        1 SU6     -0.118000
     22 C17        -6.0510    3.4470    9.0370 ca        1 SU6     -0.161000
     23 C18        -5.5030    2.9240    7.8560 ca        1 SU6     -0.103000
     24 H1         -3.5120   -1.4850    4.9340 hn        1 SU6      0.325700
     25 H3         -0.4720    1.3400    0.5370 hc        1 SU6      0.029200
     26 H4         -5.2110   -1.3550    9.2290 hn        1 SU6      0.331500
     27 H5         -2.7690    1.3800    0.4640 hc        1 SU6      0.049700
     28 H6         -1.7590   -2.8200    3.1940 hc        1 SU6      0.080700
     29 H7         -1.8590   -2.1520    1.4920 hc        1 SU6      0.080700
     30 H8         -3.3040   -2.9710    2.2530 hc        1 SU6      0.080700
     31 H9         -4.6720    2.9230    2.9430 hc        1 SU6      0.040700
     32 H10        -3.0280    3.2630    3.6300 hc        1 SU6      0.040700
     33 H11        -3.2150    2.9170    1.8600 hc        1 SU6      0.040700
     34 H12        -4.4330    2.2880    5.3490 ha        1 SU6      0.131000
     35 H15        -6.2590    0.6200   10.9620 ha        1 SU6      0.128000
     36 H16        -6.7460    3.0600   11.0440 ha        1 SU6      0.121000
     37 H17        -6.2740    4.5220    9.0940 ha        1 SU6      0.123000
     38 H18        -5.2990    3.5860    7.0020 ha        1 SU6      0.131000
     39 H19        -0.4350   -0.0400    1.7050 hc        1 SU6      0.029200
     40 H20        -2.8570   -0.4170    0.2510 hc        1 SU6      0.049700
@<TRIPOS>BOND
     1    1    3 1   
     2    1    4 1   
     3    1    6 1   
     4    2   10 1   
     5    2   14 1   
     6    2   24 1   
     7    4    7 1   
     8    4   25 1   
     9    4   39 1   
    10    5   17 1   
    11    5   19 1   
    12    5   26 1   
    13    7    9 1   
    14    7   27 1   
    15    7   40 1   
    16    8   17 2   
    17    9   10 2   
    18    9   12 1   
    19   10   11 1   
    20   11   28 1   
    21   11   29 1   
    22   11   30 1   
    23   12   13 1   
    24   12   14 2   
    25   13   31 1   
    26   13   32 1   
    27   13   33 1   
    28   14   15 1   
    29   15   16 2   
    30   15   34 1   
    31   16   17 1   
    32   16   18 1   
    33   18   19 ar  
    34   18   23 ar  
    35   19   20 ar  
    36   20   21 ar  
    37   20   35 1   
    38   21   22 ar  
    39   21   36 1   
    40   22   23 ar  
    41   22   37 1   
    42   23   38 1   
@<TRIPOS>SUBSTRUCTURE
     1 SU6         1 TEMP              0 ****  ****    0 ROOT
