@<TRIPOS>MOLECULE
SU6
   40    42     1     0     0
SMALL
bcc


@<TRIPOS>ATOM
      1 C1         -0.4380   -0.6980   -0.3320 c         1 SU6      0.907600
      2 N1         -3.4030   -0.7990    4.2420 na        1 SU6     -0.137100
      3 O1          0.4200   -0.3110   -1.1720 o         1 SU6     -0.848800
      4 C2         -0.8690    0.2850    0.7710 c3        1 SU6     -0.197400
      5 N2         -5.1680   -0.5530    8.6150 n         1 SU6     -0.483100
      6 O2         -0.9510   -1.8590   -0.3330 o         1 SU6     -0.848800
      7 C3         -2.3800    0.3690    0.8880 c3        1 SU6     -0.006100
      8 O3         -4.2500   -1.7050    6.8300 o         1 SU6     -0.661500
      9 C4         -2.8620    0.2230    2.2720 cc        1 SU6     -0.132300
     10 C5         -2.8790   -1.0180    2.9880 cd        1 SU6     -0.017600
     11 C6         -2.4250   -2.3290    2.4910 c3        1 SU6     -0.088800
     12 C7         -3.3900    1.2080    3.1390 cc        1 SU6     -0.070300
     13 C8         -3.5700    2.6340    2.8640 c3        1 SU6     -0.032800
     14 C9         -3.7310    0.5590    4.3800 cd        1 SU6     -0.208100
     15 C10        -4.2880    1.2050    5.5020 cf        1 SU6      0.099800
     16 C11        -4.6730    0.7480    6.7210 cc        1 SU6     -0.245400
     17 C12        -4.6390   -0.6230    7.3010 c         1 SU6      0.729700
     18 C13        -5.2390    1.6030    7.7690 ca        1 SU6     -0.063800
     19 C14        -5.5260    0.7680    8.9130 ca        1 SU6      0.046600
     20 C15        -6.0750    1.3050   10.0720 ca        1 SU6     -0.172000
     21 C16        -6.3420    2.6800   10.0960 ca        1 SU6     -0.118000
     22 C17        -6.0680    3.4900    8.9990 ca        1 SU6     -0.161000
     23 C18        -5.5140    2.9560    7.8270 ca        1 SU6     -0.103000
     24 H1         -3.5220   -1.4840    4.9510 hn        1 SU6      0.325700
     25 H3         -0.4430    1.2950    0.5520 hc        1 SU6      0.029200
     26 H4         -5.2450   -1.3130    9.2360 hn        1 SU6      0.331500
     27 H5         -2.8340   -0.4540    0.2640 hc        1 SU6      0.049700
     28 H6         -3.3030   -2.9920    2.2840 hc        1 SU6      0.080700
     29 H7         -1.8500   -2.1840    1.5250 hc        1 SU6      0.080700
     30 H8         -1.7620   -2.8380    3.2330 hc        1 SU6      0.080700
     31 H9         -3.1890    2.8930    1.8450 hc        1 SU6      0.040700
     32 H10        -4.6530    2.9130    2.9180 hc        1 SU6      0.040700
     33 H11        -3.0130    3.2530    3.6130 hc        1 SU6      0.040700
     34 H12        -4.4310    2.2960    5.3310 ha        1 SU6      0.131000
     35 H15        -6.2960    0.6790   10.9460 ha        1 SU6      0.128000
     36 H16        -6.7760    3.1220   11.0050 ha        1 SU6      0.121000
     37 H17        -6.2870    4.5660    9.0470 ha        1 SU6      0.123000
     38 H18        -5.3030    3.6100    6.9690 ha        1 SU6      0.131000
     39 H19        -0.4200   -0.0760    1.7300 hc        1 SU6      0.029200
     40 H20        -2.7400    1.3440    0.4640 hc        1 SU6      0.049700
@<TRIPOS>BOND
     1    1    3 1   
     2    1    4 1   
     3    1    6 1   
     4    2   10 1   
     5    2   14 1   
     6    2   24 1   
     7    4    7 1   
     8    4   25 1   
     9    4   39 1   
    10    5   17 1   
    11    5   19 1   
    12    5   26 1   
    13    7    9 1   
    14    7   27 1   
    15    7   40 1   
    16    8   17 2   
    17    9   10 2   
    18    9   12 1   
    19   10   11 1   
    20   11   28 1   
    21   11   29 1   
    22   11   30 1   
    23   12   13 1   
    24   12   14 2   
    25   13   31 1   
    26   13   32 1   
    27   13   33 1   
    28   14   15 1   
    29   15   16 2   
    30   15   34 1   
    31   16   17 1   
    32   16   18 1   
    33   18   19 ar  
    34   18   23 ar  
    35   19   20 ar  
    36   20   21 ar  
    37   20   35 1   
    38   21   22 ar  
    39   21   36 1   
    40   22   23 ar  
    41   22   37 1   
    42   23   38 1   
@<TRIPOS>SUBSTRUCTURE
     1 SU6         1 TEMP              0 ****  ****    0 ROOT
