@<TRIPOS>MOLECULE
SU8
   24    23     1     0     0
SMALL
bcc


@<TRIPOS>ATOM
      1 CAJ        -0.5590   -0.5110    0.0230 c         1 SU8      0.903600
      2 CAK         0.8970   -0.0030    0.0340 c3        1 SU8     -0.144700
      3 CAL         1.3760    0.3230    1.4370 c3        1 SU8     -0.154400
      4 OAM        -0.9790   -1.2850    0.9360 o         1 SU8     -0.882800
      5 CAN         2.7290    1.0360    1.4870 c         1 SU8      0.897600
      6 OAO         3.8040    0.3570    1.4200 o         1 SU8     -0.888800
      7 OAP         2.7600    2.2970    1.6440 o         1 SU8     -0.888800
      8 CAQ         1.7960   -1.0490   -0.6110 c3        1 SU8     -0.067400
      9 CAR         1.5840   -1.1050   -2.1110 c3        1 SU8     -0.085400
     10 CAS         2.2920   -2.2930   -2.7290 c3        1 SU8     -0.078400
     11 CAT         2.1170   -2.3320   -4.2260 c3        1 SU8     -0.084100
     12 OXT        -1.3100   -0.1560   -0.9420 o         1 SU8     -0.882800
     13 HAK         0.9340    0.9370   -0.5830 hc        1 SU8      0.035700
     14 HAL         1.4450   -0.6280    2.0250 hc        1 SU8      0.024700
     15 HALA        0.6100    0.9750    1.9290 hc        1 SU8      0.024700
     16 HAQ         1.5660   -2.0500   -0.1610 hc        1 SU8      0.044700
     17 HAQA        2.8680   -0.8070   -0.3770 hc        1 SU8      0.044700
     18 HAR         1.9670   -0.1600   -2.5780 hc        1 SU8      0.046700
     19 HARA        0.4800   -1.1560   -2.3180 hc        1 SU8      0.046700
     20 HAS         1.8880   -3.2390   -2.2810 hc        1 SU8      0.025700
     21 HASA        3.3850   -2.2490   -2.4790 hc        1 SU8      0.025700
     22 HAT         2.6300   -3.2230   -4.6640 hc        1 SU8      0.011700
     23 HATA        1.0330   -2.3820   -4.4910 hc        1 SU8      0.011700
     24 HATB        2.5470   -1.4140   -4.6950 hc        1 SU8      0.011700
@<TRIPOS>BOND
     1    1    2 1   
     2    1    4 1   
     3    1   12 1   
     4    2    3 1   
     5    2    8 1   
     6    2   13 1   
     7    3    5 1   
     8    3   14 1   
     9    3   15 1   
    10    5    6 1   
    11    5    7 1   
    12    8    9 1   
    13    8   16 1   
    14    8   17 1   
    15    9   10 1   
    16    9   18 1   
    17    9   19 1   
    18   10   11 1   
    19   10   20 1   
    20   10   21 1   
    21   11   22 1   
    22   11   23 1   
    23   11   24 1   
@<TRIPOS>SUBSTRUCTURE
     1 SU8         1 TEMP              0 ****  ****    0 ROOT
