@<TRIPOS>MOLECULE
SU8
   24    23     1     0     0
SMALL
bcc


@<TRIPOS>ATOM
      1 CAJ        -0.5530   -0.6230    0.0630 c         1 SU8      0.903600
      2 CAK         0.8780   -0.0470    0.0560 c3        1 SU8     -0.144700
      3 CAL         1.3670    0.2840    1.4540 c3        1 SU8     -0.154400
      4 OAM        -0.9200   -1.4260    0.9730 o         1 SU8     -0.882800
      5 CAN         2.6860    1.0590    1.4900 c         1 SU8      0.897600
      6 OAO         3.7890    0.4320    1.3950 o         1 SU8     -0.888800
      7 OAP         2.6600    2.3180    1.6630 o         1 SU8     -0.888800
      8 CAQ         1.8120   -1.0430   -0.6180 c3        1 SU8     -0.067400
      9 CAR         1.5770   -1.0920   -2.1140 c3        1 SU8     -0.085400
     10 CAS         2.3280   -2.2390   -2.7590 c3        1 SU8     -0.078400
     11 CAT         2.1280   -2.2690   -4.2530 c3        1 SU8     -0.084100
     12 OXT        -1.3370   -0.2910   -0.8830 o         1 SU8     -0.882800
     13 HAK         0.8600    0.9000   -0.5500 hc        1 SU8      0.035700
     14 HAL         1.4900   -0.6690    2.0290 hc        1 SU8      0.024700
     15 HALA        0.5800    0.8950    1.9670 hc        1 SU8      0.024700
     16 HAQ         1.6380   -2.0580   -0.1750 hc        1 SU8      0.044700
     17 HAQA        2.8760   -0.7540   -0.3990 hc        1 SU8      0.044700
     18 HAR         1.9070   -0.1250   -2.5760 hc        1 SU8      0.046700
     19 HARA        0.4730   -1.1920   -2.3030 hc        1 SU8      0.046700
     20 HAS         1.9760   -3.2070   -2.3150 hc        1 SU8      0.025700
     21 HASA        3.4220   -2.1470   -2.5270 hc        1 SU8      0.025700
     22 HAT         1.0430   -2.3670   -4.4990 hc        1 SU8      0.011700
     23 HATA        2.6740   -3.1300   -4.7100 hc        1 SU8      0.011700
     24 HATB        2.5060   -1.3270   -4.7180 hc        1 SU8      0.011700
@<TRIPOS>BOND
     1    1    2 1   
     2    1    4 1   
     3    1   12 1   
     4    2    3 1   
     5    2    8 1   
     6    2   13 1   
     7    3    5 1   
     8    3   14 1   
     9    3   15 1   
    10    5    6 1   
    11    5    7 1   
    12    8    9 1   
    13    8   16 1   
    14    8   17 1   
    15    9   10 1   
    16    9   18 1   
    17    9   19 1   
    18   10   11 1   
    19   10   20 1   
    20   10   21 1   
    21   11   22 1   
    22   11   23 1   
    23   11   24 1   
@<TRIPOS>SUBSTRUCTURE
     1 SU8         1 TEMP              0 ****  ****    0 ROOT
