@<TRIPOS>MOLECULE
SU9
   29    31     1     0     0
SMALL
bcc


@<TRIPOS>ATOM
      1 N5'         0.3660    0.5520    0.2610 na        1 SU9     -0.275900
      2 C4'         1.6740    0.1710    0.5160 cc        1 SU9      0.411400
      3 N3'         1.7750   -0.5610    1.6610 nd        1 SU9     -0.678000
      4 C2'         0.4920   -0.6530    2.1580 cd        1 SU9      0.347200
      5 C1'        -0.4210    0.0370    1.3010 cc        1 SU9     -0.245400
      6 C6'        -1.8280    0.1510    1.5010 ce        1 SU9      0.054800
      7 C9         -2.7820    0.7640    0.7780 cd        1 SU9     -0.161400
      8 C8         -2.6940    1.5480   -0.5020 c         1 SU9      0.723700
      9 O10        -1.7080    1.8200   -1.2070 o         1 SU9     -0.652500
     10 N7         -3.9910    1.9780   -0.8400 ns        1 SU9     -0.470100
     11 C5         -4.9100    1.5320    0.1270 ca        1 SU9      0.022600
     12 C6         -6.2840    1.7180    0.2000 ca        1 SU9     -0.128000
     13 C1         -6.9750    1.1590    1.2840 ca        1 SU9     -0.174000
     14 C2         -6.2940    0.4340    2.2620 ca        1 SU9      0.100100
     15 O11        -6.8940   -0.1510    3.3630 os        1 SU9     -0.327900
     16 C12        -8.3020    0.0180    3.4740 c3        1 SU9      0.113700
     17 C3         -4.8930    0.2340    2.2010 ca        1 SU9     -0.104000
     18 C4         -4.2080    0.7810    1.1390 ca        1 SU9     -0.069800
     19 H5'         0.0330    1.0870   -0.5070 hn        1 SU9      0.341700
     20 H4'         2.5110    0.4370   -0.1390 h5        1 SU9      0.067100
     21 H2'         0.2620   -1.1880    3.0790 h4        1 SU9      0.044100
     22 H6'        -2.1600   -0.3700    2.4260 ha        1 SU9      0.146000
     23 HN7        -4.2230    2.5130   -1.6340 hn        1 SU9      0.343500
     24 H6         -6.8290    2.2880   -0.5650 ha        1 SU9      0.141000
     25 H1         -8.0630    1.3060    1.3460 ha        1 SU9      0.141000
     26 H121       -8.5550   -0.5280    4.4180 h1        1 SU9      0.045033
     27 H122       -8.5640    1.1000    3.5630 h1        1 SU9      0.045033
     28 H123       -8.8250   -0.4420    2.6010 h1        1 SU9      0.045033
     29 H3         -4.3930   -0.3430    2.9900 ha        1 SU9      0.153000
@<TRIPOS>BOND
     1    1    2 1   
     2    1    5 1   
     3    1   19 1   
     4    2    3 2   
     5    2   20 1   
     6    3    4 1   
     7    4    5 2   
     8    4   21 1   
     9    5    6 1   
    10    6    7 2   
    11    6   22 1   
    12    7    8 1   
    13    7   18 1   
    14    8    9 2   
    15    8   10 1   
    16   10   11 1   
    17   10   23 1   
    18   11   12 ar  
    19   11   18 ar  
    20   12   13 ar  
    21   12   24 1   
    22   13   14 ar  
    23   13   25 1   
    24   14   15 1   
    25   14   17 ar  
    26   15   16 1   
    27   16   26 1   
    28   16   27 1   
    29   16   28 1   
    30   17   18 ar  
    31   17   29 1   
@<TRIPOS>SUBSTRUCTURE
     1 SU9         1 TEMP              0 ****  ****    0 ROOT
