@<TRIPOS>MOLECULE
SU9
   29    31     1     0     0
SMALL
bcc


@<TRIPOS>ATOM
      1 N5'        -0.1530   -0.1200   -3.7040 na        1 SU9     -0.275900
      2 C4'         0.4630   -0.1120   -4.9470 cc        1 SU9      0.411400
      3 N3'         1.8200   -0.0410   -4.8390 nd        1 SU9     -0.678000
      4 C2'         2.0840   -0.0030   -3.4870 cd        1 SU9      0.347200
      5 C1'         0.8650   -0.0510   -2.7430 cc        1 SU9     -0.245400
      6 C6'         0.7550   -0.0310   -1.3210 ce        1 SU9      0.054800
      7 C9         -0.3190   -0.0700   -0.5120 cd        1 SU9     -0.161400
      8 C8         -1.7870   -0.1500   -0.8290 c         1 SU9      0.723700
      9 O10        -2.3660   -0.2000   -1.9270 o         1 SU9     -0.652500
     10 N7         -2.4950   -0.1640    0.3870 n         1 SU9     -0.470100
     11 C5         -1.5960   -0.0990    1.4660 ca        1 SU9      0.022600
     12 C6         -1.8450   -0.0860    2.8320 ca        1 SU9     -0.128000
     13 C1         -0.7530   -0.0150    3.7080 ca        1 SU9     -0.174000
     14 C2          0.5500    0.0420    3.2130 ca        1 SU9      0.100100
     15 O11         1.6850    0.1140    4.0020 os        1 SU9     -0.327900
     16 C12         1.4720    0.1290    5.4080 c3        1 SU9      0.113700
     17 C3          0.8210    0.0300    1.8230 ca        1 SU9     -0.104000
     18 C4         -0.2470   -0.0400    0.9570 ca        1 SU9     -0.069800
     19 H5'        -1.1270   -0.1660   -3.5150 hn        1 SU9      0.341700
     20 H4'        -0.0950   -0.1570   -5.8890 h5        1 SU9      0.067100
     21 H2'         3.0990    0.0560   -3.0940 h4        1 SU9      0.044100
     22 H6'         1.7500    0.0290   -0.8270 ha        1 SU9      0.146000
     23 HN7        -3.4760   -0.2120    0.4730 hn        1 SU9      0.343500
     24 H6         -2.8670   -0.1310    3.2310 ha        1 SU9      0.141000
     25 H1         -0.9460   -0.0050    4.7900 ha        1 SU9      0.141000
     26 H121        2.5080    0.1890    5.8270 h1        1 SU9      0.045033
     27 H122        0.8730    1.0230    5.7080 h1        1 SU9      0.045033
     28 H123        0.9660   -0.8100    5.7410 h1        1 SU9      0.045033
     29 H3          1.8610    0.0760    1.4730 ha        1 SU9      0.153000
@<TRIPOS>BOND
     1    1    2 1   
     2    1    5 1   
     3    1   19 1   
     4    2    3 2   
     5    2   20 1   
     6    3    4 1   
     7    4    5 2   
     8    4   21 1   
     9    5    6 1   
    10    6    7 2   
    11    6   22 1   
    12    7    8 1   
    13    7   18 1   
    14    8    9 2   
    15    8   10 1   
    16   10   11 1   
    17   10   23 1   
    18   11   12 ar  
    19   11   18 ar  
    20   12   13 ar  
    21   12   24 1   
    22   13   14 ar  
    23   13   25 1   
    24   14   15 1   
    25   14   17 ar  
    26   15   16 1   
    27   16   26 1   
    28   16   27 1   
    29   16   28 1   
    30   17   18 ar  
    31   17   29 1   
@<TRIPOS>SUBSTRUCTURE
     1 SU9         1 TEMP              0 ****  ****    0 ROOT
