@<TRIPOS>MOLECULE
SU9
   29    31     1     0     0
SMALL
bcc


@<TRIPOS>ATOM
      1 N5'         0.3680    0.5120    0.2720 na        1 SU9     -0.275900
      2 C4'         1.6670    0.0910    0.5130 cc        1 SU9      0.411400
      3 N3'         1.7470   -0.6970    1.6220 nd        1 SU9     -0.678000
      4 C2'         0.4600   -0.7850    2.1090 cd        1 SU9      0.347200
      5 C1'        -0.4340   -0.0350    1.2840 cc        1 SU9     -0.245400
      6 C6'        -1.8390    0.1000    1.4850 ce        1 SU9      0.054800
      7 C9         -2.7770    0.7680    0.7890 cd        1 SU9     -0.161400
      8 C8         -2.6660    1.6110   -0.4520 c         1 SU9      0.723700
      9 O10        -1.6710    1.8950   -1.1390 o         1 SU9     -0.652500
     10 N7         -3.9520    2.0860   -0.7720 n         1 SU9     -0.470100
     11 C5         -4.8850    1.6130    0.1690 ca        1 SU9      0.022600
     12 C6         -6.2540    1.8260    0.2470 ca        1 SU9     -0.128000
     13 C1         -6.9620    1.2310    1.3010 ca        1 SU9     -0.174000
     14 C2         -6.3010    0.4450    2.2440 ca        1 SU9      0.100100
     15 O11        -6.9180   -0.1800    3.3140 os        1 SU9     -0.327900
     16 C12        -8.3220    0.0150    3.4290 c3        1 SU9      0.113700
     17 C3         -4.9050    0.2170    2.1780 ca        1 SU9     -0.104000
     18 C4         -4.2040    0.7990    1.1460 ca        1 SU9     -0.069800
     19 H5'         0.0510    1.0920   -0.4700 hn        1 SU9      0.341700
     20 H4'         2.5120    0.3700   -0.1260 h5        1 SU9      0.067100
     21 H2'         0.2140   -1.3590    3.0020 h4        1 SU9      0.044100
     22 H6'        -2.1860   -0.4570    2.3830 ha        1 SU9      0.146000
     23 HN7        -4.1700    2.6630   -1.5400 hn        1 SU9      0.343500
     24 H6         -6.7840    2.4440   -0.4910 ha        1 SU9      0.141000
     25 H1         -8.0470    1.3980    1.3660 ha        1 SU9      0.141000
     26 H121       -8.5910   -0.5700    4.3450 h1        1 SU9      0.045033
     27 H122       -8.5610    1.0970    3.5700 h1        1 SU9      0.045033
     28 H123       -8.8520   -0.3900    2.5330 h1        1 SU9      0.045033
     29 H3         -4.4210   -0.4080    2.9410 ha        1 SU9      0.153000
@<TRIPOS>BOND
     1    1    2 1   
     2    1    5 1   
     3    1   19 1   
     4    2    3 2   
     5    2   20 1   
     6    3    4 1   
     7    4    5 2   
     8    4   21 1   
     9    5    6 1   
    10    6    7 2   
    11    6   22 1   
    12    7    8 1   
    13    7   18 1   
    14    8    9 2   
    15    8   10 1   
    16   10   11 1   
    17   10   23 1   
    18   11   12 ar  
    19   11   18 ar  
    20   12   13 ar  
    21   12   24 1   
    22   13   14 ar  
    23   13   25 1   
    24   14   15 1   
    25   14   17 ar  
    26   15   16 1   
    27   16   26 1   
    28   16   27 1   
    29   16   28 1   
    30   17   18 ar  
    31   17   29 1   
@<TRIPOS>SUBSTRUCTURE
     1 SU9         1 TEMP              0 ****  ****    0 ROOT
