@<TRIPOS>MOLECULE
SU9
   29    31     1     0     0
SMALL
bcc


@<TRIPOS>ATOM
      1 N5'         0.3690    0.5250    0.2750 na        1 SU9     -0.275900
      2 C4'         1.6710    0.1190    0.5240 cc        1 SU9      0.411400
      3 N3'         1.7570   -0.6460    1.6490 nd        1 SU9     -0.678000
      4 C2'         0.4710   -0.7330    2.1380 cd        1 SU9      0.347200
      5 C1'        -0.4290   -0.0080    1.2970 cc        1 SU9     -0.245400
      6 C6'        -1.8350    0.1200    1.4960 ce        1 SU9      0.054800
      7 C9         -2.7780    0.7660    0.7860 cd        1 SU9     -0.161400
      8 C8         -2.6740    1.5840   -0.4710 c         1 SU9      0.723700
      9 O10        -1.6810    1.8630   -1.1640 o         1 SU9     -0.652500
     10 N7         -3.9630    2.0420   -0.8010 n         1 SU9     -0.470100
     11 C5         -4.8930    1.5810    0.1490 ca        1 SU9      0.022600
     12 C6         -6.2640    1.7840    0.2220 ca        1 SU9     -0.128000
     13 C1         -6.9680    1.2040    1.2880 ca        1 SU9     -0.174000
     14 C2         -6.3000    0.4430    2.2470 ca        1 SU9      0.100100
     15 O11        -6.9120   -0.1650    3.3290 os        1 SU9     -0.327900
     16 C12        -8.3180    0.0190    3.4390 c3        1 SU9      0.113700
     17 C3         -4.9020    0.2260    2.1860 ca        1 SU9     -0.104000
     18 C4         -4.2050    0.7920    1.1420 ca        1 SU9     -0.069800
     19 H5'         0.0470    1.0870   -0.4790 hn        1 SU9      0.341700
     20 H4'         2.5150    0.3920   -0.1200 h5        1 SU9      0.067100
     21 H2'         0.2300   -1.2910    3.0430 h4        1 SU9      0.044100
     22 H6'        -2.1780   -0.4220    2.4050 ha        1 SU9      0.146000
     23 HN7        -4.1850    2.6020   -1.5810 hn        1 SU9      0.343500
     24 H6         -6.7980    2.3820   -0.5280 ha        1 SU9      0.141000
     25 H1         -8.0530    1.3640    1.3490 ha        1 SU9      0.141000
     26 H121       -8.5830   -0.5500    4.3660 h1        1 SU9      0.045033
     27 H122       -8.8440   -0.4090    2.5510 h1        1 SU9      0.045033
     28 H123       -8.5670    1.1020    3.5570 h1        1 SU9      0.045033
     29 H3         -4.4130   -0.3810    2.9610 ha        1 SU9      0.153000
@<TRIPOS>BOND
     1    1    2 1   
     2    1    5 1   
     3    1   19 1   
     4    2    3 2   
     5    2   20 1   
     6    3    4 1   
     7    4    5 2   
     8    4   21 1   
     9    5    6 1   
    10    6    7 2   
    11    6   22 1   
    12    7    8 1   
    13    7   18 1   
    14    8    9 2   
    15    8   10 1   
    16   10   11 1   
    17   10   23 1   
    18   11   12 ar  
    19   11   18 ar  
    20   12   13 ar  
    21   12   24 1   
    22   13   14 ar  
    23   13   25 1   
    24   14   15 1   
    25   14   17 ar  
    26   15   16 1   
    27   16   26 1   
    28   16   27 1   
    29   16   28 1   
    30   17   18 ar  
    31   17   29 1   
@<TRIPOS>SUBSTRUCTURE
     1 SU9         1 TEMP              0 ****  ****    0 ROOT
