@<TRIPOS>MOLECULE
SUA
   35    28     1     0     0
SMALL
bcc


@<TRIPOS>ATOM
      1 S1          1.5690    5.6780    2.0040 ss        1 SUA      2.870000
      2 O1          2.8940    5.9090    1.6200 o         1 SUA     -0.938000
      3 O2          1.7290    5.4020    3.3970 o         1 SUA     -0.938000
      4 N1          0.6420    7.0050    1.7640 n2        1 SUA     -0.953000
      5 C1          0.8320    2.8450   -0.7770 c1        1 SUA     -0.089000
      6 C2          1.3390    3.9570   -0.1230 c1        1 SUA     -0.089000
      7 C3          0.8840    4.2850    1.1480 c1        1 SUA     -0.855000
      8 C4         -0.0810    3.4990    1.7650 c1        1 SUA      0.005000
      9 C5         -0.5900    2.3850    1.1110 c1        1 SUA     -0.203000
     10 C6         -0.1340    2.0560   -0.1610 c1        1 SUA      0.128000
     11 N2         -0.7770    0.9870   -0.9050 n         1 SUA     -0.257000
     12 C7         -0.1810   -0.3070   -0.9520 c2        1 SUA      0.142000
     13 S2          1.3540   -0.5390   -0.3560 s         1 SUA     -0.208000
     14 O3         -0.9070   -1.4020   -1.4820 os        1 SUA     -0.253000
     15 C8         -0.4580   -2.6780   -1.0070 c3        1 SUA     -0.019000
     16 C9         -1.3480   -3.7650   -1.5500 c3        1 SUA     -0.123000
     17 C10        -0.7840   -5.1760   -1.0980 c2        1 SUA     -0.112000
     18 C11        -1.2780   -6.0130    0.1620 c1        1 SUA     -0.148000
     19 C12        -0.5470   -7.2790    0.1890 c1        1 SUA     -0.445000
     20 S3          0.4190   -7.2990   -1.0240 ss        1 SUA      0.579000
     21 C13         0.2300   -5.9560   -1.7970 c1        1 SUA     -0.440000
     22 HN11        0.0790    7.2840    2.4140 hn        1 SUA      0.242500
     23 HN12        0.7670    7.5270    1.0010 hn        1 SUA      0.242500
     24 H11         1.1490    2.6170   -1.6620 ha        1 SUA      0.176500
     25 H21         2.0430    4.5330   -0.5730 ha        1 SUA      0.176500
     26 H41        -0.4180    3.7430    2.7090 ha        1 SUA      0.158000
     27 H51        -1.2620    1.8370    1.5420 ha        1 SUA      0.141000
     28 HN21       -1.5640    1.1540   -1.3730 hn        1 SUA      0.250000
     29 H81         0.4710   -2.8340   -1.3070 h1        1 SUA      0.125500
     30 H82        -0.4910   -2.6910   -0.0110 h1        1 SUA      0.125500
     31 H91        -1.3680   -3.7130   -2.5780 hc        1 SUA      0.102500
     32 H92        -2.2770   -3.6470   -1.1920 hc        1 SUA      0.102500
     33 H111       -1.9900   -5.7150    0.8420 DU        1 SUA      0.168000
     34 H121       -0.6510   -8.0000    0.8640 DU        1 SUA      0.168000
     35 H131        0.7070   -5.6880   -2.6040 DU        1 SUA      0.168000
@<TRIPOS>BOND
     1    1    2 1   
     2    1    3 1   
     3    4   22 1   
     4    4   23 1   
     5    5    6 1   
     6    5   24 1   
     7    6   25 1   
     8    7    8 1   
     9    8   26 1   
    10    9   10 1   
    11    9   27 1   
    12   10   11 1   
    13   11   12 1   
    14   11   28 1   
    15   12   13 1   
    16   12   14 1   
    17   14   15 1   
    18   15   16 1   
    19   15   29 1   
    20   15   30 1   
    21   16   17 1   
    22   16   31 1   
    23   16   32 1   
    24   17   18 1   
    25   17   21 1   
    26   18   19 1   
    27   19   20 1   
    28   20   21 1   
@<TRIPOS>SUBSTRUCTURE
     1 SUA         1 TEMP              0 ****  ****    0 ROOT
