@<TRIPOS>MOLECULE
SUA
   37    38     1     0     0
SMALL
bcc


@<TRIPOS>ATOM
      1 S1          0.3730   -0.5070   -0.2340 sy        1 SUA      1.464200
      2 O1          1.7140   -0.4240   -0.5260 o         1 SUA     -0.533300
      3 O2         -0.1720   -0.3390    1.0160 o         1 SUA     -0.533300
      4 N1         -0.2690    1.0390   -1.1030 n4        1 SUA     -0.801500
      5 C1         -0.3520   -3.3320   -2.8930 ca        1 SUA     -0.118500
      6 C2          0.2290   -2.2590   -2.2220 ca        1 SUA      0.023500
      7 C3         -0.3990   -1.6570   -1.1160 ca        1 SUA     -0.471500
      8 C4         -1.6440   -2.1670   -0.7030 ca        1 SUA      0.023500
      9 C5         -2.2460   -3.2380   -1.3590 ca        1 SUA     -0.118500
     10 C6         -1.5950   -3.8270   -2.4580 ca        1 SUA      0.077600
     11 N2         -2.2090   -4.9650   -3.1460 n4        1 SUA     -0.536200
     12 C7         -1.4730   -6.2980   -2.8940 c         1 SUA      0.296500
     13 S2         -2.0410   -7.2920   -1.8990 s         1 SUA      0.015600
     14 O3         -0.4020   -6.2110   -3.7210 os        1 SUA     -0.393900
     15 C8          0.3660   -7.4360   -3.9470 c3        1 SUA      0.140400
     16 C9         -0.2720   -8.2530   -5.0560 c3        1 SUA     -0.025100
     17 C10         0.5150   -9.4790   -5.2820 cc        1 SUA     -0.170300
     18 C11         0.5200  -10.5940   -4.3840 cc        1 SUA     -0.157000
     19 C12         1.3130  -11.6160   -4.8650 cd        1 SUA     -0.177100
     20 S3          1.9990  -11.2270   -6.3280 ss        1 SUA      0.171200
     21 C13         1.3080   -9.7260   -6.3940 cd        1 SUA     -0.184100
     22 HN11       -0.7630    1.6430   -0.4400 hn        1 SUA      0.471133
     23 HN12        0.5110    1.5870   -1.4800 hn        1 SUA      0.471133
     24 H41        -2.1530   -1.7320    0.1830 ha        1 SUA      0.198000
     25 H51        -3.2210   -3.6090   -0.9920 ha        1 SUA      0.198000
     26 HN21       -3.1820   -5.0870   -2.8200 hn        1 SUA      0.476300
     27 H81         1.3630   -7.0110   -4.2510 h1        1 SUA      0.103700
     28 H82         0.4470   -8.0100   -2.9870 h1        1 SUA      0.103700
     29 H91        -1.3230   -8.5250   -4.7680 hc        1 SUA      0.061200
     30 H92        -0.3210   -7.6410   -5.9960 hc        1 SUA      0.061200
     31 H111       -0.0450  -10.6230   -3.4520 ha        1 SUA      0.150000
     32 H121        1.4750  -12.5720   -4.3640 h4        1 SUA      0.192000
     33 H131        1.4550   -9.0360   -7.2240 h4        1 SUA      0.178000
     34 H11         0.1810   -3.7990   -3.7440 ha        1 SUA      0.198000
     35 H13        -0.9060    0.8520   -1.8730 hn        1 SUA      0.471133
     36 H22        -2.2080   -4.7710   -4.1600 hn        1 SUA      0.476300
     37 H21         1.2230   -1.8970   -2.5580 ha        1 SUA      0.198000
@<TRIPOS>BOND
     1    1    2 2   
     2    1    3 2   
     3    1    4 1   
     4    1    7 1   
     5    4   22 1   
     6    4   23 1   
     7    4   35 1   
     8    5    6 ar  
     9    5   10 ar  
    10    5   34 1   
    11    6    7 ar  
    12    6   37 1   
    13    7    8 ar  
    14    8    9 ar  
    15    8   24 1   
    16    9   10 ar  
    17    9   25 1   
    18   10   11 1   
    19   11   12 1   
    20   11   26 1   
    21   11   36 1   
    22   12   13 2   
    23   12   14 1   
    24   14   15 1   
    25   15   16 1   
    26   15   27 1   
    27   15   28 1   
    28   16   17 1   
    29   16   29 1   
    30   16   30 1   
    31   17   18 1   
    32   17   21 2   
    33   18   19 2   
    34   18   31 1   
    35   19   20 1   
    36   19   32 1   
    37   20   21 1   
    38   21   33 1   
@<TRIPOS>SUBSTRUCTURE
     1 SUA         1 TEMP              0 ****  ****    0 ROOT
