@<TRIPOS>MOLECULE
SUA
   36    37     1     0     0
SMALL
bcc


@<TRIPOS>ATOM
      1 S1         -0.6880    0.0540    0.2000 sy        1 SUA      1.513200
      2 O1          0.5130    0.3230    0.8220 o         1 SUA     -0.577300
      3 O2         -1.8860    0.4760    0.7370 o         1 SUA     -0.577300
      4 N1         -0.5510    1.3370   -1.2680 n4        1 SUA     -0.781500
      5 C1          0.4000   -3.1500   -1.7220 ca        1 SUA     -0.217500
      6 C2          0.4320   -1.9670   -1.0250 ca        1 SUA      0.049000
      7 C3         -0.7440   -1.2580   -0.6660 ca        1 SUA     -0.639500
      8 C4         -1.9780   -1.8450   -1.0540 ca        1 SUA      0.049000
      9 C5         -2.0420   -3.0270   -1.7460 ca        1 SUA     -0.217500
     10 C6         -0.8440   -3.7290   -2.1100 ca        1 SUA      0.221600
     11 N2         -0.9690   -4.9090   -2.8030 n         1 SUA     -0.396100
     12 C7          0.0510   -5.7530   -3.2670 c         1 SUA      0.546500
     13 S2          1.6140   -5.5650   -3.2010 s         1 SUA     -0.375400
     14 O3         -0.6130   -6.8180   -3.8270 os        1 SUA     -0.396900
     15 C8          0.2250   -7.8570   -4.3940 c3        1 SUA      0.140400
     16 C9         -0.7500   -8.8990   -4.9250 c3        1 SUA     -0.012100
     17 C10        -0.0090  -10.0650   -5.4410 cc        1 SUA     -0.137300
     18 C11         0.6620  -11.0110   -4.5980 cc        1 SUA     -0.153000
     19 C12         1.2490  -12.0140   -5.3370 cd        1 SUA     -0.172100
     20 S3          0.9880  -11.8080   -6.9710 ss        1 SUA      0.085200
     21 C13         0.1100  -10.4110   -6.7750 cd        1 SUA     -0.174100
     22 HN11       -1.3360    1.9830   -1.2420 hn        1 SUA      0.448800
     23 HN12        0.3040    1.8790   -1.1790 hn        1 SUA      0.448800
     24 H41        -2.9200   -1.3350   -0.7690 ha        1 SUA      0.167500
     25 H51        -3.0290   -3.4420   -2.0140 ha        1 SUA      0.195000
     26 HN21       -1.9090   -5.2260   -2.9810 hn        1 SUA      0.353500
     27 H81         0.8830   -8.2700   -3.5850 h1        1 SUA      0.078700
     28 H82         0.8530   -7.4070   -5.2060 h1        1 SUA      0.078700
     29 H91        -1.3800   -8.4420   -5.7340 hc        1 SUA      0.065700
     30 H92        -1.4400   -9.2180   -4.0980 hc        1 SUA      0.065700
     31 H111        0.6860  -10.9300   -3.5100 ha        1 SUA      0.153000
     32 H121        1.8150  -12.8510   -4.9270 h4        1 SUA      0.180000
     33 H131       -0.3180   -9.8550   -7.6090 h4        1 SUA      0.174000
     34 H11         1.3520   -3.6660   -1.9790 ha        1 SUA      0.195000
     35 H13        -0.5440    0.8810   -2.1730 hn        1 SUA      0.448800
     36 H21         1.4140   -1.5590   -0.7120 ha        1 SUA      0.167500
@<TRIPOS>BOND
     1    1    2 2   
     2    1    3 2   
     3    1    4 1   
     4    1    7 1   
     5    4   22 1   
     6    4   23 1   
     7    4   35 1   
     8    5    6 ar  
     9    5   10 ar  
    10    5   34 1   
    11    6    7 ar  
    12    6   36 1   
    13    7    8 ar  
    14    8    9 ar  
    15    8   24 1   
    16    9   10 ar  
    17    9   25 1   
    18   10   11 1   
    19   11   12 1   
    20   11   26 1   
    21   12   13 2   
    22   12   14 1   
    23   14   15 1   
    24   15   16 1   
    25   15   27 1   
    26   15   28 1   
    27   16   17 1   
    28   16   29 1   
    29   16   30 1   
    30   17   18 1   
    31   17   21 2   
    32   18   19 2   
    33   18   31 1   
    34   19   20 1   
    35   19   32 1   
    36   20   21 1   
    37   21   33 1   
@<TRIPOS>SUBSTRUCTURE
     1 SUA         1 TEMP              0 ****  ****    0 ROOT
