@<TRIPOS>MOLECULE
SUA
   36    37     1     0     0
SMALL
bcc


@<TRIPOS>ATOM
      1 S1         -0.6690    0.0590    0.1940 sy        1 SUA      1.513200
      2 O1          0.5530    0.3600    0.7570 o         1 SUA     -0.576800
      3 O2         -1.8510    0.4550    0.7840 o         1 SUA     -0.576800
      4 N1         -0.6330    1.3370   -1.2840 nz        1 SUA     -0.781500
      5 C1          0.4070   -3.1260   -1.7660 ca        1 SUA     -0.217500
      6 C2          0.4430   -1.9400   -1.0750 ca        1 SUA      0.049000
      7 C3         -0.7330   -1.2580   -0.6640 ca        1 SUA     -0.639500
      8 C4         -1.9690   -1.8770   -0.9910 ca        1 SUA      0.049000
      9 C5         -2.0360   -3.0640   -1.6750 ca        1 SUA     -0.217500
     10 C6         -0.8390   -3.7380   -2.0920 ca        1 SUA      0.221600
     11 N2         -0.9660   -4.9250   -2.7730 ns        1 SUA     -0.396100
     12 C7          0.0510   -5.7450   -3.2820 c         1 SUA      0.546500
     13 S2          1.6100   -5.5180   -3.2910 s         1 SUA     -0.375400
     14 O3         -0.6120   -6.8300   -3.8060 os        1 SUA     -0.396900
     15 C8          0.2240   -7.8500   -4.4080 c3        1 SUA      0.140400
     16 C9         -0.7470   -8.9220   -4.8820 c3        1 SUA     -0.012100
     17 C10        -0.0020  -10.0710   -5.4280 cc        1 SUA     -0.137300
     18 C11         0.7390  -10.9910   -4.6150 cc        1 SUA     -0.153000
     19 C12         1.3150  -11.9830   -5.3780 cd        1 SUA     -0.172100
     20 S3          0.9620  -11.7980   -6.9970 ss        1 SUA      0.085200
     21 C13         0.0560  -10.4250   -6.7640 cd        1 SUA     -0.174100
     22 HN11        0.2120    1.9010   -1.2380 hn        1 SUA      0.448800
     23 HN12       -1.4310    1.9640   -1.2250 hn        1 SUA      0.448800
     24 H41        -2.9080   -1.3890   -0.6640 ha        1 SUA      0.167500
     25 H51        -3.0230   -3.5050   -1.8940 ha        1 SUA      0.195000
     26 HN21       -1.9050   -5.2650   -2.9050 hn        1 SUA      0.353500
     27 H81         0.9340   -8.2380   -3.6310 h1        1 SUA      0.078200
     28 H82         0.7970   -7.3890   -5.2550 h1        1 SUA      0.078200
     29 H91        -1.3850   -9.2540   -4.0180 hc        1 SUA      0.065700
     30 H92        -1.4310   -8.4890   -5.6600 hc        1 SUA      0.065700
     31 H111        0.8180  -10.9000   -3.5300 ha        1 SUA      0.153000
     32 H121        1.9250  -12.8000   -4.9930 h4        1 SUA      0.180000
     33 H131       -0.4310   -9.8880   -7.5780 h4        1 SUA      0.174000
     34 H11         1.3590   -3.6210   -2.0650 ha        1 SUA      0.195000
     35 H13        -0.6570    0.8770   -2.1870 hn        1 SUA      0.448800
     36 H21         1.4270   -1.5060   -0.8110 ha        1 SUA      0.167500
@<TRIPOS>BOND
     1    1    2 2   
     2    1    3 2   
     3    1    4 1   
     4    1    7 1   
     5    4   22 1   
     6    4   23 1   
     7    4   35 1   
     8    5    6 ar  
     9    5   10 ar  
    10    5   34 1   
    11    6    7 ar  
    12    6   36 1   
    13    7    8 ar  
    14    8    9 ar  
    15    8   24 1   
    16    9   10 ar  
    17    9   25 1   
    18   10   11 1   
    19   11   12 1   
    20   11   26 1   
    21   12   13 2   
    22   12   14 1   
    23   14   15 1   
    24   15   16 1   
    25   15   27 1   
    26   15   28 1   
    27   16   17 1   
    28   16   29 1   
    29   16   30 1   
    30   17   18 1   
    31   17   21 2   
    32   18   19 2   
    33   18   31 1   
    34   19   20 1   
    35   19   32 1   
    36   20   21 1   
    37   21   33 1   
@<TRIPOS>SUBSTRUCTURE
     1 SUA         1 TEMP              0 ****  ****    0 ROOT
