@<TRIPOS>MOLECULE
SUA
   35    36     1     0     0
SMALL
bcc


@<TRIPOS>ATOM
      1 S1         -6.1200    0.0220    0.1290 sy        1 SUA      1.531200
      2 O1         -6.3530    1.2080    0.8590 o         1 SUA     -0.659300
      3 O2         -6.7360   -1.1630    0.5870 o         1 SUA     -0.659300
      4 N1         -6.5230    0.2650   -1.4030 n3        1 SUA     -1.026700
      5 C1         -2.1770    0.6210    0.0580 ca        1 SUA     -0.197000
      6 C2         -3.5510    0.8220    0.1030 ca        1 SUA      0.008500
      7 C3         -4.4560   -0.2420    0.0550 ca        1 SUA     -0.411500
      8 C4         -3.9380   -1.5420   -0.0210 ca        1 SUA      0.008500
      9 C5         -2.5750   -1.7770   -0.0650 ca        1 SUA     -0.197000
     10 C6         -1.6610   -0.6890   -0.0310 ca        1 SUA      0.122600
     11 N2         -0.2930   -0.9910   -0.0800 n         1 SUA     -0.405100
     12 C7          0.7690   -0.1180   -0.1240 c         1 SUA      0.578500
     13 S2          0.8090    1.4710   -0.1480 s         1 SUA     -0.486400
     14 O3          1.9010   -0.9200   -0.1510 os        1 SUA     -0.416900
     15 C8          3.1580   -0.2160   -0.2050 c3        1 SUA      0.141400
     16 C9          4.2220   -1.3010   -0.1130 c3        1 SUA     -0.017100
     17 C10         5.5690   -0.7020   -0.0790 cc        1 SUA     -0.119300
     18 C11         6.0590    0.0790    1.0220 cc        1 SUA     -0.149000
     19 C12         7.3520    0.4980    0.8080 cd        1 SUA     -0.168100
     20 S3          7.9370   -0.0360   -0.6640 ss        1 SUA      0.037200
     21 C13         6.5260   -0.8280   -1.0670 cd        1 SUA     -0.168100
     22 HN11       -6.8000   -0.4590   -2.0170 hn        1 SUA      0.447300
     23 HN12       -6.5450    1.1570   -1.8280 hn        1 SUA      0.447300
     24 H21        -3.9360    1.8540    0.1970 ha        1 SUA      0.157000
     25 H41        -4.6370   -2.3990   -0.0290 ha        1 SUA      0.157000
     26 H51        -2.2100   -2.8150   -0.1200 ha        1 SUA      0.168500
     27 HN21       -0.0690   -1.9690   -0.0830 hn        1 SUA      0.336500
     28 H81         3.2130    0.3490   -1.1710 h1        1 SUA      0.072700
     29 H82         3.2170    0.5020    0.6550 h1        1 SUA      0.072700
     30 H91         4.0520   -1.9090    0.8170 hc        1 SUA      0.062700
     31 H92         4.1220   -1.9950   -0.9900 hc        1 SUA      0.062700
     32 H111        5.4590    0.2980    1.9080 ha        1 SUA      0.156000
     33 H121        7.9430    1.1040    1.4930 h4        1 SUA      0.174000
     34 H131        6.3990   -1.3740   -2.0010 h4        1 SUA      0.172000
     35 H11        -1.4940    1.4930    0.0950 ha        1 SUA      0.168500
@<TRIPOS>BOND
     1    1    2 2   
     2    1    3 2   
     3    1    4 1   
     4    1    7 1   
     5    4   22 1   
     6    4   23 1   
     7    5    6 ar  
     8    5   10 ar  
     9    5   35 1   
    10    6    7 ar  
    11    6   24 1   
    12    7    8 ar  
    13    8    9 ar  
    14    8   25 1   
    15    9   10 ar  
    16    9   26 1   
    17   10   11 1   
    18   11   12 1   
    19   11   27 1   
    20   12   13 2   
    21   12   14 1   
    22   14   15 1   
    23   15   16 1   
    24   15   28 1   
    25   15   29 1   
    26   16   17 1   
    27   16   30 1   
    28   16   31 1   
    29   17   18 1   
    30   17   21 2   
    31   18   19 2   
    32   18   32 1   
    33   19   20 1   
    34   19   33 1   
    35   20   21 1   
    36   21   34 1   
@<TRIPOS>SUBSTRUCTURE
     1 SUA         1 TEMP              0 ****  ****    0 ROOT
