@<TRIPOS>MOLECULE
SUB
   60    62     1     0     0
SMALL
bcc


@<TRIPOS>ATOM
      1 C1         -0.4550    0.6060    0.8670 c         1 SUB      0.662100
      2 N1         -1.5990   -0.1240    1.0830 n         1 SUB     -0.532900
      3 C2         -2.8360    0.2090    0.4230 c3        1 SUB      0.076700
      4 C3         -4.9320    3.2940    0.6410 c3        1 SUB      0.139400
      5 C4         -3.8790   -0.9220    0.4590 c3        1 SUB     -0.044100
      6 C5         -3.3760   -2.2600    0.0510 ca        1 SUB     -0.106300
      7 C6         -3.9140   -3.3970    0.6710 ca        1 SUB     -0.124500
      8 C7         -3.5090   -4.6710    0.2810 ca        1 SUB     -0.130000
      9 C8         -2.5620   -4.8240   -0.7320 ca        1 SUB     -0.128000
     10 C9         -2.0220   -3.6970   -1.3490 ca        1 SUB     -0.130000
     11 C10        -2.4260   -2.4190   -0.9630 ca        1 SUB     -0.124500
     12 C11        -3.5110    1.4260    1.0630 c         1 SUB      0.618100
     13 C12        -5.6580    3.8840   -0.5430 c3        1 SUB     -0.100100
     14 C13         2.8330   -1.2560    1.3330 c3        1 SUB      0.210800
     15 O3         -0.4570    1.6760    0.2270 o         1 SUB     -0.606100
     16 C14         3.7960   -0.2330    1.9230 c3        1 SUB     -0.044300
     17 S1          3.0000    0.8840    3.0320 ss        1 SUB     -0.274200
     18 C15         1.5510    1.3250    2.1300 c3        1 SUB     -0.038300
     19 C16         0.8460    0.0960    1.5420 c3        1 SUB      0.185500
     20 N2          1.6900   -0.6800    0.6590 n3        1 SUB     -0.802500
     21 S2          1.5350   -0.8770   -0.9680 sy        1 SUB      1.509200
     22 C17         2.4820    0.3350   -1.6310 ca        1 SUB     -0.410500
     23 C18         3.7800    0.0530   -2.0810 ca        1 SUB     -0.008500
     24 C19         4.5640    1.0340   -2.6740 ca        1 SUB     -0.164000
     25 C20         4.0640    2.3340   -2.8350 ca        1 SUB     -0.002300
     26 C21         2.7690    2.6250   -2.3920 ca        1 SUB     -0.164000
     27 C22         1.9900    1.6360   -1.7990 ca        1 SUB     -0.008500
     28 O4          2.0950   -2.1270   -1.3250 o         1 SUB     -0.652800
     29 O5          0.1820   -0.6910   -1.3290 o         1 SUB     -0.652800
     30 C23         4.8910    3.3790   -3.4800 c3        1 SUB     -0.069800
     31 HN1        -1.5520   -1.0040    1.5420 hn        1 SUB      0.330500
     32 H2         -2.6030    0.4850   -0.6530 h1        1 SUB      0.112700
     33 H31        -4.1630    3.9970    1.0560 h1        1 SUB      0.051200
     34 H32        -5.6360    2.9950    1.4610 h1        1 SUB      0.051200
     35 H41        -4.3130   -0.9830    1.4940 hc        1 SUB      0.070200
     36 H42        -4.7090   -0.6150   -0.2370 hc        1 SUB      0.070200
     37 H6         -4.6630   -3.2820    1.4690 ha        1 SUB      0.149000
     38 H7         -3.9380   -5.5560    0.7730 ha        1 SUB      0.136500
     39 H8         -2.2420   -5.8300   -1.0400 ha        1 SUB      0.132000
     40 H9         -1.2690   -3.8100   -2.1440 ha        1 SUB      0.136500
     41 H10        -1.9740   -1.5380   -1.4520 ha        1 SUB      0.149000
     42 H121       -4.9380    4.1400   -1.3560 hc        1 SUB      0.048033
     43 H122       -6.4020    3.1580   -0.9490 hc        1 SUB      0.048033
     44 H123       -6.1890    4.8100   -0.2180 hc        1 SUB      0.048033
     45 H131        3.3960   -1.9060    0.5990 h1        1 SUB      0.072700
     46 H132        2.4670   -1.9270    2.1650 h1        1 SUB      0.072700
     47 H141        4.3140    0.3310    1.1090 h1        1 SUB      0.081200
     48 H142        4.5730   -0.7650    2.5260 h1        1 SUB      0.081200
     49 H151        1.7820    2.0580    1.3190 h1        1 SUB      0.097200
     50 H152        0.8690    1.8260    2.8610 h1        1 SUB      0.097200
     51 H16         0.5660   -0.5770    2.4150 h1        1 SUB      0.076700
     52 H18         4.1740   -0.9750   -1.9740 ha        1 SUB      0.166000
     53 H19         5.5800    0.7920   -3.0220 ha        1 SUB      0.143000
     54 H21         2.3630    3.6410   -2.5130 ha        1 SUB      0.143000
     55 H22         0.9640    1.8780   -1.4580 ha        1 SUB      0.166000
     56 H231        4.7280    3.3570   -4.5880 hc        1 SUB      0.054033
     57 H232        4.6170    4.3960   -3.1060 hc        1 SUB      0.054033
     58 H233        5.9790    3.2080   -3.2830 hc        1 SUB      0.054033
     59 O1         -4.2640    2.1150    0.1560 os        1 SUB     -0.438900
     60 O2         -3.4800    1.8150    2.2300 o         1 SUB     -0.536000
@<TRIPOS>BOND
     1    1    2 1   
     2    1   15 2   
     3    1   19 1   
     4    2    3 1   
     5    2   31 1   
     6    3    5 1   
     7    3   12 1   
     8    3   32 1   
     9    4   13 1   
    10    4   33 1   
    11    4   34 1   
    12    4   59 1   
    13    5    6 1   
    14    5   35 1   
    15    5   36 1   
    16    6    7 ar  
    17    6   11 ar  
    18    7    8 ar  
    19    7   37 1   
    20    8    9 ar  
    21    8   38 1   
    22    9   10 ar  
    23    9   39 1   
    24   10   11 ar  
    25   10   40 1   
    26   11   41 1   
    27   12   59 1   
    28   12   60 2   
    29   13   42 1   
    30   13   43 1   
    31   13   44 1   
    32   14   16 1   
    33   14   20 1   
    34   14   45 1   
    35   14   46 1   
    36   16   17 1   
    37   16   47 1   
    38   16   48 1   
    39   17   18 1   
    40   18   19 1   
    41   18   49 1   
    42   18   50 1   
    43   19   20 1   
    44   19   51 1   
    45   20   21 1   
    46   21   22 1   
    47   21   28 2   
    48   21   29 2   
    49   22   23 ar  
    50   22   27 ar  
    51   23   24 ar  
    52   23   52 1   
    53   24   25 ar  
    54   24   53 1   
    55   25   26 ar  
    56   25   30 1   
    57   26   27 ar  
    58   26   54 1   
    59   27   55 1   
    60   30   56 1   
    61   30   57 1   
    62   30   58 1   
@<TRIPOS>SUBSTRUCTURE
     1 SUB         1 TEMP              0 ****  ****    0 ROOT
