@<TRIPOS>MOLECULE
SUC
   45    46     1     0     0
SMALL
bcc


@<TRIPOS>ATOM
      1 C1         -0.4400    0.9140   -0.8240 c3        1 SUC      0.304900
      2 C2         -0.9450    0.5540   -2.2370 c3        1 SUC      0.086100
      3 C3         -0.0320   -0.4630   -2.9310 c3        1 SUC      0.073100
      4 C4          1.4320   -0.0190   -2.8220 c3        1 SUC      0.127100
      5 C5          1.7900    0.1420   -1.3360 c3        1 SUC      0.103100
      6 C6          3.2310    0.6500   -1.2040 c3        1 SUC      0.137400
      7 O1         -0.7060   -0.2020    0.0180 os        1 SUC     -0.449600
      8 O2         -2.2620    0.0420   -2.1770 oh        1 SUC     -0.598800
      9 O3         -0.3310   -0.5530   -4.3140 oh        1 SUC     -0.607800
     10 O4          2.2960   -1.0010   -3.3640 oh        1 SUC     -0.594800
     11 O5          0.9480    1.1290   -0.7290 os        1 SUC     -0.432600
     12 O6          3.7500    0.4060    0.0820 oh        1 SUC     -0.606800
     13 C1'        -2.7920    0.7610    0.9690 c3        1 SUC      0.117400
     14 C2'        -1.4480    0.0460    1.1960 c3        1 SUC      0.309600
     15 C3'        -1.5760   -1.3090    1.9460 c3        1 SUC      0.139100
     16 C4'        -0.3590   -1.3220    2.9040 c3        1 SUC      0.079100
     17 C5'         0.1690    0.1240    2.9120 c3        1 SUC      0.076100
     18 C6'         1.6220    0.2270    2.4500 c3        1 SUC      0.116400
     19 O1'        -2.6480    2.1620    0.9370 oh        1 SUC     -0.590800
     20 O2'        -0.6340    0.8950    1.9980 os        1 SUC     -0.443600
     21 O3'        -1.5400   -2.3600    1.0100 oh        1 SUC     -0.569800
     22 O4'        -0.8430   -1.7250    4.1720 oh        1 SUC     -0.594800
     23 O6'         1.9580    1.5710    2.1740 oh        1 SUC     -0.603800
     24 H1         -0.9090    1.8670   -0.4450 h2        1 SUC      0.121700
     25 H2         -1.0270    1.4930   -2.8520 h1        1 SUC      0.102700
     26 H3         -0.1590   -1.4770   -2.4550 h1        1 SUC      0.066700
     27 H4          1.5750    0.9540   -3.3690 h1        1 SUC      0.057700
     28 H5          1.6620   -0.8350   -0.7950 h1        1 SUC      0.081700
     29 H61         3.2790    1.7400   -1.4620 h1        1 SUC      0.064700
     30 H62         3.8810    0.0530   -1.9020 h1        1 SUC      0.064700
     31 HO2        -2.2390   -0.7410   -1.6060 ho        1 SUC      0.421000
     32 HO3        -1.2880   -0.6750   -4.3830 ho        1 SUC      0.422000
     33 HO4         1.9700   -1.1900   -4.2550 ho        1 SUC      0.425000
     34 HO6         3.3670    1.0610    0.6810 ho        1 SUC      0.419000
     35 H1'1       -3.2010    0.4860   -0.0420 h1        1 SUC      0.072200
     36 H1'2       -3.5110    0.4620    1.7760 h1        1 SUC      0.072200
     37 H3'        -2.5320   -1.3380    2.5370 h1        1 SUC      0.075700
     38 H4'         0.4240   -2.0410    2.5400 h1        1 SUC      0.072700
     39 H5'         0.0290    0.6150    3.9130 h1        1 SUC      0.085700
     40 H6'1        2.3190   -0.0940    3.2670 h1        1 SUC      0.061700
     41 H6'2        1.7820   -0.4000    1.5290 h1        1 SUC      0.061700
     42 HO1'       -2.2610    2.4380    1.7790 ho        1 SUC      0.420000
     43 HO3'       -1.5990   -3.1790    1.5210 ho        1 SUC      0.415000
     44 HO4'       -0.0930   -1.7040    4.7800 ho        1 SUC      0.414000
     45 HO6'        1.3550    1.8730    1.4760 ho        1 SUC      0.428000
@<TRIPOS>BOND
     1    1    2 1   
     2    1    7 1   
     3    1   11 1   
     4    1   24 1   
     5    2    3 1   
     6    2    8 1   
     7    2   25 1   
     8    3    4 1   
     9    3    9 1   
    10    3   26 1   
    11    4    5 1   
    12    4   10 1   
    13    4   27 1   
    14    5    6 1   
    15    5   11 1   
    16    5   28 1   
    17    6   12 1   
    18    6   29 1   
    19    6   30 1   
    20    7   14 1   
    21    8   31 1   
    22    9   32 1   
    23   10   33 1   
    24   12   34 1   
    25   13   14 1   
    26   13   19 1   
    27   13   35 1   
    28   13   36 1   
    29   14   15 1   
    30   14   20 1   
    31   15   16 1   
    32   15   21 1   
    33   15   37 1   
    34   16   17 1   
    35   16   22 1   
    36   16   38 1   
    37   17   18 1   
    38   17   20 1   
    39   17   39 1   
    40   18   23 1   
    41   18   40 1   
    42   18   41 1   
    43   19   42 1   
    44   21   43 1   
    45   22   44 1   
    46   23   45 1   
@<TRIPOS>SUBSTRUCTURE
     1 SUC         1 TEMP              0 ****  ****    0 ROOT
