@<TRIPOS>MOLECULE
SUF
   24    21     1     0     0
SMALL
bcc


@<TRIPOS>ATOM
      1 P1        772.1180 -260.3080  446.2570 p5        1 SUF      1.615500
      2 P2       1123.4510  721.0130  269.3980 p3        1 SUF      2.361000
      3 S       -1224.6880  -24.9400 -555.3300 s4        1 SUF      0.148000
      4 O1       1123.1320  721.1200  267.9630 o         1 SUF     -1.120000
      5 O2        772.6060 -258.6240  444.2740 oh        1 SUF     -0.359000
      6 O3       1122.3790  721.1370  270.4020 o         1 SUF     -1.120000
      7 O4        773.4940 -259.6830  446.4610 o         1 SUF     -0.941500
      8 O5        771.0880 -259.8900  447.2770 o         1 SUF     -0.941500
      9 C1        771.6600 -259.4940  444.7490 c2        1 SUF     -0.435000
     10 O6        772.1470 -261.7810  445.9330 o         1 SUF     -0.941500
     11 C2        770.5170 -259.6580  444.0780 c2        1 SUF     -0.372000
     12 O7       1124.8410  720.7820  269.8290 o         1 SUF     -1.120000
     13 C3      -1224.4220  -25.2100 -553.5750 c3        1 SUF     -0.500000
     14 C4      -1225.8330  -25.6910 -556.4910 c3        1 SUF     -0.500000
     15 HS      -1223.8870  -24.0080 -555.8720 hs        1 SUF     -0.254000
     16 HO2       773.3540 -258.6640  444.9200 ho        1 SUF      0.252000
     17 H21       770.2620 -259.1390  443.1470 ha        1 SUF      0.061500
     18 H22       769.7610 -260.3530  444.4570 ha        1 SUF      0.061500
     19 H31     -1225.0900  -26.0360 -553.2590 h1        1 SUF      0.017500
     20 H32     -1224.6620  -24.2980 -552.9900 h1        1 SUF      0.017500
     21 H33     -1223.3670  -25.4900 -553.3760 h1        1 SUF      0.017500
     22 H41     -1225.2920  -26.2580 -557.2760 h1        1 SUF      0.017500
     23 H42     -1226.4590  -24.9180 -556.9830 h1        1 SUF      0.017500
     24 H43     -1226.4830  -26.3840 -555.9200 h1        1 SUF      0.017500
@<TRIPOS>BOND
     1    1    7 1   
     2    1    8 1   
     3    1    9 1   
     4    1   10 1   
     5    2    4 1   
     6    2    6 1   
     7    2   12 1   
     8    3   13 1   
     9    3   14 1   
    10    3   15 1   
    11    5    9 1   
    12    5   16 1   
    13    9   11 1   
    14   11   17 1   
    15   11   18 1   
    16   13   19 1   
    17   13   20 1   
    18   13   21 1   
    19   14   22 1   
    20   14   23 1   
    21   14   24 1   
@<TRIPOS>SUBSTRUCTURE
     1 SUF         1 TEMP              0 ****  ****    0 ROOT
