@<TRIPOS>MOLECULE
SUF
   24    21     1     0     0
SMALL
bcc


@<TRIPOS>ATOM
      1 P1         -1.3670   -0.2580   -2.3040 p3        1 SUF      2.624000
      2 P2         -1.5780   -2.1320   -0.0160 p3        1 SUF      2.602000
      3 S           1.1260    0.6180    0.7580 s6        1 SUF      1.203000
      4 O1         -2.9450   -1.6110    0.3560 o         1 SUF     -1.298333
      5 O2          0.7080   -1.2480   -1.0030 oh        1 SUF     -0.361000
      6 O3         -0.8810   -2.6480    1.2210 o         1 SUF     -1.298333
      7 O4         -2.6570    0.4670   -2.0060 os        1 SUF     -1.296000
      8 O5         -0.4270    0.6670   -3.0390 o         1 SUF     -1.301500
      9 C1         -0.5980   -0.7900   -0.7480 c2        1 SUF     -1.031000
     10 O6         -1.6560   -1.4670   -3.1620 o         1 SUF     -1.301500
     11 C2         -0.5440    0.3770    0.2130 c3        1 SUF     -0.444000
     12 O7         -1.7220   -3.2540   -1.0170 o         1 SUF     -1.298333
     13 C3          1.7600    2.1240    0.0710 c3        1 SUF     -0.695500
     14 C4          1.1620    0.7140    2.5280 c3        1 SUF     -0.695500
     15 HS          1.7900   -0.2870    0.4000 hs        1 SUF     -0.167000
     16 HO2         0.6710   -2.0460   -1.3940 ho        1 SUF      0.161000
     17 H21        -0.8600    1.1850   -0.2380 h1        1 SUF      0.111500
     18 H22        -1.1150    0.1900    0.9850 h1        1 SUF      0.111500
     19 H31         2.6610    2.2880    0.4190 h1        1 SUF      0.062333
     20 H32         1.7950    2.0490   -0.9060 h1        1 SUF      0.062333
     21 H33         1.1730    2.8690    0.3200 h1        1 SUF      0.062333
     22 H41         0.9660   -0.1690    2.9070 h1        1 SUF      0.062333
     23 H42         2.0510    1.0050    2.8210 h1        1 SUF      0.062333
     24 H43         0.4890    1.3570    2.8340 h1        1 SUF      0.062333
@<TRIPOS>BOND
     1    1    8 1   
     2    1    9 1   
     3    1   10 1   
     4    2    4 1   
     5    2    6 1   
     6    2   12 1   
     7    3   11 1   
     8    3   13 1   
     9    3   14 1   
    10    3   15 1   
    11    5    9 1   
    12    5   16 1   
    13    9   11 1   
    14   11   17 1   
    15   11   18 1   
    16   13   19 1   
    17   13   20 1   
    18   13   21 1   
    19   14   22 1   
    20   14   23 1   
    21   14   24 1   
@<TRIPOS>SUBSTRUCTURE
     1 SUF         1 TEMP              0 ****  ****    0 ROOT
