@<TRIPOS>MOLECULE
SUF
   24    23     1     0     0
SMALL
bcc


@<TRIPOS>ATOM
      1 P1          1.7690   -1.5870   -2.9880 p5        1 SUF      1.252700
      2 P2         -0.6960   -2.5720   -0.6780 p5        1 SUF      1.252700
      3 S           1.9140    0.0110    0.5260 s6        1 SUF     -0.607200
      4 O1         -0.7730   -2.0660    0.7660 o         1 SUF     -0.983833
      5 O2          1.8150   -2.6270   -0.7030 oh        1 SUF     -0.672800
      6 O3         -1.9450   -2.1250   -1.4170 o         1 SUF     -0.983833
      7 O4          2.3270   -2.9510   -3.3640 o         1 SUF     -0.983833
      8 O5          0.8900   -0.9930   -4.0750 o         1 SUF     -0.983833
      9 C1          0.8490   -1.7970   -1.3790 c3        1 SUF     -0.190600
     10 O6          2.8960   -0.5970   -2.6740 o         1 SUF     -0.983833
     11 C2          0.8260   -0.4140   -0.8130 c3        1 SUF      0.143400
     12 O7         -0.4970   -4.0790   -0.7200 o         1 SUF     -0.983833
     13 C3          3.1010    1.1900   -0.0850 c3        1 SUF     -0.123300
     14 C4          0.9160    0.3090    1.9700 c3        1 SUF     -0.123300
     15 HS          2.5880   -1.0730    0.7780 hs        1 SUF      0.260800
     16 HO2         1.7110   -3.4670   -1.1730 ho        1 SUF      0.419000
     17 H21        -0.2100   -0.1880   -0.4380 h1        1 SUF      0.054700
     18 H22         1.0610    0.3210   -1.6330 h1        1 SUF      0.054700
     19 H31         2.6400    2.1950   -0.1530 h1        1 SUF      0.030700
     20 H32         3.9870    1.2430    0.5800 h1        1 SUF      0.030700
     21 H33         3.3820    0.8170   -1.1060 h1        1 SUF      0.030700
     22 H41         1.5250    0.2490    2.8940 h1        1 SUF      0.030700
     23 H42         0.4490    1.3120    1.9100 h1        1 SUF      0.030700
     24 H43         0.1290   -0.4910    1.9500 h1        1 SUF      0.030700
@<TRIPOS>BOND
     1    1    7 1   
     2    1    8 1   
     3    1    9 1   
     4    1   10 1   
     5    2    4 1   
     6    2    6 1   
     7    2    9 1   
     8    2   12 1   
     9    3   11 1   
    10    3   13 1   
    11    3   14 1   
    12    3   15 1   
    13    5    9 1   
    14    5   16 1   
    15    9   11 1   
    16   11   17 1   
    17   11   18 1   
    18   13   19 1   
    19   13   20 1   
    20   13   21 1   
    21   14   22 1   
    22   14   23 1   
    23   14   24 1   
@<TRIPOS>SUBSTRUCTURE
     1 SUF         1 TEMP              0 ****  ****    0 ROOT
