@<TRIPOS>MOLECULE
SUF
   24    23     1     0     0
SMALL
bcc


@<TRIPOS>ATOM
      1 P1         -0.5590    0.5980    1.4610 p5        1 SUF      1.246700
      2 P2          0.5090    2.9070   -1.0020 p5        1 SUF      1.246700
      3 S          -2.6570    1.1850   -1.9080 s6        1 SUF     -0.638200
      4 O1         -0.2030    3.0320   -2.3500 o         1 SUF     -0.979500
      5 O2          0.0570    0.4290   -1.0310 oh        1 SUF     -0.633800
      6 O3          0.2510    4.1570   -0.1780 o         1 SUF     -0.979500
      7 O4         -1.1360   -0.7570    1.0200 o         1 SUF     -0.979500
      8 O5          0.7680    0.4040    2.1700 o         1 SUF     -0.979500
      9 C1         -0.4170    1.4440   -0.1740 c3        1 SUF     -0.143600
     10 O6         -1.5680    1.3160    2.3490 o         1 SUF     -0.979500
     11 C2         -1.8460    1.8400   -0.4710 c3        1 SUF      0.095400
     12 O7          1.9920    2.6520   -1.1850 o         1 SUF     -0.979500
     13 C3         -3.5810   -0.2550   -1.3770 c3        1 SUF     -0.116800
     14 C4         -3.2630    2.5710   -2.8600 c3        1 SUF     -0.116800
     15 HS         -1.6810    0.6760   -2.6050 hs        1 SUF      0.291800
     16 HO2        -0.2710   -0.4270   -0.7010 ho        1 SUF      0.362000
     17 H21        -1.8820    2.9600   -0.5750 h1        1 SUF      0.072200
     18 H22        -2.5040    1.5640    0.3990 h1        1 SUF      0.072200
     19 H31        -3.7790   -0.9320   -2.2320 h1        1 SUF      0.023033
     20 H32        -4.5470    0.0700   -0.9410 h1        1 SUF      0.023033
     21 H33        -2.9660   -0.7670   -0.5980 h1        1 SUF      0.023033
     22 H41        -3.6790    2.2260   -3.8280 h1        1 SUF      0.023033
     23 H42        -2.3630    3.2160   -3.0130 h1        1 SUF      0.023033
     24 H43        -4.0460    3.1150   -2.2990 h1        1 SUF      0.023033
@<TRIPOS>BOND
     1    1    7 1   
     2    1    8 1   
     3    1    9 1   
     4    1   10 1   
     5    2    4 1   
     6    2    6 1   
     7    2    9 1   
     8    2   12 1   
     9    3   11 1   
    10    3   13 1   
    11    3   14 1   
    12    3   15 1   
    13    5    9 1   
    14    5   16 1   
    15    9   11 1   
    16   11   17 1   
    17   11   18 1   
    18   13   19 1   
    19   13   20 1   
    20   13   21 1   
    21   14   22 1   
    22   14   23 1   
    23   14   24 1   
@<TRIPOS>SUBSTRUCTURE
     1 SUF         1 TEMP              0 ****  ****    0 ROOT
