@<TRIPOS>MOLECULE
SUG
   38    36     1     0     0
SMALL
bcc


@<TRIPOS>ATOM
      1 O2          2.5370   -0.9490    0.3190 o         1 SUG     -0.306000
      2 N           4.0590    0.5680   -2.5180 n3        1 SUG     -0.355000
      3 CA          2.8540    0.0620   -1.9080 c3        1 SUG     -0.049000
      4 CB          2.4870   -1.3470   -2.4030 c3        1 SUG     -0.152000
      5 CG          2.2350   -1.3650   -3.8940 c3        1 SUG     -0.160000
      6 CD          1.8080   -2.7750   -4.3040 c3        1 SUG     -0.062000
      7 NE          1.5780   -2.8820   -5.7370 n3        1 SUG     -0.327000
      8 CZ          1.2430   -4.1650   -6.2230 c2        1 SUG      0.106000
      9 NH1         1.2280   -5.3440   -5.7050 n2        1 SUG     -0.233000
     10 NH2         0.6430   -4.1100   -7.6280 n4        1 SUG     -0.058000
     11 C           2.8590    0.0150   -0.3770 c2        1 SUG      0.251000
     12 O           3.2320    1.1090    0.3410 oh        1 SUG     -0.292000
     13 CW          7.7830    2.8370    0.7500 c3        1 SUG     -0.226000
     14 CX          6.6950    1.8230    0.7080 cx        1 SUG      0.014000
     15 CY          6.5950    0.8440   -0.3620 cu        1 SUG      0.286000
     16 OD1         6.7100   -0.1110   -1.0940 o         1 SUG     -0.241000
     17 OD2         5.7530    1.9310   -0.4460 os        1 SUG     -0.328000
     18 OXT         3.5060    4.8160   -1.9960 o         1 SUG     -0.157000
     19 HN          4.2610    1.4980   -2.2030 hn        1 SUG      0.173000
     20 HA          4.8460   -0.0270   -2.3400 hn        1 SUG      0.173000
     21 HB1         2.0150    0.7700   -2.1900 h1        1 SUG      0.121000
     22 HB2         1.5670   -1.6760   -1.8490 hc        1 SUG      0.108000
     23 HG1         3.3090   -2.0630   -2.1370 hc        1 SUG      0.108000
     24 HG2         1.4320   -0.6260   -4.1540 hc        1 SUG      0.107000
     25 HD1         3.1650   -1.0640   -4.4450 hc        1 SUG      0.107000
     26 HD2A        0.8440   -3.0410   -3.7820 h1        1 SUG      0.100000
     27 HNE         2.6040   -3.5030   -3.9670 h1        1 SUG      0.100000
     28 HH1         1.6190   -5.4750   -4.7950 hn        1 SUG      0.239000
     29 HH21        0.3100   -5.0450   -7.9030 hn        1 SUG      0.271000
     30 HH22        1.3550   -3.7960   -8.2930 hn        1 SUG      0.271000
     31 HW1         7.3900    3.7930    1.1780 hc        1 SUG      0.110667
     32 HW2         8.6110    2.4640    1.4030 hc        1 SUG      0.110667
     33 HX1         8.1900    3.0470   -0.2690 hc        1 SUG      0.110667
     34 HX2         6.1710    1.6300    1.6690 h1        1 SUG      0.169000
     35 H2          3.4430    1.8570   -0.2450 ho        1 SUG      0.247000
     36 HE3         2.2270   -2.3630   -6.2950 hn        1 SUG      0.227000
     37 HH23       -0.1450   -3.4530   -7.6290 hn        1 SUG      0.271000
     38 CV          3.3430    3.7130   -1.6480 c1        1 SUG      0.164000
@<TRIPOS>BOND
     1    1   11 1   
     2    2    3 1   
     3    2   19 1   
     4    2   20 1   
     5    3    4 1   
     6    3   11 1   
     7    3   21 1   
     8    4    5 1   
     9    4   22 1   
    10    4   23 1   
    11    5    6 1   
    12    5   24 1   
    13    5   25 1   
    14    6    7 1   
    15    6   26 1   
    16    6   27 1   
    17    7    8 1   
    18    7   36 1   
    19    8    9 1   
    20    8   10 1   
    21    9   28 1   
    22   10   29 1   
    23   10   30 1   
    24   10   37 1   
    25   11   12 1   
    26   12   35 1   
    27   13   14 1   
    28   13   31 1   
    29   13   32 1   
    30   13   33 1   
    31   14   15 1   
    32   14   17 1   
    33   14   34 1   
    34   15   16 1   
    35   15   17 1   
    36   18   38 1   
@<TRIPOS>SUBSTRUCTURE
     1 SUG         1 TEMP              0 ****  ****    0 ROOT
