@<TRIPOS>MOLECULE
SUG
   38    36     1     0     0
SMALL
bcc


@<TRIPOS>ATOM
      1 O2         -0.5110   -0.9580    0.4910 o         1 SUG     -0.301000
      2 N           2.4540    0.8290   -0.0140 n8        1 SUG     -0.357000
      3 CA          1.2750    0.2780   -0.6480 c3        1 SUG     -0.071000
      4 CB          1.4720   -1.0450   -1.4060 c3        1 SUG     -0.196000
      5 CG          2.3900   -0.8790   -2.5950 c3        1 SUG     -0.170000
      6 CD          2.3560   -2.1590   -3.4330 c3        1 SUG     -0.052000
      7 NE          3.3030   -2.1220   -4.5330 n7        1 SUG     -0.327000
      8 CZ          3.4500   -3.2990   -5.2900 c2        1 SUG      0.122000
      9 NH1         2.7310   -4.3680   -5.3850 n2        1 SUG     -0.265000
     10 NH2         4.6120   -3.2610   -6.2720 nz        1 SUG     -0.051000
     11 C           0.1450    0.0750    0.3630 c2        1 SUG      0.298000
     12 O          -0.2340    1.0930    1.1730 oh        1 SUG     -0.266000
     13 CW          7.0270    2.0020   -3.8310 c3        1 SUG     -0.235000
     14 CX          7.0520    0.5700   -3.4380 cx        1 SUG      0.040000
     15 CY          6.4650   -0.4690   -4.2710 cu        1 SUG      0.309000
     16 OD1         6.2120   -1.3080   -5.1150 o         1 SUG     -0.355000
     17 OD2         5.7110   -0.0680   -3.2050 os        1 SUG     -0.295000
     18 OXT         1.8180    3.5600    1.0000 o         1 SUG     -0.206000
     19 HN          3.1750    0.9860   -0.6890 hn        1 SUG      0.163500
     20 HA          2.7950    0.2250    0.7080 hn        1 SUG      0.163500
     21 HB1         0.9040    1.0540   -1.3860 h1        1 SUG      0.124000
     22 HB2         0.4620   -1.4010   -1.7450 hc        1 SUG      0.114500
     23 HG1         1.8740   -1.8240   -0.7060 hc        1 SUG      0.114500
     24 HG2         2.0570   -0.0090   -3.2200 hc        1 SUG      0.099500
     25 HD1         3.4400   -0.6680   -2.2540 hc        1 SUG      0.099500
     26 HD2A        1.3230   -2.2830   -3.8710 h1        1 SUG      0.101500
     27 HNE         2.5580   -3.0420   -2.7580 h1        1 SUG      0.101500
     28 HH1         1.9490   -4.4760   -4.7750 hn        1 SUG      0.231000
     29 HH21        4.5380   -4.0420   -6.9360 hn        1 SUG      0.274333
     30 HH22        4.6070   -2.3690   -6.7790 hn        1 SUG      0.274333
     31 HW1         6.8840    2.6380   -2.9190 hc        1 SUG      0.122333
     32 HW2         8.0040    2.2740   -4.3060 hc        1 SUG      0.122333
     33 HX1         6.2010    2.2250   -4.5480 hc        1 SUG      0.122333
     34 HX2         7.8000    0.2860   -2.6650 h1        1 SUG      0.177000
     35 H2          0.3320    1.8710    1.0450 ho        1 SUG      0.252000
     36 HE3         4.1270   -1.5790   -4.3570 hn        1 SUG      0.236000
     37 HH23        5.4940   -3.3320   -5.7480 hn        1 SUG      0.274333
     38 CV          2.9390    3.5740    0.6560 c1        1 SUG      0.207000
@<TRIPOS>BOND
     1    1   11 1   
     2    2    3 1   
     3    2   19 1   
     4    2   20 1   
     5    3    4 1   
     6    3   11 1   
     7    3   21 1   
     8    4    5 1   
     9    4   22 1   
    10    4   23 1   
    11    5    6 1   
    12    5   24 1   
    13    5   25 1   
    14    6    7 1   
    15    6   26 1   
    16    6   27 1   
    17    7    8 1   
    18    7   36 1   
    19    8    9 1   
    20    8   10 1   
    21    9   28 1   
    22   10   29 1   
    23   10   30 1   
    24   10   37 1   
    25   11   12 1   
    26   12   35 1   
    27   13   14 1   
    28   13   31 1   
    29   13   32 1   
    30   13   33 1   
    31   14   15 1   
    32   14   17 1   
    33   14   34 1   
    34   15   16 1   
    35   15   17 1   
    36   18   38 1   
@<TRIPOS>SUBSTRUCTURE
     1 SUG         1 TEMP              0 ****  ****    0 ROOT
