@<TRIPOS>MOLECULE
SUG
   35    34     1     0     0
SMALL
bcc


@<TRIPOS>ATOM
      1 O2          0.8160   -4.3530   -0.1780 o         1 SUG     -0.843800
      2 N          -0.9820   -1.2540    0.4420 n         1 SUG     -0.547900
      3 CA          0.1300   -2.0480   -0.0210 c3        1 SUG     -0.025300
      4 CB          1.4960   -1.5560    0.4840 c3        1 SUG     -0.071400
      5 CG          1.8270   -0.1740   -0.0320 c3        1 SUG     -0.094400
      6 CD          3.2960    0.1540    0.2330 c3        1 SUG      0.181800
      7 NE          3.6420    1.5130   -0.1280 nh        1 SUG     -0.848200
      8 CZ          5.0190    1.8360   -0.3000 c2        1 SUG      0.755100
      9 NH1         6.0430    1.2060    0.2320 n2        1 SUG     -0.922100
     10 NH2         5.2810    3.0020   -1.1060 nh        1 SUG     -0.885800
     11 C           0.0180   -3.5580    0.3930 c         1 SUG      0.908600
     12 O          -0.8330   -3.9050    1.2590 o         1 SUG     -0.843800
     13 CW         -2.7440    0.4750    0.3030 c3        1 SUG     -0.132400
     14 CX         -3.3160    1.5210   -0.6220 c3        1 SUG     -0.179400
     15 CY         -4.4050    2.3610    0.0610 c         1 SUG      0.903600
     16 OD1        -4.2860    2.6510    1.2890 o         1 SUG     -0.864800
     17 OD2        -5.3780    2.7560   -0.6470 o         1 SUG     -0.864800
     18 OXT        -0.8510    0.3180   -1.2180 o         1 SUG     -0.679100
     19 HN         -1.5570   -1.7020    1.1220 hn        1 SUG      0.323500
     20 HA          0.1520   -2.0110   -1.1500 h1        1 SUG      0.052700
     21 HB1         2.2570   -2.3000    0.1270 hc        1 SUG      0.042200
     22 HB2         1.5150   -1.5600    1.6040 hc        1 SUG      0.042200
     23 HG1         1.1610    0.5820    0.4620 hc        1 SUG      0.064700
     24 HG2         1.6080   -0.1220   -1.1320 hc        1 SUG      0.064700
     25 HD1         3.9350   -0.5940   -0.3220 h1        1 SUG      0.030700
     26 HD2A        3.5100    0.0310    1.3330 h1        1 SUG      0.030700
     27 HNE         3.0190    1.9090   -0.8030 hn        1 SUG      0.413800
     28 HH1         5.8210    0.3520    0.6940 hn        1 SUG      0.391400
     29 HH21        6.2200    3.3270   -1.0030 hn        1 SUG      0.379800
     30 HH22        4.6270    3.7380   -0.9360 hn        1 SUG      0.379800
     31 HW1        -3.5110   -0.3200    0.4900 hc        1 SUG      0.063200
     32 HW2        -2.5130    0.9590    1.2920 hc        1 SUG      0.063200
     33 HX1        -2.5030    2.2150   -0.9560 hc        1 SUG      0.034700
     34 HX2        -3.7410    1.0370   -1.5370 hc        1 SUG      0.034700
     35 CV         -1.4720   -0.1590   -0.2370 c         1 SUG      0.643100
@<TRIPOS>BOND
     1    1   11 1   
     2    2    3 1   
     3    2   19 1   
     4    2   35 1   
     5    3    4 1   
     6    3   11 1   
     7    3   20 1   
     8    4    5 1   
     9    4   21 1   
    10    4   22 1   
    11    5    6 1   
    12    5   23 1   
    13    5   24 1   
    14    6    7 1   
    15    6   25 1   
    16    6   26 1   
    17    7    8 1   
    18    7   27 1   
    19    8    9 2   
    20    8   10 1   
    21    9   28 1   
    22   10   29 1   
    23   10   30 1   
    24   11   12 1   
    25   13   14 1   
    26   13   31 1   
    27   13   32 1   
    28   13   35 1   
    29   14   15 1   
    30   14   33 1   
    31   14   34 1   
    32   15   16 1   
    33   15   17 1   
    34   18   35 2   
@<TRIPOS>SUBSTRUCTURE
     1 SUG         1 TEMP              0 ****  ****    0 ROOT
