@<TRIPOS>MOLECULE
SUG
   38    36     1     0     0
SMALL
bcc


@<TRIPOS>ATOM
      1 O2         -0.2640   -0.0410    0.2280 o         1 SUG     -0.295000
      2 N           3.0980    0.6160   -0.4790 n3        1 SUG     -0.362000
      3 CA          1.7580    0.5540   -1.0240 c3        1 SUG     -0.072000
      4 CB          1.4160   -0.6970   -1.8480 c3        1 SUG     -0.191000
      5 CG          2.3390   -0.8460   -3.0350 c3        1 SUG     -0.189000
      6 CD          1.7920   -1.8970   -4.0020 c3        1 SUG     -0.064000
      7 NE          2.7010   -2.2220   -5.0890 n3        1 SUG     -0.300000
      8 CZ          3.1100   -3.5670   -5.2180 c2        1 SUG      0.115000
      9 NH1         2.4220   -4.6520   -5.3200 n2        1 SUG     -0.233000
     10 NH2         4.6170   -3.7880   -5.3660 n4        1 SUG     -0.070000
     11 C           0.7060    0.7000    0.0740 c2        1 SUG      0.297000
     12 O           0.7770    1.7350    0.9480 oh        1 SUG     -0.265000
     13 CW          6.3700    1.9080   -3.0130 c3        1 SUG     -0.247000
     14 CX          6.6780    0.4690   -2.8060 cx        1 SUG      0.038000
     15 CY          6.0000   -0.5860   -3.5460 cu        1 SUG      0.312000
     16 OD1         5.6170   -1.3860   -4.3810 o         1 SUG     -0.368000
     17 OD2         5.5400   -0.3610   -2.2830 os        1 SUG     -0.288000
     18 OXT         3.5770    3.4120    0.3940 o         1 SUG     -0.182000
     19 HN          3.7800    0.5170   -1.2070 hn        1 SUG      0.166000
     20 HA          3.2430   -0.0930    0.2130 hn        1 SUG      0.166000
     21 HB1         1.6380    1.4580   -1.6990 h1        1 SUG      0.120000
     22 HB2         0.3500   -0.6050   -2.1910 hc        1 SUG      0.116000
     23 HG1         1.4700   -1.6060   -1.1930 hc        1 SUG      0.116000
     24 HG2         2.4340    0.1380   -3.5680 hc        1 SUG      0.090000
     25 HD1         3.3660   -1.1400   -2.6890 hc        1 SUG      0.090000
     26 HD2A        0.8560   -1.4940   -4.4930 h1        1 SUG      0.120000
     27 HNE         1.5050   -2.8190   -3.4220 h1        1 SUG      0.120000
     28 HH1         1.4250   -4.5950   -5.2800 hn        1 SUG      0.238000
     29 HH21        4.8180   -4.7690   -5.5910 hn        1 SUG      0.269000
     30 HH22        4.9830   -3.1830   -6.1070 hn        1 SUG      0.269000
     31 HW1         7.2970    2.4490   -3.3300 hc        1 SUG      0.126667
     32 HW2         5.5820    2.0610   -3.7890 hc        1 SUG      0.126667
     33 HX1         6.0040    2.3520   -2.0460 hc        1 SUG      0.126667
     34 HX2         7.6400    0.2420   -2.2950 h1        1 SUG      0.177000
     35 H2          1.5760    2.2650    0.7950 ho        1 SUG      0.249000
     36 HE3         3.4080   -1.5270   -5.2420 hn        1 SUG      0.227000
     37 HH23        5.0760   -3.5310   -4.4830 hn        1 SUG      0.269000
     38 CV          4.4840    3.1070   -0.2800 c1        1 SUG      0.184000
@<TRIPOS>BOND
     1    1   11 1   
     2    2    3 1   
     3    2   19 1   
     4    2   20 1   
     5    3    4 1   
     6    3   11 1   
     7    3   21 1   
     8    4    5 1   
     9    4   22 1   
    10    4   23 1   
    11    5    6 1   
    12    5   24 1   
    13    5   25 1   
    14    6    7 1   
    15    6   26 1   
    16    6   27 1   
    17    7    8 1   
    18    7   36 1   
    19    8    9 1   
    20    8   10 1   
    21    9   28 1   
    22   10   29 1   
    23   10   30 1   
    24   10   37 1   
    25   11   12 1   
    26   12   35 1   
    27   13   14 1   
    28   13   31 1   
    29   13   32 1   
    30   13   33 1   
    31   14   15 1   
    32   14   17 1   
    33   14   34 1   
    34   15   16 1   
    35   15   17 1   
    36   18   38 1   
@<TRIPOS>SUBSTRUCTURE
     1 SUG         1 TEMP              0 ****  ****    0 ROOT
