@<TRIPOS>MOLECULE
SUH
   15    14     1     0     0
SMALL
bcc


@<TRIPOS>ATOM
      1 OAG         1.0520   -0.7190   -0.7870 o         1 SUH     -0.889800
      2 CAJ         1.5060    0.3450   -0.2560 c         1 SUH      0.897600
      3 CAK         2.2040    0.2810    1.1050 c3        1 SUH     -0.153400
      4 CAL         3.6530   -0.1670    1.0420 c3        1 SUH     -0.146700
      5 CAM         4.3590    0.0010    2.4020 c         1 SUH      0.904600
      6 OAN         3.9030   -0.5790    3.4350 o         1 SUH     -0.885300
      7 OAO         5.4180    0.7040    2.4520 o         1 SUH     -0.885300
      8 OAP         1.3440    1.4750   -0.8160 o         1 SUH     -0.889800
      9 CAQ         3.7550   -1.6110    0.6010 c3        1 SUH     -0.073100
     10 HAK         2.1660    1.3000    1.5700 hc        1 SUH      0.022200
     11 HAKA        1.6370   -0.4220    1.7670 hc        1 SUH      0.022200
     12 HAL         4.1910    0.4810    0.2960 hc        1 SUH      0.031700
     13 HAQ         3.4290   -2.2840    1.4320 hc        1 SUH      0.015033
     14 HAQA        3.0960   -1.7890   -0.2850 hc        1 SUH      0.015033
     15 HAQB        4.8090   -1.8670    0.3350 hc        1 SUH      0.015033
@<TRIPOS>BOND
     1    1    2 1   
     2    2    3 1   
     3    2    8 1   
     4    3    4 1   
     5    3   10 1   
     6    3   11 1   
     7    4    5 1   
     8    4    9 1   
     9    4   12 1   
    10    5    6 1   
    11    5    7 1   
    12    9   13 1   
    13    9   14 1   
    14    9   15 1   
@<TRIPOS>SUBSTRUCTURE
     1 SUH         1 TEMP              0 ****  ****    0 ROOT
