@<TRIPOS>MOLECULE
SUH
   15    14     1     0     0
SMALL
bcc


@<TRIPOS>ATOM
      1 OAG         0.9600   -0.6060   -0.6960 o         1 SUH     -0.889800
      2 CAJ         1.6190    0.4260   -0.3490 c         1 SUH      0.897600
      3 CAK         2.3360    0.4550    1.0030 c3        1 SUH     -0.153400
      4 CAL         3.6750   -0.2600    1.0140 c3        1 SUH     -0.146700
      5 CAM         4.4420   -0.0090    2.3280 c         1 SUH      0.904600
      6 OAN         3.9200   -0.3190    3.4430 o         1 SUH     -0.885300
      7 OAO         5.6130    0.4830    2.2600 o         1 SUH     -0.885300
      8 OAP         1.6510    1.4600   -1.0890 o         1 SUH     -0.889800
      9 CAQ         3.4950   -1.7500    0.8190 c3        1 SUH     -0.073100
     10 HAK         2.5010    1.5250    1.2930 hc        1 SUH      0.022200
     11 HAKA        1.6710   -0.0130    1.7730 hc        1 SUH      0.022200
     12 HAL         4.3000    0.1450    0.1710 hc        1 SUH      0.031700
     13 HAQ         3.0780   -2.2060    1.7500 hc        1 SUH      0.015033
     14 HAQA        2.7870   -1.9430   -0.0250 hc        1 SUH      0.015033
     15 HAQB        4.4750   -2.2380    0.5980 hc        1 SUH      0.015033
@<TRIPOS>BOND
     1    1    2 1   
     2    2    3 1   
     3    2    8 1   
     4    3    4 1   
     5    3   10 1   
     6    3   11 1   
     7    4    5 1   
     8    4    9 1   
     9    4   12 1   
    10    5    6 1   
    11    5    7 1   
    12    9   13 1   
    13    9   14 1   
    14    9   15 1   
@<TRIPOS>SUBSTRUCTURE
     1 SUH         1 TEMP              0 ****  ****    0 ROOT
