@<TRIPOS>MOLECULE
SUI
   19    19     1     0     0
SMALL
bcc


@<TRIPOS>ATOM
      1 N          -1.1690    2.0410   -0.6960 n3        1 SUI     -0.891800
      2 C1A         0.2320    1.5240   -0.5930 c3        1 SUI      0.074500
      3 CB          0.6160    1.2260    1.0890 c3        1 SUI     -0.164400
      4 CG          0.0420    0.2270    1.3310 c         1 SUI      0.704500
      5 OD         -0.1670   -0.2550    2.4930 o         1 SUI     -0.608500
      6 C1          0.2900    0.4820   -1.0580 c         1 SUI      0.670500
      7 O1          0.7940    0.2030   -2.1420 o         1 SUI     -0.613500
      8 N2         -0.0530   -0.5090    0.0570 n         1 SUI     -0.442400
      9 C2A        -0.6400   -1.8250   -0.1270 c3        1 SUI     -0.057000
     10 C           0.4490   -2.8890   -0.0270 c         1 SUI      0.908600
     11 O           0.9510   -3.3610   -1.0660 o         1 SUI     -0.830800
     12 OXT         0.9310   -3.2300    1.1500 o         1 SUI     -0.830800
     13 HN         -1.4080    2.1340   -1.6090 hn        1 SUI      0.350800
     14 H          -1.2240    2.8600   -0.2800 hn        1 SUI      0.350800
     15 H1A         0.7070    2.2100   -1.0230 h1        1 SUI      0.103700
     16 HB1         1.6170    1.0870    1.3050 hc        1 SUI      0.078700
     17 HB2         0.4060    1.9310    1.6030 hc        1 SUI      0.078700
     18 H2A        -1.0440   -1.8700   -0.9800 h1        1 SUI      0.059200
     19 H2B        -1.3280   -1.9850    0.5740 h1        1 SUI      0.059200
@<TRIPOS>BOND
     1    1    2 1   
     2    1   13 1   
     3    1   14 1   
     4    2    3 1   
     5    2    6 1   
     6    2   15 1   
     7    3    4 1   
     8    3   16 1   
     9    3   17 1   
    10    4    5 2   
    11    4    8 1   
    12    6    7 2   
    13    6    8 1   
    14    8    9 1   
    15    9   10 1   
    16    9   18 1   
    17    9   19 1   
    18   10   11 1   
    19   10   12 1   
@<TRIPOS>SUBSTRUCTURE
     1 SUI         1 TEMP              0 ****  ****    0 ROOT
