@<TRIPOS>MOLECULE
SUI
   19    19     1     0     0
SMALL
bcc


@<TRIPOS>ATOM
      1 N           1.0320    1.3080    2.1300 n3        1 SUI     -0.895800
      2 C1A         0.3380    0.0410    2.1660 c3        1 SUI      0.096500
      3 CB         -1.1950    0.1640    2.0330 c3        1 SUI     -0.170400
      4 CG         -1.5270   -0.4310    0.6660 c         1 SUI      0.692500
      5 OD         -2.6600   -0.4380    0.1690 o         1 SUI     -0.615500
      6 C1          0.7220   -0.8820    0.9730 c         1 SUI      0.670500
      7 O1          1.8170   -1.4410    0.8600 o         1 SUI     -0.597500
      8 N2         -0.3850   -1.0480    0.0920 n         1 SUI     -0.444400
      9 C2A        -0.1380   -0.9120   -1.3310 c3        1 SUI     -0.062000
     10 C           0.5290    0.4360   -1.7470 c         1 SUI      0.906600
     11 O           0.9340    1.2180   -0.8360 o         1 SUI     -0.836300
     12 OXT         0.6250    0.6500   -2.9820 o         1 SUI     -0.836300
     13 HN          0.7610    1.8220    1.3050 hn        1 SUI      0.376800
     14 H           2.0190    1.1350    2.0690 hn        1 SUI      0.376800
     15 H1A         0.6090   -0.4820    3.1240 h1        1 SUI      0.062700
     16 HB1        -1.7090   -0.4170    2.8360 hc        1 SUI      0.076700
     17 HB2        -1.5550    1.2210    2.0680 hc        1 SUI      0.076700
     18 H2A         0.5480   -1.7470   -1.6360 h1        1 SUI      0.062200
     19 H2B        -1.1170   -1.0140   -1.8690 h1        1 SUI      0.062200
@<TRIPOS>BOND
     1    1    2 1   
     2    1   13 1   
     3    1   14 1   
     4    2    3 1   
     5    2    6 1   
     6    2   15 1   
     7    3    4 1   
     8    3   16 1   
     9    3   17 1   
    10    4    5 2   
    11    4    8 1   
    12    6    7 2   
    13    6    8 1   
    14    8    9 1   
    15    9   10 1   
    16    9   18 1   
    17    9   19 1   
    18   10   11 1   
    19   10   12 1   
@<TRIPOS>SUBSTRUCTURE
     1 SUI         1 TEMP              0 ****  ****    0 ROOT
