@<TRIPOS>MOLECULE
SUJ
   31    31     1     0     0
SMALL
bcc


@<TRIPOS>ATOM
      1 N          -1.9600    1.6060   -0.3990 n3        1 SUJ     -0.887800
      2 CA         -1.8780    0.2610   -0.9390 c3        1 SUJ      0.086500
      3 C1         -3.2330   -0.5000   -0.9280 c         1 SUJ      0.660500
      4 O1         -4.2740    0.2040   -0.9350 o         1 SUJ     -0.700500
      5 CB         -0.7700   -0.5610   -0.2830 c3        1 SUJ     -0.075400
      6 CG         -0.7470   -1.9350   -0.9050 c3        1 SUJ     -0.122400
      7 CD         -2.0720   -2.6760   -0.6740 c3        1 SUJ      0.275500
      8 OD         -2.0760   -3.2170    0.6490 oh        1 SUJ     -0.614800
      9 N2         -3.2670   -1.8720   -0.9220 n         1 SUJ     -0.443800
     10 C2         -4.3910   -2.6660   -1.4250 c3        1 SUJ     -0.056300
     11 C3         -5.7930   -2.0480   -1.2830 c3        1 SUJ      0.157100
     12 C4         -6.8440   -3.0740   -1.6800 c3        1 SUJ     -0.089100
     13 O3         -6.0810   -1.6960    0.0680 oh        1 SUJ     -0.639800
     14 C          -4.1240   -3.0780   -2.9240 c         1 SUJ      0.905600
     15 O          -4.7560   -2.4940   -3.8410 o         1 SUJ     -0.826300
     16 OXT        -3.2650   -3.9880   -3.1000 o         1 SUJ     -0.826300
     17 HN1        -2.1460    1.5680    0.5850 hn        1 SUJ      0.349800
     18 HN2        -2.7250    2.0860   -0.8400 hn        1 SUJ      0.349800
     19 HA         -1.6320    0.3690   -2.0410 h1        1 SUJ      0.087700
     20 HBC1       -0.9440   -0.6440    0.8220 hc        1 SUJ      0.040700
     21 HBC2        0.2170   -0.0500   -0.4310 hc        1 SUJ      0.040700
     22 HGC1       -0.5630   -1.8620   -2.0080 hc        1 SUJ      0.062200
     23 HGC2        0.0730   -2.5500   -0.4540 hc        1 SUJ      0.062200
     24 H0         -2.1120   -3.6030   -1.3420 h2        1 SUJ      0.161700
     25 HD         -2.1550   -2.4970    1.2830 ho        1 SUJ      0.385000
     26 H2         -4.3850   -3.6170   -0.8110 h1        1 SUJ      0.058700
     27 H3         -5.8700   -1.1440   -1.9500 h1        1 SUJ      0.072700
     28 H4C1       -6.7750   -3.9790   -1.0320 hc        1 SUJ      0.039033
     29 H4C2       -6.6790   -3.3640   -2.7470 hc        1 SUJ      0.039033
     30 H4C3       -7.8610   -2.6310   -1.5640 hc        1 SUJ      0.039033
     31 HB         -5.6290   -0.8630    0.2420 ho        1 SUJ      0.407000
@<TRIPOS>BOND
     1    1    2 1   
     2    1   17 1   
     3    1   18 1   
     4    2    3 1   
     5    2    5 1   
     6    2   19 1   
     7    3    4 2   
     8    3    9 1   
     9    5    6 1   
    10    5   20 1   
    11    5   21 1   
    12    6    7 1   
    13    6   22 1   
    14    6   23 1   
    15    7    8 1   
    16    7    9 1   
    17    7   24 1   
    18    8   25 1   
    19    9   10 1   
    20   10   11 1   
    21   10   14 1   
    22   10   26 1   
    23   11   12 1   
    24   11   13 1   
    25   11   27 1   
    26   12   28 1   
    27   12   29 1   
    28   12   30 1   
    29   13   31 1   
    30   14   15 1   
    31   14   16 1   
@<TRIPOS>SUBSTRUCTURE
     1 SUJ         1 TEMP              0 ****  ****    0 ROOT
