@<TRIPOS>MOLECULE
SUJ
   32    32     1     0     0
SMALL
bcc


@<TRIPOS>ATOM
      1 N           0.4630   -0.8670   -0.0130 nz        1 SUJ     -0.818600
      2 CA          1.6870   -0.0380    0.1400 c3        1 SUJ     -0.017500
      3 C1          1.5540    0.8220    1.4400 c         1 SUJ      0.788500
      4 O1          0.4420    1.0240    1.9390 o         1 SUJ     -0.600500
      5 CB          2.0730    0.9080   -0.9840 c3        1 SUJ     -0.089400
      6 CG          3.4480    1.4550   -0.6300 c3        1 SUJ     -0.095400
      7 CD          3.5560    2.0480    0.7980 c3        1 SUJ      0.305500
      8 OD          3.1440    3.4080    0.6500 oh        1 SUJ     -0.624800
      9 N2          2.7750    1.4000    1.8410 n         1 SUJ     -0.485800
     10 C2          3.4450    0.7000    2.9340 c3        1 SUJ     -0.014300
     11 C3          3.1170    1.3490    4.3010 c3        1 SUJ      0.147100
     12 C4          3.7610    0.5830    5.4410 c3        1 SUJ     -0.130100
     13 O3          3.6330    2.6810    4.2440 oh        1 SUJ     -0.619800
     14 C           3.0700   -0.8240    2.9620 c         1 SUJ      0.906600
     15 O           3.8800   -1.6290    3.4660 o         1 SUJ     -0.816300
     16 OXT         1.9700   -1.1790    2.4110 o         1 SUJ     -0.816300
     17 HN1        -0.3670   -0.2690    0.0250 hn        1 SUJ      0.462800
     18 HN2         0.4800   -1.4050   -0.8740 hn        1 SUJ      0.462800
     19 HA          2.5310   -0.7860    0.3090 hx        1 SUJ      0.147700
     20 HBC1        2.1170    0.3810   -1.9710 hc        1 SUJ      0.060700
     21 HBC2        1.3380    1.7500   -1.0670 hc        1 SUJ      0.060700
     22 HGC1        3.7120    2.2690   -1.3550 hc        1 SUJ      0.071700
     23 HGC2        4.2110    0.6390   -0.7210 hc        1 SUJ      0.071700
     24 H0          4.6450    2.0410    1.1100 h2        1 SUJ      0.068700
     25 HD          3.1140    3.8140    1.5280 ho        1 SUJ      0.435000
     26 H2          4.5610    0.7730    2.7880 h1        1 SUJ      0.074700
     27 H3          2.0000    1.3940    4.4410 h1        1 SUJ      0.053700
     28 H4C1        4.8680    0.5460    5.3070 hc        1 SUJ      0.051367
     29 H4C2        3.3760   -0.4660    5.4670 hc        1 SUJ      0.051367
     30 H4C3        3.5310    1.0840    6.4110 hc        1 SUJ      0.051367
     31 HB          3.4980    3.0620    5.1180 ho        1 SUJ      0.397000
     32 HN3         0.4560   -1.4910    0.8200 hn        1 SUJ      0.462800
@<TRIPOS>BOND
     1    1    2 1   
     2    1   17 1   
     3    1   18 1   
     4    1   32 1   
     5    2    3 1   
     6    2    5 1   
     7    2   19 1   
     8    3    4 2   
     9    3    9 1   
    10    5    6 1   
    11    5   20 1   
    12    5   21 1   
    13    6    7 1   
    14    6   22 1   
    15    6   23 1   
    16    7    8 1   
    17    7    9 1   
    18    7   24 1   
    19    8   25 1   
    20    9   10 1   
    21   10   11 1   
    22   10   14 1   
    23   10   26 1   
    24   11   12 1   
    25   11   13 1   
    26   11   27 1   
    27   12   28 1   
    28   12   29 1   
    29   12   30 1   
    30   13   31 1   
    31   14   15 1   
    32   14   16 1   
@<TRIPOS>SUBSTRUCTURE
     1 SUJ         1 TEMP              0 ****  ****    0 ROOT
