@<TRIPOS>MOLECULE
SUJ
   32    32     1     0     0
SMALL
bcc


@<TRIPOS>ATOM
      1 N           0.3730   -0.8630    0.0810 n4        1 SUJ     -0.818600
      2 CA          1.6220   -0.0630    0.1830 c3        1 SUJ     -0.017500
      3 C1          1.5390    0.8380    1.4610 c         1 SUJ      0.788500
      4 O1          0.4430    1.0830    1.9760 o         1 SUJ     -0.600500
      5 CB          2.0070    0.8400   -0.9750 c3        1 SUJ     -0.089400
      6 CG          3.4030    1.3600   -0.6660 c3        1 SUJ     -0.095400
      7 CD          3.5560    1.9920    0.7410 c3        1 SUJ      0.305500
      8 OD          3.1770    3.3570    0.5620 oh        1 SUJ     -0.624800
      9 N2          2.7820    1.3950    1.8190 n         1 SUJ     -0.485800
     10 C2          3.4580    0.7090    2.9180 c3        1 SUJ     -0.014300
     11 C3          3.1760    1.4050    4.2710 c3        1 SUJ      0.147100
     12 C4          3.8240    0.6550    5.4190 c3        1 SUJ     -0.130100
     13 O3          3.7250    2.7210    4.1650 oh        1 SUJ     -0.619800
     14 C           3.0450   -0.8030    2.9980 c         1 SUJ      0.906600
     15 O           3.8450   -1.6140    3.5080 o         1 SUJ     -0.816300
     16 OXT         1.9240   -1.1450    2.4810 o         1 SUJ     -0.816300
     17 HN1        -0.4410   -0.2430    0.1180 hn        1 SUJ      0.462800
     18 HN2         0.3580   -1.4260   -0.7640 hn        1 SUJ      0.462800
     19 HA          2.4490   -0.8270    0.3570 hx        1 SUJ      0.147700
     20 HBC1        1.2920    1.6980   -1.0680 hc        1 SUJ      0.060700
     21 HBC2        2.0160    0.2830   -1.9470 hc        1 SUJ      0.060700
     22 HGC1        3.6720    2.1460   -1.4210 hc        1 SUJ      0.071700
     23 HGC2        4.1420    0.5220   -0.7490 hc        1 SUJ      0.071700
     24 H0          4.6520    1.9660    1.0300 h2        1 SUJ      0.068700
     25 HD          3.1760    3.7890    1.4280 ho        1 SUJ      0.435000
     26 H2          4.5720    0.7490    2.7460 h1        1 SUJ      0.074700
     27 H3          2.0640    1.4840    4.4330 h1        1 SUJ      0.053700
     28 H4C1        4.9270    0.5850    5.2640 hc        1 SUJ      0.051367
     29 H4C2        3.4120   -0.3810    5.4850 hc        1 SUJ      0.051367
     30 H4C3        3.6290    1.1900    6.3800 hc        1 SUJ      0.051367
     31 HB          3.6190    3.1310    5.0300 ho        1 SUJ      0.397000
     32 HN3         0.3680   -1.4630    0.9320 hn        1 SUJ      0.462800
@<TRIPOS>BOND
     1    1    2 1   
     2    1   17 1   
     3    1   18 1   
     4    1   32 1   
     5    2    3 1   
     6    2    5 1   
     7    2   19 1   
     8    3    4 2   
     9    3    9 1   
    10    5    6 1   
    11    5   20 1   
    12    5   21 1   
    13    6    7 1   
    14    6   22 1   
    15    6   23 1   
    16    7    8 1   
    17    7    9 1   
    18    7   24 1   
    19    8   25 1   
    20    9   10 1   
    21   10   11 1   
    22   10   14 1   
    23   10   26 1   
    24   11   12 1   
    25   11   13 1   
    26   11   27 1   
    27   12   28 1   
    28   12   29 1   
    29   12   30 1   
    30   13   31 1   
    31   14   15 1   
    32   14   16 1   
@<TRIPOS>SUBSTRUCTURE
     1 SUJ         1 TEMP              0 ****  ****    0 ROOT
