@<TRIPOS>MOLECULE
SUJ
   32    32     1     0     0
SMALL
bcc


@<TRIPOS>ATOM
      1 N           0.4620   -0.8770   -0.0020 n4        1 SUJ     -0.818600
      2 CA          1.6790   -0.0370    0.1440 c3        1 SUJ     -0.017500
      3 C1          1.5510    0.8120    1.4540 c         1 SUJ      0.788500
      4 O1          0.4420    0.9970    1.9650 o         1 SUJ     -0.600500
      5 CB          2.0430    0.9230   -0.9750 c3        1 SUJ     -0.089400
      6 CG          3.4150    1.4820   -0.6310 c3        1 SUJ     -0.095400
      7 CD          3.5330    2.0630    0.8000 c3        1 SUJ      0.305500
      8 OD          3.1060    3.4210    0.6690 oh        1 SUJ     -0.624800
      9 N2          2.7690    1.3990    1.8460 n         1 SUJ     -0.485800
     10 C2          3.4580    0.6990    2.9280 c3        1 SUJ     -0.014300
     11 C3          3.1370    1.3340    4.3020 c3        1 SUJ      0.147100
     12 C4          3.8030    0.5690    5.4290 c3        1 SUJ     -0.131100
     13 O3          3.6350    2.6730    4.2480 oh        1 SUJ     -0.619800
     14 C           3.1000   -0.8290    2.9480 c         1 SUJ      0.906600
     15 O           3.9220   -1.6290    3.4390 o         1 SUJ     -0.816300
     16 OXT         1.9980   -1.1930    2.4030 o         1 SUJ     -0.816300
     17 HN1         0.4760   -1.4080   -0.8680 hn        1 SUJ      0.462800
     18 HN2        -0.3740   -0.2890    0.0490 hn        1 SUJ      0.462800
     19 HA          2.5320   -0.7760    0.2980 hx        1 SUJ      0.147700
     20 HBC1        2.0820    0.4040   -1.9670 hc        1 SUJ      0.060700
     21 HBC2        1.2970    1.7580   -1.0440 hc        1 SUJ      0.060700
     22 HGC1        3.6630    2.3040   -1.3520 hc        1 SUJ      0.071700
     23 HGC2        4.1860    0.6750   -0.7380 hc        1 SUJ      0.071700
     24 H0          4.6250    2.0650    1.1000 h2        1 SUJ      0.068700
     25 HD          3.0810    3.8190    1.5510 ho        1 SUJ      0.435000
     26 H2          4.5720    0.7840    2.7700 h1        1 SUJ      0.074700
     27 H3          2.0210    1.3640    4.4550 h1        1 SUJ      0.053700
     28 H4C1        4.9100    0.5500    5.2850 hc        1 SUJ      0.051367
     29 H4C2        3.4350   -0.4850    5.4510 hc        1 SUJ      0.051367
     30 H4C3        3.5760    1.0590    6.4060 hc        1 SUJ      0.051367
     31 HB          3.5040    3.0470    5.1270 ho        1 SUJ      0.397000
     32 HN3         0.4700   -1.5080    0.8260 hn        1 SUJ      0.462800
@<TRIPOS>BOND
     1    1    2 1   
     2    1   17 1   
     3    1   18 1   
     4    1   32 1   
     5    2    3 1   
     6    2    5 1   
     7    2   19 1   
     8    3    4 2   
     9    3    9 1   
    10    5    6 1   
    11    5   20 1   
    12    5   21 1   
    13    6    7 1   
    14    6   22 1   
    15    6   23 1   
    16    7    8 1   
    17    7    9 1   
    18    7   24 1   
    19    8   25 1   
    20    9   10 1   
    21   10   11 1   
    22   10   14 1   
    23   10   26 1   
    24   11   12 1   
    25   11   13 1   
    26   11   27 1   
    27   12   28 1   
    28   12   29 1   
    29   12   30 1   
    30   13   31 1   
    31   14   15 1   
    32   14   16 1   
@<TRIPOS>SUBSTRUCTURE
     1 SUJ         1 TEMP              0 ****  ****    0 ROOT
