@<TRIPOS>MOLECULE
SUM
   69    70     1     0     0
SMALL
bcc


@<TRIPOS>ATOM
      1 C1         -0.1070   -0.0920   -2.8800 c3        1 SUM      0.317900
      2 C2          0.1490   -1.5880   -2.6110 c3        1 SUM      0.099100
      3 C3          1.2410   -1.7600   -1.5450 c3        1 SUM      0.067100
      4 C4          2.4930   -0.9840   -1.9850 c3        1 SUM      0.132100
      5 C5          2.1110    0.4940   -2.1460 c3        1 SUM      0.096100
      6 C6          3.2870    1.3230   -2.6680 c3        1 SUM      0.137400
      7 O1         -0.6630    0.4590   -1.6980 os        1 SUM     -0.470600
      8 O2         -1.0300   -2.2580   -2.2190 oh        1 SUM     -0.594800
      9 O3          1.6210   -3.1200   -1.4250 oh        1 SUM     -0.606800
     10 O4          3.5140   -1.0490   -1.0080 oh        1 SUM     -0.593800
     11 O5          1.0690    0.6460   -3.1220 os        1 SUM     -0.451600
     12 O6          2.9720    2.6980   -2.6720 oh        1 SUM     -0.594800
     13 C11        -1.1160    2.6740   -2.7210 c3        1 SUM      0.132400
     14 C12        -1.6010    1.5200   -1.8330 c3        1 SUM      0.316600
     15 C13        -3.0190    1.0160   -2.2230 c3        1 SUM      0.061100
     16 C14        -3.7940    0.9300   -0.8840 c3        1 SUM      0.081100
     17 C15        -2.7840    1.3680    0.1990 c3        1 SUM      0.144100
     18 O11         0.0430    3.2970   -2.2280 oh        1 SUM     -0.579800
     19 O13        -2.8760   -0.2480   -2.8370 oh        1 SUM     -0.589800
     20 O14        -4.8690    1.8470   -0.8500 oh        1 SUM     -0.579800
     21 O15        -1.6600    1.9570   -0.4820 os        1 SUM     -0.389600
     22 C21        -1.1200    0.5110    1.9010 c3        1 SUM      0.155100
     23 C22        -1.0790   -0.3630    3.1510 c3        1 SUM     -0.074400
     24 C23         0.0360    0.0620    4.0800 c3        1 SUM     -0.079400
     25 C24         0.1080   -0.8360    5.2970 c3        1 SUM     -0.077400
     26 C25         1.2170   -0.4030    6.2320 c3        1 SUM     -0.079400
     27 C26         1.2930   -1.3020    7.4470 c3        1 SUM     -0.079400
     28 C27         2.4010   -0.8700    8.3840 c3        1 SUM     -0.080400
     29 C28         2.4810   -1.7620    9.5950 c3        1 SUM     -0.092100
     30 O21         0.0720    0.2460    1.1710 oh        1 SUM     -0.611800
     31 CM         -2.3440    0.1830    1.0440 c3        1 SUM     -0.136400
     32 H1         -0.7580    0.0590   -3.7840 h2        1 SUM      0.103700
     33 H2          0.4650   -2.0860   -3.5700 h1        1 SUM      0.094700
     34 H3          0.8730   -1.3750   -0.5490 h1        1 SUM      0.087700
     35 H4          2.8780   -1.4040   -2.9560 h1        1 SUM      0.055700
     36 H5          1.7510    0.8980   -1.1590 h1        1 SUM      0.080700
     37 H61         4.1490    1.2130   -1.9570 h1        1 SUM      0.066200
     38 H62         3.5780    0.9770   -3.6940 h1        1 SUM      0.066200
     39 HO2        -1.5190   -1.6700   -1.6250 ho        1 SUM      0.425000
     40 HO3         0.8060   -3.6210   -1.2870 ho        1 SUM      0.424000
     41 HO4         3.5740   -1.9750   -0.7330 ho        1 SUM      0.428000
     42 HO6         2.2730    2.8330   -3.3250 ho        1 SUM      0.411000
     43 H111       -0.9290    2.2700   -3.7530 h1        1 SUM      0.060700
     44 H112       -1.8940    3.4830   -2.7480 h1        1 SUM      0.060700
     45 H13        -3.5160    1.7420   -2.9210 h1        1 SUM      0.068700
     46 H14        -4.1600   -0.1170   -0.7050 h1        1 SUM      0.060700
     47 H15        -3.1970    2.1990    0.8340 h1        1 SUM      0.103700
     48 HO11        0.6590    2.6010   -1.9510 ho        1 SUM      0.423000
     49 HO13       -3.7620   -0.5540   -3.0700 ho        1 SUM      0.414000
     50 HO14       -5.5510    1.5060   -1.4420 ho        1 SUM      0.404000
     51 H21        -1.1430    1.6000    2.1920 h1        1 SUM      0.042700
     52 H221       -0.9310   -1.4310    2.8460 hc        1 SUM      0.044700
     53 H222       -2.0650   -0.2860    3.6780 hc        1 SUM      0.044700
     54 H231       -0.1260    1.1240    4.4040 hc        1 SUM      0.050700
     55 H232        1.0100    0.0300    3.5220 hc        1 SUM      0.050700
     56 H241        0.2820   -1.8950    4.9730 hc        1 SUM      0.037200
     57 H242       -0.8730   -0.8130    5.8410 hc        1 SUM      0.037200
     58 H251        1.0420    0.6560    6.5580 hc        1 SUM      0.041700
     59 H252        2.1970   -0.4240    5.6860 hc        1 SUM      0.041700
     60 H261        1.4680   -2.3610    7.1220 hc        1 SUM      0.038200
     61 H262        0.3120   -1.2820    7.9920 hc        1 SUM      0.038200
     62 H271        2.2250    0.1910    8.7070 hc        1 SUM      0.039200
     63 H272        3.3810   -0.8890    7.8360 hc        1 SUM      0.039200
     64 H281        3.3040   -1.4250   10.2720 hc        1 SUM      0.031700
     65 H282        1.5220   -1.7370   10.1680 hc        1 SUM      0.031700
     66 H283        2.6810   -2.8180    9.2950 hc        1 SUM      0.031700
     67 HO21        0.0510    0.8170    0.3890 ho        1 SUM      0.423000
     68 HCM1       -2.0830   -0.6790    0.3740 hc        1 SUM      0.059700
     69 HCM2       -3.2020   -0.1200    1.6970 hc        1 SUM      0.059700
@<TRIPOS>BOND
     1    1    2 1   
     2    1    7 1   
     3    1   11 1   
     4    1   32 1   
     5    2    3 1   
     6    2    8 1   
     7    2   33 1   
     8    3    4 1   
     9    3    9 1   
    10    3   34 1   
    11    4    5 1   
    12    4   10 1   
    13    4   35 1   
    14    5    6 1   
    15    5   11 1   
    16    5   36 1   
    17    6   12 1   
    18    6   37 1   
    19    6   38 1   
    20    7   14 1   
    21    8   39 1   
    22    9   40 1   
    23   10   41 1   
    24   12   42 1   
    25   13   14 1   
    26   13   18 1   
    27   13   43 1   
    28   13   44 1   
    29   14   15 1   
    30   14   21 1   
    31   15   16 1   
    32   15   19 1   
    33   15   45 1   
    34   16   17 1   
    35   16   20 1   
    36   16   46 1   
    37   17   21 1   
    38   17   31 1   
    39   17   47 1   
    40   18   48 1   
    41   19   49 1   
    42   20   50 1   
    43   22   23 1   
    44   22   30 1   
    45   22   31 1   
    46   22   51 1   
    47   23   24 1   
    48   23   52 1   
    49   23   53 1   
    50   24   25 1   
    51   24   54 1   
    52   24   55 1   
    53   25   26 1   
    54   25   56 1   
    55   25   57 1   
    56   26   27 1   
    57   26   58 1   
    58   26   59 1   
    59   27   28 1   
    60   27   60 1   
    61   27   61 1   
    62   28   29 1   
    63   28   62 1   
    64   28   63 1   
    65   29   64 1   
    66   29   65 1   
    67   29   66 1   
    68   30   67 1   
    69   31   68 1   
    70   31   69 1   
@<TRIPOS>SUBSTRUCTURE
     1 SUM         1 TEMP              0 ****  ****    0 ROOT
