@<TRIPOS>MOLECULE
SUM
   69    70     1     0     0
SMALL
bcc


@<TRIPOS>ATOM
      1 C1         -0.3430   -0.6340    0.5100 c3        1 SUM      0.336900
      2 C2          0.6580   -1.6080    1.1720 c3        1 SUM      0.132100
      3 C3          0.1420   -2.0110    2.5610 c3        1 SUM      0.056100
      4 C4         -0.0480   -0.7270    3.3850 c3        1 SUM      0.096100
      5 C5         -1.0940    0.1390    2.6710 c3        1 SUM      0.101100
      6 C6         -1.2960    1.4830    3.3760 c3        1 SUM      0.138400
      7 O1         -1.5590   -1.3230    0.3080 os        1 SUM     -0.469600
      8 O2          0.7970   -2.7280    0.3200 oh        1 SUM     -0.605800
      9 O3          1.1310   -2.8410    3.1500 oh        1 SUM     -0.609800
     10 O4         -0.5480   -1.0260    4.6760 oh        1 SUM     -0.584800
     11 O5         -0.6530    0.4620    1.3450 os        1 SUM     -0.450600
     12 O6         -2.4050    2.1710    2.8420 oh        1 SUM     -0.593800
     13 C11        -2.6560    0.5980   -0.8320 c3        1 SUM      0.132400
     14 C12        -2.3960   -0.9110   -0.7740 c3        1 SUM      0.273600
     15 C13        -1.9250   -1.5030   -2.1310 c3        1 SUM      0.078100
     16 C14        -2.7860   -2.7780   -2.3200 c3        1 SUM      0.085100
     17 C15        -3.6850   -2.8550   -1.0680 c3        1 SUM      0.139100
     18 O11        -3.3700    1.0840    0.2800 oh        1 SUM     -0.582800
     19 O13        -0.5490   -1.7750   -2.1720 oh        1 SUM     -0.592800
     20 O14        -3.6360   -2.6680   -3.4450 oh        1 SUM     -0.584800
     21 O15        -3.5920   -1.5820   -0.4000 os        1 SUM     -0.392600
     22 C21        -3.9120   -3.9090    1.2210 c3        1 SUM      0.156100
     23 C22        -3.9740   -5.2890    1.8700 c3        1 SUM     -0.074400
     24 C23        -4.7800   -5.2580    3.1490 c3        1 SUM     -0.079400
     25 C24        -4.8000   -6.6160    3.8180 c3        1 SUM     -0.077400
     26 C25        -5.6150   -6.5870    5.0930 c3        1 SUM     -0.079400
     27 C26        -5.6310   -7.9430    5.7660 c3        1 SUM     -0.079400
     28 C27        -6.4470   -7.9150    7.0410 c3        1 SUM     -0.080400
     29 C28        -6.4660   -9.2630    7.7150 c3        1 SUM     -0.092100
     30 O21        -3.1690   -3.0710    2.0990 oh        1 SUM     -0.618800
     31 CM         -3.2320   -3.9770   -0.1460 c3        1 SUM     -0.140400
     32 H1          0.0780   -0.1910   -0.4360 h2        1 SUM      0.109700
     33 H2          1.6510   -1.0850    1.2680 h1        1 SUM      0.066700
     34 H3         -0.8390   -2.5590    2.4610 h1        1 SUM      0.104700
     35 H4          0.9300   -0.1760    3.4690 h1        1 SUM      0.057700
     36 H5         -2.0670   -0.4260    2.6120 h1        1 SUM      0.082700
     37 H61        -1.5520    1.2900    4.4530 h1        1 SUM      0.064200
     38 H62        -0.3650    2.1030    3.2980 h1        1 SUM      0.064200
     39 HO2         1.2760   -3.3990    0.8270 ho        1 SUM      0.432000
     40 HO3         0.6750   -3.4030    3.7880 ho        1 SUM      0.416000
     41 HO4         0.1510   -1.5130    5.1290 ho        1 SUM      0.409000
     42 HO6        -2.1940    2.3990    1.9260 ho        1 SUM      0.416000
     43 H111       -3.3010    0.8350   -1.7200 h1        1 SUM      0.061200
     44 H112       -1.6680    1.1270   -0.9110 h1        1 SUM      0.061200
     45 H13        -2.1050   -0.7690   -2.9640 h1        1 SUM      0.100700
     46 H14        -2.1300   -3.6840   -2.4160 h1        1 SUM      0.063700
     47 H15        -4.7710   -2.9530   -1.3420 h1        1 SUM      0.102700
     48 HO11       -3.0360    0.6290    1.0660 ho        1 SUM      0.419000
     49 HO13       -0.3440   -2.3880   -1.4480 ho        1 SUM      0.436000
     50 HO14       -3.0660   -2.6620   -4.2250 ho        1 SUM      0.410000
     51 H21        -4.9530   -3.4910    1.1070 h1        1 SUM      0.042700
     52 H221       -4.4370   -6.0080    1.1440 hc        1 SUM      0.044200
     53 H222       -2.9320   -5.6390    2.0870 hc        1 SUM      0.044200
     54 H231       -5.8310   -4.9340    2.9250 hc        1 SUM      0.050200
     55 H232       -4.3380   -4.4950    3.8430 hc        1 SUM      0.050200
     56 H241       -5.2290   -7.3780    3.1150 hc        1 SUM      0.036700
     57 H242       -3.7490   -6.9360    4.0510 hc        1 SUM      0.036700
     58 H251       -6.6650   -6.2700    4.8610 hc        1 SUM      0.041200
     59 H252       -5.1870   -5.8240    5.7950 hc        1 SUM      0.041200
     60 H261       -4.5810   -8.2600    6.0000 hc        1 SUM      0.038200
     61 H262       -6.0590   -8.7070    5.0640 hc        1 SUM      0.038200
     62 H271       -7.4970   -7.5960    6.8060 hc        1 SUM      0.038700
     63 H272       -6.0190   -7.1490    7.7410 hc        1 SUM      0.038700
     64 H281       -7.0730   -9.2200    8.6520 hc        1 SUM      0.032033
     65 H282       -5.4310   -9.5860    7.9800 hc        1 SUM      0.032033
     66 H283       -6.9120  -10.0340    7.0420 hc        1 SUM      0.032033
     67 HO21       -3.1110   -2.2050    1.6690 ho        1 SUM      0.424000
     68 HCM1       -3.4620   -4.9540   -0.6430 hc        1 SUM      0.063700
     69 HCM2       -2.1220   -3.9050    0.0080 hc        1 SUM      0.063700
@<TRIPOS>BOND
     1    1    2 1   
     2    1    7 1   
     3    1   11 1   
     4    1   32 1   
     5    2    3 1   
     6    2    8 1   
     7    2   33 1   
     8    3    4 1   
     9    3    9 1   
    10    3   34 1   
    11    4    5 1   
    12    4   10 1   
    13    4   35 1   
    14    5    6 1   
    15    5   11 1   
    16    5   36 1   
    17    6   12 1   
    18    6   37 1   
    19    6   38 1   
    20    7   14 1   
    21    8   39 1   
    22    9   40 1   
    23   10   41 1   
    24   12   42 1   
    25   13   14 1   
    26   13   18 1   
    27   13   43 1   
    28   13   44 1   
    29   14   15 1   
    30   14   21 1   
    31   15   16 1   
    32   15   19 1   
    33   15   45 1   
    34   16   17 1   
    35   16   20 1   
    36   16   46 1   
    37   17   21 1   
    38   17   31 1   
    39   17   47 1   
    40   18   48 1   
    41   19   49 1   
    42   20   50 1   
    43   22   23 1   
    44   22   30 1   
    45   22   31 1   
    46   22   51 1   
    47   23   24 1   
    48   23   52 1   
    49   23   53 1   
    50   24   25 1   
    51   24   54 1   
    52   24   55 1   
    53   25   26 1   
    54   25   56 1   
    55   25   57 1   
    56   26   27 1   
    57   26   58 1   
    58   26   59 1   
    59   27   28 1   
    60   27   60 1   
    61   27   61 1   
    62   28   29 1   
    63   28   62 1   
    64   28   63 1   
    65   29   64 1   
    66   29   65 1   
    67   29   66 1   
    68   30   67 1   
    69   31   68 1   
    70   31   69 1   
@<TRIPOS>SUBSTRUCTURE
     1 SUM         1 TEMP              0 ****  ****    0 ROOT
