@<TRIPOS>MOLECULE
SUM
   69    70     1     0     0
SMALL
bcc


@<TRIPOS>ATOM
      1 C1         -0.2840   -0.6350    0.5540 c3        1 SUM      0.334900
      2 C2          0.6780   -1.6120    1.2700 c3        1 SUM      0.130100
      3 C3          0.0730   -2.0220    2.6200 c3        1 SUM      0.056100
      4 C4         -0.1660   -0.7450    3.4420 c3        1 SUM      0.095100
      5 C5         -1.1470    0.1460    2.6650 c3        1 SUM      0.102100
      6 C6         -1.3740    1.4820    3.3760 c3        1 SUM      0.130400
      7 O1         -1.4950   -1.3170    0.3160 os        1 SUM     -0.468600
      8 O2          0.8720   -2.7290    0.4250 oh        1 SUM     -0.605800
      9 O3          1.0180   -2.8600    3.2680 oh        1 SUM     -0.609800
     10 O4         -0.7640   -1.0500    4.6890 oh        1 SUM     -0.588800
     11 O5         -0.6050    0.4680    1.3770 os        1 SUM     -0.439600
     12 O6         -2.5190    2.1430    2.8830 oh        1 SUM     -0.591800
     13 C11        -2.5680    0.5750   -0.9310 c3        1 SUM      0.138400
     14 C12        -2.2890   -0.9300   -0.8050 c3        1 SUM      0.276600
     15 C13        -1.7530   -1.5400   -2.1330 c3        1 SUM      0.072100
     16 C14        -2.5780   -2.8370   -2.3280 c3        1 SUM      0.085100
     17 C15        -3.5330   -2.9000   -1.1180 c3        1 SUM      0.136100
     18 O11        -3.2370    1.1060    0.1820 oh        1 SUM     -0.583800
     19 O13        -0.3700   -1.7810   -2.1200 oh        1 SUM     -0.593800
     20 O14        -3.3740   -2.7770   -3.4950 oh        1 SUM     -0.585800
     21 O15        -3.4930   -1.6110   -0.4780 os        1 SUM     -0.386600
     22 C21        -3.8660   -3.9130    1.1740 c3        1 SUM      0.157100
     23 C22        -3.9180   -5.2770    1.8580 c3        1 SUM     -0.074400
     24 C23        -4.7950   -5.2410    3.0900 c3        1 SUM     -0.079400
     25 C24        -4.8060   -6.5810    3.7940 c3        1 SUM     -0.078400
     26 C25        -5.6910   -6.5470    5.0220 c3        1 SUM     -0.079400
     27 C26        -5.7010   -7.8850    5.7300 c3        1 SUM     -0.079400
     28 C27        -6.5860   -7.8520    6.9570 c3        1 SUM     -0.080400
     29 C28        -6.5980   -9.1820    7.6660 c3        1 SUM     -0.092100
     30 O21        -3.2060   -3.0250    2.0680 oh        1 SUM     -0.622800
     31 CM         -3.1080   -3.9940   -0.1500 c3        1 SUM     -0.139400
     32 H1          0.1750   -0.2000   -0.3760 h2        1 SUM      0.110700
     33 H2          1.6620   -1.0880    1.4310 h1        1 SUM      0.066700
     34 H3         -0.9030   -2.5650    2.4530 h1        1 SUM      0.105700
     35 H4          0.8080   -0.2060    3.6050 h1        1 SUM      0.057700
     36 H5         -2.1220   -0.4040    2.5250 h1        1 SUM      0.079700
     37 H61        -0.5270    2.1890    3.1690 h1        1 SUM      0.069700
     38 H62        -1.4640    1.2870    4.4780 h1        1 SUM      0.069700
     39 HO2         1.3330   -3.3950    0.9540 ho        1 SUM      0.430000
     40 HO3         0.5160   -3.4460    3.8470 ho        1 SUM      0.415000
     41 HO4        -0.1170   -1.5770    5.1760 ho        1 SUM      0.410000
     42 HO6        -3.2880    1.5950    3.0920 ho        1 SUM      0.408000
     43 H111       -3.2710    0.7310   -1.7940 h1        1 SUM      0.061700
     44 H112       -1.5920    1.0970   -1.1140 h1        1 SUM      0.061700
     45 H13        -1.9190   -0.8270   -2.9860 h1        1 SUM      0.098700
     46 H14        -1.8990   -3.7320   -2.3690 h1        1 SUM      0.061700
     47 H15        -4.6030   -3.0240   -1.4420 h1        1 SUM      0.100700
     48 HO11       -2.5830    1.2330    0.8860 ho        1 SUM      0.425000
     49 HO13       -0.1800   -2.3860   -1.3860 ho        1 SUM      0.434000
     50 HO14       -2.7680   -2.7640   -4.2460 ho        1 SUM      0.410000
     51 H21        -4.9130   -3.5360    0.9900 h1        1 SUM      0.041700
     52 H221       -4.3150   -6.0300    1.1290 hc        1 SUM      0.043700
     53 H222       -2.8780   -5.5840    2.1410 hc        1 SUM      0.043700
     54 H231       -5.8410   -4.9590    2.8000 hc        1 SUM      0.049700
     55 H232       -4.4170   -4.4450    3.7850 hc        1 SUM      0.049700
     56 H241       -3.7610   -6.8580    4.0920 hc        1 SUM      0.036200
     57 H242       -5.1700   -7.3740    3.0900 hc        1 SUM      0.036200
     58 H251       -5.3290   -5.7510    5.7240 hc        1 SUM      0.041200
     59 H252       -6.7370   -6.2720    4.7230 hc        1 SUM      0.041200
     60 H261       -6.0630   -8.6800    5.0270 hc        1 SUM      0.038200
     61 H262       -4.6550   -8.1600    6.0290 hc        1 SUM      0.038200
     62 H271       -7.6310   -7.5760    6.6570 hc        1 SUM      0.038700
     63 H272       -6.2230   -7.0540    7.6590 hc        1 SUM      0.038700
     64 H281       -6.9800   -9.9850    6.9910 hc        1 SUM      0.032367
     65 H282       -7.2560   -9.1360    8.5670 hc        1 SUM      0.032367
     66 H283       -5.5690   -9.4630    7.9960 hc        1 SUM      0.032367
     67 HO21       -3.1350   -2.1740    1.6090 ho        1 SUM      0.428000
     68 HCM1       -3.2860   -4.9850   -0.6370 hc        1 SUM      0.062700
     69 HCM2       -2.0100   -3.8910    0.0650 hc        1 SUM      0.062700
@<TRIPOS>BOND
     1    1    2 1   
     2    1    7 1   
     3    1   11 1   
     4    1   32 1   
     5    2    3 1   
     6    2    8 1   
     7    2   33 1   
     8    3    4 1   
     9    3    9 1   
    10    3   34 1   
    11    4    5 1   
    12    4   10 1   
    13    4   35 1   
    14    5    6 1   
    15    5   11 1   
    16    5   36 1   
    17    6   12 1   
    18    6   37 1   
    19    6   38 1   
    20    7   14 1   
    21    8   39 1   
    22    9   40 1   
    23   10   41 1   
    24   12   42 1   
    25   13   14 1   
    26   13   18 1   
    27   13   43 1   
    28   13   44 1   
    29   14   15 1   
    30   14   21 1   
    31   15   16 1   
    32   15   19 1   
    33   15   45 1   
    34   16   17 1   
    35   16   20 1   
    36   16   46 1   
    37   17   21 1   
    38   17   31 1   
    39   17   47 1   
    40   18   48 1   
    41   19   49 1   
    42   20   50 1   
    43   22   23 1   
    44   22   30 1   
    45   22   31 1   
    46   22   51 1   
    47   23   24 1   
    48   23   52 1   
    49   23   53 1   
    50   24   25 1   
    51   24   54 1   
    52   24   55 1   
    53   25   26 1   
    54   25   56 1   
    55   25   57 1   
    56   26   27 1   
    57   26   58 1   
    58   26   59 1   
    59   27   28 1   
    60   27   60 1   
    61   27   61 1   
    62   28   29 1   
    63   28   62 1   
    64   28   63 1   
    65   29   64 1   
    66   29   65 1   
    67   29   66 1   
    68   30   67 1   
    69   31   68 1   
    70   31   69 1   
@<TRIPOS>SUBSTRUCTURE
     1 SUM         1 TEMP              0 ****  ****    0 ROOT
