@<TRIPOS>MOLECULE
SUN
   31    30     1     0     0
SMALL
bcc


@<TRIPOS>ATOM
      1 N           3.7130    3.7870    5.1030 n3        1 SUN     -0.884800
      2 CA          3.0940    2.6380    4.4550 c3        1 SUN     -0.002500
      3 CB          3.2430    2.6790    2.9230 c3        1 SUN      0.198400
      4 OG          1.9690    2.5000    2.3290 os        1 SUN     -0.601200
      5 C           3.5830    1.2600    5.0050 c         1 SUN      0.884600
      6 O           4.1320    1.2380    6.1410 o         1 SUN     -0.844800
      7 O1          2.8930    1.3220    0.2310 o         1 SUN     -0.832300
      8 P1          1.8080    1.3450    1.2160 p5        1 SUN      1.647400
      9 N1          1.3730   -0.0300    1.8570 n3        1 SUN     -0.872700
     10 C2          1.8350   -1.2500    1.2800 c3        1 SUN      0.202600
     11 C1          0.8120   -0.1120    3.1670 c3        1 SUN      0.202600
     12 O2          0.4950    1.9960    0.4960 os        1 SUN     -0.568200
     13 C3         -0.5770    2.4380    1.2840 c3        1 SUN      0.196400
     14 C4         -0.7100    3.9460    1.2120 c3        1 SUN     -0.116100
     15 OXT         3.3760    0.2360    4.2930 o         1 SUN     -0.844800
     16 HN1         3.6930    3.6110    6.0950 hn        1 SUN      0.334800
     17 HN2         4.6830    3.8190    4.8400 hn        1 SUN      0.334800
     18 HA          1.9900    2.6940    4.6930 h1        1 SUN      0.057700
     19 HBC1        3.9310    1.8610    2.5710 h1        1 SUN      0.045200
     20 HBC2        3.6280    3.6780    2.5710 h1        1 SUN      0.045200
     21 H2C1        2.4830   -1.8320    1.9960 h1        1 SUN      0.041867
     22 H2C2        2.4350   -1.0160    0.3580 h1        1 SUN      0.041867
     23 H2C3        0.9700   -1.9150    0.9990 h1        1 SUN      0.041867
     24 H1C1       -0.2640   -0.4450    3.1270 h1        1 SUN      0.041867
     25 H1C2        0.8820    0.8980    3.6580 h1        1 SUN      0.041867
     26 H1C3        1.3820   -0.8350    3.8190 h1        1 SUN      0.041867
     27 H3C1       -1.5110    1.9570    0.8730 h1        1 SUN      0.022200
     28 H3C2       -0.4360    2.1080    2.3500 h1        1 SUN      0.022200
     29 H4C1       -1.6440    4.2630    1.7320 hc        1 SUN      0.041367
     30 H4C2        0.1660    4.4350    1.7030 hc        1 SUN      0.041367
     31 H4C3       -0.7500    4.2770    0.1470 hc        1 SUN      0.041367
@<TRIPOS>BOND
     1    1    2 1   
     2    1   16 1   
     3    1   17 1   
     4    2    3 1   
     5    2    5 1   
     6    2   18 1   
     7    3    4 1   
     8    3   19 1   
     9    3   20 1   
    10    4    8 1   
    11    5    6 1   
    12    5   15 1   
    13    7    8 2   
    14    8    9 1   
    15    8   12 1   
    16    9   10 1   
    17    9   11 1   
    18   10   21 1   
    19   10   22 1   
    20   10   23 1   
    21   11   24 1   
    22   11   25 1   
    23   11   26 1   
    24   12   13 1   
    25   13   14 1   
    26   13   27 1   
    27   13   28 1   
    28   14   29 1   
    29   14   30 1   
    30   14   31 1   
@<TRIPOS>SUBSTRUCTURE
     1 SUN         1 TEMP              0 ****  ****    0 ROOT
