@<TRIPOS>MOLECULE
SUO
   30    29     1     0     0
SMALL
bcc


@<TRIPOS>ATOM
      1 N           0.1620   -0.4970   -0.3160 n         1 SUO     -0.547900
      2 CA          1.5730   -0.4400   -0.0150 c3        1 SUO     -0.024300
      3 CB          1.8790   -0.1400    1.4620 c3        1 SUO     -0.068400
      4 CG          1.4500    1.2520    1.8630 c3        1 SUO     -0.119400
      5 CD          1.9290    1.5910    3.2730 c3        1 SUO      0.139800
      6 NE          1.5430    2.8900    3.7800 n3        1 SUO     -0.910800
      7 C           2.3230   -1.7710   -0.3690 c         1 SUO      0.908600
      8 O           3.5850   -1.7080   -0.4120 o         1 SUO     -0.846800
      9 OXT        -0.1000    1.7500   -0.6770 o         1 SUO     -0.678100
     10 O2          1.6590   -2.8240   -0.5820 o         1 SUO     -0.846800
     11 CW         -2.0230    0.3280   -1.1220 c3        1 SUO     -0.132400
     12 CX         -2.6930    1.5380   -1.7250 c3        1 SUO     -0.179400
     13 CY         -4.2120    1.3540   -1.8490 c         1 SUO      0.903600
     14 OD1        -4.7900    1.8650   -2.8550 o         1 SUO     -0.865800
     15 OD2        -4.8390    0.7280   -0.9430 o         1 SUO     -0.865800
     16 CV         -0.5830    0.5920   -0.7120 c         1 SUO      0.642100
     17 HN         -0.1900   -1.4150   -0.4810 hn        1 SUO      0.322500
     18 HA          2.0370    0.3840   -0.6340 h1        1 SUO      0.052700
     19 HB1         1.3790   -0.8970    2.1190 hc        1 SUO      0.039200
     20 HB2         2.9880   -0.2540    1.5910 hc        1 SUO      0.039200
     21 HG1         0.3330    1.3350    1.8040 hc        1 SUO      0.053700
     22 HG2         1.8600    1.9940    1.1270 hc        1 SUO      0.053700
     23 HD1A        1.5360    0.8140    3.9870 h1        1 SUO      0.036200
     24 HD2         3.0540    1.5340    3.3000 h1        1 SUO      0.036200
     25 HNE1        1.8700    3.6060    3.1570 hn        1 SUO      0.332800
     26 HNE2        0.5420    2.9570    3.8110 hn        1 SUO      0.332800
     27 HW1        -2.0560   -0.5220   -1.8530 hc        1 SUO      0.062200
     28 HW2        -2.6040    0.0120   -0.2130 hc        1 SUO      0.062200
     29 HX1        -2.5060    2.4330   -1.0790 hc        1 SUO      0.034200
     30 HX2        -2.2620    1.7560   -2.7330 hc        1 SUO      0.034200
@<TRIPOS>BOND
     1    1    2 1   
     2    1   16 1   
     3    1   17 1   
     4    2    3 1   
     5    2    7 1   
     6    2   18 1   
     7    3    4 1   
     8    3   19 1   
     9    3   20 1   
    10    4    5 1   
    11    4   21 1   
    12    4   22 1   
    13    5    6 1   
    14    5   23 1   
    15    5   24 1   
    16    6   25 1   
    17    6   26 1   
    18    7    8 1   
    19    7   10 1   
    20    9   16 2   
    21   11   12 1   
    22   11   16 1   
    23   11   27 1   
    24   11   28 1   
    25   12   13 1   
    26   12   29 1   
    27   12   30 1   
    28   13   14 1   
    29   13   15 1   
@<TRIPOS>SUBSTRUCTURE
     1 SUO         1 TEMP              0 ****  ****    0 ROOT
