@<TRIPOS>MOLECULE
SUO
   30    29     1     0     0
SMALL
bcc


@<TRIPOS>ATOM
      1 N           0.4230   -0.7630    0.5160 n         1 SUO     -0.547900
      2 CA          1.7630   -1.0940    0.0930 c3        1 SUO     -0.024300
      3 CB          2.8120   -0.0390    0.4790 c3        1 SUO     -0.068400
      4 CG          2.6030    1.2680   -0.2480 c3        1 SUO     -0.119400
      5 CD          3.7580    2.2330    0.0110 c3        1 SUO      0.139800
      6 NE          3.6480    3.5370   -0.6070 n3        1 SUO     -0.910800
      7 C           2.2630   -2.4620    0.6750 c         1 SUO      0.908600
      8 O           3.2900   -2.9600    0.1310 o         1 SUO     -0.846800
      9 OXT        -0.1080    0.4960   -1.3220 o         1 SUO     -0.678100
     10 O2          1.6460   -2.9920    1.6410 o         1 SUO     -0.846800
     11 CW         -1.8850    0.0880    0.2890 c3        1 SUO     -0.132400
     12 CX         -2.8370    0.7050   -0.7060 c3        1 SUO     -0.179400
     13 CY         -4.1640    1.1190   -0.0540 c         1 SUO      0.903600
     14 OD1        -5.2240    0.9940   -0.7390 o         1 SUO     -0.865800
     15 OD2        -4.1590    1.5910    1.1210 o         1 SUO     -0.865800
     16 CV         -0.4710   -0.0530   -0.2530 c         1 SUO      0.642100
     17 HN          0.0860   -1.3030    1.2830 hn        1 SUO      0.322500
     18 HA          1.7690   -1.1850   -1.0340 h1        1 SUO      0.052700
     19 HB1         3.8150   -0.4700    0.2170 hc        1 SUO      0.039200
     20 HB2         2.7940    0.1330    1.5860 hc        1 SUO      0.039200
     21 HG1         1.6340    1.7300    0.0770 hc        1 SUO      0.053700
     22 HG2         2.5040    1.0700   -1.3490 hc        1 SUO      0.053700
     23 HD1A        4.7150    1.7630   -0.3530 h1        1 SUO      0.036200
     24 HD2         3.8610    2.3890    1.1220 h1        1 SUO      0.036200
     25 HNE1        3.5430    3.4320   -1.6000 hn        1 SUO      0.332800
     26 HNE2        2.8250    4.0020   -0.2690 hn        1 SUO      0.332800
     27 HW1        -2.2700   -0.9180    0.6010 hc        1 SUO      0.062200
     28 HW2        -1.8560    0.7370    1.2070 hc        1 SUO      0.062200
     29 HX1        -2.3720    1.6210   -1.1540 hc        1 SUO      0.034200
     30 HX2        -3.0410   -0.0110   -1.5410 hc        1 SUO      0.034200
@<TRIPOS>BOND
     1    1    2 1   
     2    1   16 1   
     3    1   17 1   
     4    2    3 1   
     5    2    7 1   
     6    2   18 1   
     7    3    4 1   
     8    3   19 1   
     9    3   20 1   
    10    4    5 1   
    11    4   21 1   
    12    4   22 1   
    13    5    6 1   
    14    5   23 1   
    15    5   24 1   
    16    6   25 1   
    17    6   26 1   
    18    7    8 1   
    19    7   10 1   
    20    9   16 2   
    21   11   12 1   
    22   11   16 1   
    23   11   27 1   
    24   11   28 1   
    25   12   13 1   
    26   12   29 1   
    27   12   30 1   
    28   13   14 1   
    29   13   15 1   
@<TRIPOS>SUBSTRUCTURE
     1 SUO         1 TEMP              0 ****  ****    0 ROOT
