@<TRIPOS>MOLECULE
SUP
   48    49     1     0     0
SMALL
bcc


@<TRIPOS>ATOM
      1 C1         -2.0690    0.9150   -0.4150 c3        1 SUP      0.296900
      2 C2         -1.9610    1.0750    1.1240 c3        1 SUP      0.145100
      3 C3         -1.8220   -0.3170    1.7550 c3        1 SUP      0.096100
      4 C4         -3.0560   -1.1450    1.3590 c3        1 SUP      0.120100
      5 C5         -3.1120   -1.2410   -0.1740 c3        1 SUP      0.095100
      6 C6         -4.3890   -1.9370   -0.6420 c3        1 SUP      0.139400
      7 O1         -0.9380    0.2430   -0.9210 os        1 SUP     -0.449600
      8 O2         -0.9320    1.9560    1.4570 oh        1 SUP     -0.672800
      9 O3         -1.7880   -0.2440    3.1640 oh        1 SUP     -0.658800
     10 O4         -3.0120   -2.4620    1.8880 oh        1 SUP     -0.628800
     11 O5         -3.1500    0.0600   -0.7740 os        1 SUP     -0.474600
     12 O6         -4.4100   -2.1320   -2.0430 oh        1 SUP     -0.626800
     13 C1'        -1.0480    0.8150   -3.3030 c3        1 SUP      0.130400
     14 C2'        -0.2220    0.8150   -2.0160 c3        1 SUP      0.281600
     15 C3'         0.4580    2.1820   -1.7090 c3        1 SUP      0.108100
     16 C4'         1.6320    1.7490   -0.8080 c3        1 SUP      0.084100
     17 C5'         1.9070    0.2810   -1.2010 c3        1 SUP      0.079100
     18 C6'         1.8770   -0.6700    0.0160 c3        1 SUP      0.205400
     19 O1'        -1.8720   -0.3220   -3.4600 oh        1 SUP     -0.628800
     20 O2'         0.8430   -0.1200   -2.1130 os        1 SUP     -0.423600
     21 O3'        -0.4130    3.1280   -1.1470 oh        1 SUP     -0.632800
     22 O4'         2.7560    2.5680   -1.0180 oh        1 SUP     -0.640800
     23 O6'         2.8440   -0.3820    0.9440 os        1 SUP     -0.571200
     24 P           2.3740    0.4880    2.3480 p5        1 SUP      1.358900
     25 O10         0.8830    0.1880    2.4610 o         1 SUP     -0.922167
     26 O11         3.2380   -0.0610    3.4300 o         1 SUP     -0.922167
     27 O12         2.5930    1.8920    1.8420 o         1 SUP     -0.922167
     28 H1         -2.2850    1.8890   -0.9320 h2        1 SUP      0.088700
     29 H4         -2.9190    1.5630    1.4680 h1        1 SUP      0.034700
     30 H6         -0.8720   -0.7990    1.3760 h1        1 SUP      0.124700
     31 H7         -3.9940   -0.6620    1.7510 h1        1 SUP      0.039700
     32 H5         -2.2040   -1.7900   -0.5500 h1        1 SUP      0.080700
     33 H61        -5.2880   -1.3350   -0.3400 h1        1 SUP      0.043200
     34 H62        -4.4410   -2.9610   -0.1890 h1        1 SUP      0.043200
     35 HO2        -0.1240    1.4420    1.7630 ho        1 SUP      0.515000
     36 HO3        -0.8600   -0.0210    3.3920 ho        1 SUP      0.492000
     37 HO4        -2.3070   -2.4730    2.5500 ho        1 SUP      0.429000
     38 HO6        -4.0730   -1.3220   -2.4510 ho        1 SUP      0.420000
     39 H1'1       -1.7040    1.7280   -3.3000 h1        1 SUP      0.040200
     40 H1'2       -0.3650    0.8330   -4.1910 h1        1 SUP      0.040200
     41 H3'         0.8180    2.6350   -2.6720 h1        1 SUP      0.061700
     42 H4'         1.3330    1.7850    0.2920 h1        1 SUP      0.150700
     43 H5'         2.8540    0.1780   -1.7850 h1        1 SUP      0.055700
     44 H6'1        0.8450   -0.6230    0.4660 h1        1 SUP      0.011200
     45 H6'2        2.0530   -1.7120   -0.3840 h1        1 SUP      0.011200
     46 H1'        -1.9790   -0.7320   -2.5870 ho        1 SUP      0.430000
     47 H3         -0.3640    3.0410   -0.1790 ho        1 SUP      0.452000
     48 H2          3.1730    2.6360   -0.1350 ho        1 SUP      0.470000
@<TRIPOS>BOND
     1    1    2 1   
     2    1    7 1   
     3    1   11 1   
     4    1   28 1   
     5    2    3 1   
     6    2    8 1   
     7    2   29 1   
     8    3    4 1   
     9    3    9 1   
    10    3   30 1   
    11    4    5 1   
    12    4   10 1   
    13    4   31 1   
    14    5    6 1   
    15    5   11 1   
    16    5   32 1   
    17    6   12 1   
    18    6   33 1   
    19    6   34 1   
    20    7   14 1   
    21    8   35 1   
    22    9   36 1   
    23   10   37 1   
    24   12   38 1   
    25   13   14 1   
    26   13   19 1   
    27   13   39 1   
    28   13   40 1   
    29   14   15 1   
    30   14   20 1   
    31   15   16 1   
    32   15   21 1   
    33   15   41 1   
    34   16   17 1   
    35   16   22 1   
    36   16   42 1   
    37   17   18 1   
    38   17   20 1   
    39   17   43 1   
    40   18   23 1   
    41   18   44 1   
    42   18   45 1   
    43   19   46 1   
    44   21   47 1   
    45   22   48 1   
    46   23   24 1   
    47   24   25 1   
    48   24   26 1   
    49   24   27 1   
@<TRIPOS>SUBSTRUCTURE
     1 SUP         1 TEMP              0 ****  ****    0 ROOT
