@<TRIPOS>MOLECULE
SUP
   48    49     1     0     0
SMALL
bcc


@<TRIPOS>ATOM
      1 C1          1.0660   -0.1670    0.4020 c3        1 SUP      0.282900
      2 C2          2.4300   -0.8060    0.2800 c3        1 SUP      0.080100
      3 C3          3.1780   -0.7720    1.5520 c3        1 SUP      0.142100
      4 C4          2.3830   -1.3180    2.6940 c3        1 SUP      0.084100
      5 C5          1.0170   -0.6810    2.8000 c3        1 SUP      0.102100
      6 C6          1.1840    0.7700    3.2320 c3        1 SUP      0.120400
      7 O1          0.3620   -0.3710   -0.7790 os        1 SUP     -0.449600
      8 O2          2.2680   -2.1940   -0.1440 oh        1 SUP     -0.632800
      9 O3          3.5400    0.6120    1.8460 oh        1 SUP     -0.637800
     10 O4          2.2260   -2.7410    2.5270 oh        1 SUP     -0.628800
     11 O5          0.2820   -0.7140    1.5410 os        1 SUP     -0.429600
     12 O6          0.3000    1.0510    4.2440 oh        1 SUP     -0.653800
     13 C1'         0.8560    2.0140   -1.0040 c3        1 SUP      0.147400
     14 C2'        -0.1690    0.8950   -1.2440 c3        1 SUP      0.281600
     15 C3'        -0.5360    0.8100   -2.8310 c3        1 SUP      0.110100
     16 C4'        -1.7040    0.2400   -2.9020 c3        1 SUP      0.085100
     17 C5'        -2.3830    0.5730   -1.5670 c3        1 SUP      0.069100
     18 C6'        -2.9100   -0.5580   -1.0100 c3        1 SUP      0.221400
     19 O1'         0.5140    3.1560   -1.8180 oh        1 SUP     -0.627800
     20 O2'        -1.2500    1.1570   -0.6410 os        1 SUP     -0.470600
     21 O3'         0.4600    0.0100   -3.5360 oh        1 SUP     -0.603800
     22 O4'        -2.5050    0.8180   -4.0560 oh        1 SUP     -0.636800
     23 O6'        -4.0910   -0.2210   -0.2820 os        1 SUP     -0.567200
     24 P          -5.3570   -1.2290   -0.3490 p5        1 SUP      1.348900
     25 O10        -6.4300   -0.7390    0.5630 o         1 SUP     -0.924500
     26 O11        -5.8980   -1.2860   -1.7980 o         1 SUP     -0.924500
     27 O12        -4.9370   -2.5710    0.0720 o         1 SUP     -0.924500
     28 H1          1.1790    0.7730    0.5320 h2        1 SUP      0.160700
     29 H4          2.9470   -0.3230   -0.4030 h1        1 SUP      0.070700
     30 H6          4.0090   -1.3070    1.4540 h1        1 SUP      0.057700
     31 H7          2.8830   -1.1470    3.5400 h1        1 SUP      0.074700
     32 H5          0.4820   -1.1730    3.5010 h1        1 SUP      0.055700
     33 H61         2.1070    0.9150    3.5510 h1        1 SUP      0.046700
     34 H62         1.0070    1.3580    2.4720 h1        1 SUP      0.046700
     35 HO2         2.9690   -2.4330   -0.6640 ho        1 SUP      0.418000
     36 HO3         4.3850    0.6550    2.0520 ho        1 SUP      0.497000
     37 HO4         2.5060   -3.1550    3.2600 ho        1 SUP      0.416000
     38 HO6         0.6780    1.5700    4.8160 ho        1 SUP      0.488000
     39 H1'1        0.8470    2.2810   -0.0130 h1        1 SUP      0.043700
     40 H1'2        1.7580    1.6930   -1.2510 h1        1 SUP      0.043700
     41 H3'        -0.5790    1.7530   -3.2310 h1        1 SUP      0.077700
     42 H4'        -1.6080   -0.7360   -3.0050 h1        1 SUP      0.141700
     43 H5'        -3.1140    1.2690   -1.7090 h1        1 SUP      0.039700
     44 H6'1       -2.2390   -0.9660   -0.3920 h1        1 SUP      0.003700
     45 H6'2       -3.1400   -1.2150   -1.7370 h1        1 SUP      0.003700
     46 H1'         0.9430    3.8670   -1.5240 ho        1 SUP      0.424000
     47 H3          0.6450    0.3850   -4.3090 ho        1 SUP      0.451000
     48 H2         -2.5610    0.1970   -4.7330 ho        1 SUP      0.473000
@<TRIPOS>BOND
     1    1    2 1   
     2    1    7 1   
     3    1   11 1   
     4    1   28 1   
     5    2    3 1   
     6    2    8 1   
     7    2   29 1   
     8    3    4 1   
     9    3    9 1   
    10    3   30 1   
    11    4    5 1   
    12    4   10 1   
    13    4   31 1   
    14    5    6 1   
    15    5   11 1   
    16    5   32 1   
    17    6   12 1   
    18    6   33 1   
    19    6   34 1   
    20    7   14 1   
    21    8   35 1   
    22    9   36 1   
    23   10   37 1   
    24   12   38 1   
    25   13   14 1   
    26   13   19 1   
    27   13   39 1   
    28   13   40 1   
    29   14   15 1   
    30   14   20 1   
    31   15   16 1   
    32   15   21 1   
    33   15   41 1   
    34   16   17 1   
    35   16   22 1   
    36   16   42 1   
    37   17   18 1   
    38   17   20 1   
    39   17   43 1   
    40   18   23 1   
    41   18   44 1   
    42   18   45 1   
    43   19   46 1   
    44   21   47 1   
    45   22   48 1   
    46   23   24 1   
    47   24   25 1   
    48   24   26 1   
    49   24   27 1   
@<TRIPOS>SUBSTRUCTURE
     1 SUP         1 TEMP              0 ****  ****    0 ROOT
