@<TRIPOS>MOLECULE
SUR
   32    33     1     0     0
SMALL
bcc


@<TRIPOS>ATOM
      1 P           3.2750   -0.9360   -3.9240 p5        1 SUR      1.426800
      2 OP1         2.5300   -0.3010   -5.2360 oh        1 SUR     -0.779400
      3 OP2         4.6070   -1.3020   -4.4520 o         1 SUR     -0.844000
      4 OP3         2.3370   -1.8130   -3.1930 o         1 SUR     -0.844000
      5 O5'         3.4570    0.4570   -3.0630 os        1 SUR     -0.587200
      6 C5'         2.3740    0.8830   -2.2890 c3        1 SUR      0.177400
      7 C4'         2.7460    0.8250   -0.7990 c3        1 SUR      0.086100
      8 O4'         2.3330    2.0330   -0.1330 os        1 SUR     -0.401600
      9 C3'         2.1020   -0.3630   -0.0570 c3        1 SUR      0.112100
     10 C1'         1.1950    1.7980    0.6990 c3        1 SUR      0.276500
     11 N1          0.0430    2.6270    0.3340 n         1 SUR     -0.262400
     12 C2'         0.8990    0.2630    0.6820 c3        1 SUR      0.082100
     13 C6         -0.2030    2.9550   -0.9860 c1        1 SUR     -0.053900
     14 C2         -0.7530    3.0930    1.3790 c         1 SUR      0.551400
     15 C5         -1.2380    3.8250   -1.2760 ce        1 SUR     -0.519300
     16 S2         -0.5780    2.6160    2.9690 s         1 SUR     -0.833400
     17 N3         -1.7700    3.9750    1.0770 n         1 SUR     -0.523500
     18 C4         -2.0640    4.4010   -0.2540 c         1 SUR      0.649300
     19 O4         -3.0100    5.2200   -0.3700 o         1 SUR     -0.707100
     20 O2'         0.8540   -0.2450    2.0010 oh        1 SUR     -0.625800
     21 O3'         3.0170   -0.9740    0.8310 oh        1 SUR     -0.590800
     22 H5'1        2.1470    1.9560   -2.5490 h1        1 SUR      0.057200
     23 H5'2        1.4710    0.2480   -2.4980 h1        1 SUR      0.057200
     24 H4'         3.8650    0.8080   -0.6880 h1        1 SUR      0.078700
     25 H3'         1.8010   -1.1800   -0.7720 h1        1 SUR      0.142700
     26 H1'         1.5210    2.1160    1.7430 h2        1 SUR      0.089700
     27 H2'        -0.0570    0.0220    0.1480 h1        1 SUR      0.070700
     28 HC6         3.1590    0.0110   -5.8740 ho        1 SUR      0.417000
     29 HC5        -1.4540    4.0960   -2.3120 ha        1 SUR      0.143000
     30 HN3        -2.3330    4.2950    1.8360 hn        1 SUR      0.322500
     31 HO2         0.3040    0.3750    2.5160 ho        1 SUR      0.438000
     32 HO3         3.0910   -0.4000    1.6030 ho        1 SUR      0.393000
@<TRIPOS>BOND
     1    1    2 1   
     2    1    3 1   
     3    1    4 1   
     4    1    5 1   
     5    2   28 1   
     6    5    6 1   
     7    6    7 1   
     8    6   22 1   
     9    6   23 1   
    10    7    8 1   
    11    7    9 1   
    12    7   24 1   
    13    8   10 1   
    14    9   12 1   
    15    9   21 1   
    16    9   25 1   
    17   10   11 1   
    18   10   12 1   
    19   10   26 1   
    20   11   13 2   
    21   11   14 1   
    22   12   20 1   
    23   12   27 1   
    24   13   15 2   
    25   14   16 2   
    26   14   17 1   
    27   15   18 1   
    28   15   29 1   
    29   17   18 1   
    30   17   30 1   
    31   18   19 2   
    32   20   31 1   
    33   21   32 1   
@<TRIPOS>SUBSTRUCTURE
     1 SUR         1 TEMP              0 ****  ****    0 ROOT
