@<TRIPOS>MOLECULE
SUS
   34    34     1     0     0
SMALL
bcc


@<TRIPOS>ATOM
      1 N          32.2430    7.8960   11.4610 n3        1 SUS     -0.911100
      2 C1         30.1620    6.5840   11.8140 c3        1 SUS      0.281900
      3 O1         30.5480    5.9190   12.9950 oh        1 SUS     -0.609800
      4 S1         32.9400    7.2370   10.0980 s6        1 SUS      1.529700
      5 C2         30.8450    7.9810   11.7200 c3        1 SUS      0.248500
      6 S2         24.4020    7.2310   14.0730 s6        1 SUS      1.693300
      7 C3         30.4340    8.7850   12.9930 c3        1 SUS      0.226100
      8 O3         30.9400   10.0780   12.9330 os        1 SUS     -0.598500
      9 S3         32.1520   10.6940   13.9870 s6        1 SUS      1.696300
     10 C4         28.8840    8.8570   13.0150 c3        1 SUS      0.115100
     11 O4         28.5060    9.5120   14.2170 oh        1 SUS     -0.596800
     12 C5         28.2410    7.4610   12.9570 c3        1 SUS      0.099100
     13 O5         28.7480    6.6750   11.8780 os        1 SUS     -0.471600
     14 C6         26.7210    7.5310   12.7070 c3        1 SUS      0.194400
     15 O6         26.0520    7.6910   13.9220 os        1 SUS     -0.615500
     16 O1S        32.8300    8.1560    9.0070 o         1 SUS     -0.766867
     17 O2S        34.3140    6.9650   10.4090 o         1 SUS     -0.766867
     18 O3S        32.2340    6.0190    9.7820 o         1 SUS     -0.766867
     19 O4S        24.1670    7.4030   15.4400 o         1 SUS     -0.764867
     20 O5S        23.7310    8.1300   13.2380 o         1 SUS     -0.764867
     21 O6S        24.3780    5.9040   13.6280 o         1 SUS     -0.764867
     22 O7S        33.3210   10.1110   13.4890 o         1 SUS     -0.762200
     23 O8S        32.0410   12.0750   13.7800 o         1 SUS     -0.762200
     24 O9S        31.8100   10.2630   15.2720 o         1 SUS     -0.762200
     25 HN         32.8020    8.3620   12.1400 hn        1 SUS      0.453800
     26 H1         30.3630    5.9630   10.8910 h2        1 SUS      0.111700
     27 HO1        30.1680    5.0350   12.9450 ho        1 SUS      0.382000
     28 H2         30.3410    8.4850   10.8360 h1        1 SUS      0.039700
     29 H3         30.7970    8.2560   13.9190 h1        1 SUS      0.056700
     30 H4         28.5390    9.4780   12.1420 h1        1 SUS      0.034700
     31 HO4        27.5860    9.2640   14.3920 ho        1 SUS      0.411000
     32 H5         28.4450    6.9260   13.9260 h1        1 SUS      0.060700
     33 H6         26.4850    8.4060   12.0410 h1        1 SUS      0.024200
     34 H6A        26.3870    6.5820   12.2030 h1        1 SUS      0.024200
@<TRIPOS>BOND
     1    1    4 1   
     2    1    5 1   
     3    1   25 1   
     4    2    3 1   
     5    2    5 1   
     6    2   13 1   
     7    2   26 1   
     8    3   27 1   
     9    4   16 1   
    10    4   17 1   
    11    4   18 1   
    12    5    7 1   
    13    5   28 1   
    14    6   15 1   
    15    6   19 1   
    16    6   20 1   
    17    6   21 1   
    18    7    8 1   
    19    7   10 1   
    20    7   29 1   
    21    8    9 1   
    22    9   22 1   
    23    9   23 1   
    24    9   24 1   
    25   10   11 1   
    26   10   12 1   
    27   10   30 1   
    28   11   31 1   
    29   12   13 1   
    30   12   14 1   
    31   12   32 1   
    32   14   15 1   
    33   14   33 1   
    34   14   34 1   
@<TRIPOS>SUBSTRUCTURE
     1 SUS         1 TEMP              0 ****  ****    0 ROOT
