@<TRIPOS>MOLECULE
SUS
   34    30     1     0     0
SMALL
bcc


@<TRIPOS>ATOM
      1 N          -2.2940   -0.9760   -0.9140 n3        1 SUS     -0.890000
      2 C1         -0.2860    0.2590   -1.6040 c3        1 SUS      0.137000
      3 O1         -0.8990    0.2780   -2.8660 oh        1 SUS     -0.362000
      4 S1         -3.0890   -2.2940   -1.5870 s4        1 SUS      2.051800
      5 C2         -0.7240   -0.9340   -0.8900 c3        1 SUS      0.003000
      6 S2          2.9680    3.4550    0.8280 ss        1 SUS      2.873000
      7 C3         -0.3080   -0.9950    0.4300 c3        1 SUS      0.104000
      8 O3          1.1700   -1.2000    0.4510 os        1 SUS     -0.763000
      9 S3          1.6460   -2.5150    1.0110 s4        1 SUS      2.094800
     10 C4         -0.6270    0.2410    1.2170 c3        1 SUS     -0.011000
     11 O4         -2.0100    0.3430    1.3440 oh        1 SUS     -0.351000
     12 C5         -0.0710    1.6020    0.5600 c3        1 SUS      0.007000
     13 O5         -0.6000    1.5150   -0.9090 os        1 SUS     -0.321000
     14 C6          1.2610    1.6350    0.5880 c3        1 SUS      0.039000
     15 O6          1.7120    2.8940    0.1340 o         1 SUS     -0.756000
     16 O1S        -3.6660   -3.1850   -0.5230 o         1 SUS     -0.695900
     17 O2S        -2.1500   -3.0630   -2.5040 os        1 SUS     -1.084000
     18 O3S        -4.3530   -1.8630   -2.3270 o         1 SUS     -0.695900
     19 O4S         2.6820    3.7970    2.3110 o         1 SUS     -1.083500
     20 O5S         3.3310    4.7930    0.2860 o         1 SUS     -1.083500
     21 O6S         4.1290    2.4760    0.7000 os        1 SUS     -1.084000
     22 O7S         3.0830   -2.4390    1.4410 o         1 SUS     -0.694900
     23 O8S         0.9650   -2.8310    2.3220 o         1 SUS     -0.694900
     24 O9S         1.4320   -3.6260   -0.0030 os        1 SUS     -1.084000
     25 HN         -2.7850   -0.2390   -0.6140 hn        1 SUS      0.212000
     26 H1          0.6860    0.2090   -1.7290 h2        1 SUS      0.119000
     27 HO1        -0.3430    0.6140   -3.4540 ho        1 SUS      0.243000
     28 H2         -0.3800   -1.7290   -1.3650 h1        1 SUS      0.118000
     29 H3         -0.7520   -1.7860    0.8730 h1        1 SUS      0.114000
     30 H4         -0.2410    0.1490    2.1010 h1        1 SUS      0.095000
     31 HO4        -2.2180    0.6120    2.1890 ho        1 SUS      0.223000
     32 H5         -0.4390    2.3630    1.0040 h1        1 SUS      0.092000
     33 H6          1.6110    0.9470    0.0190 h1        1 SUS      0.064000
     34 H6A         1.5610    1.4930    1.4800 h1        1 SUS      0.064000
@<TRIPOS>BOND
     1    1    4 1   
     2    1    5 1   
     3    1   25 1   
     4    2    3 1   
     5    2    5 1   
     6    2   13 1   
     7    2   26 1   
     8    3   27 1   
     9    4   16 1   
    10    4   18 1   
    11    5    7 1   
    12    5   28 1   
    13    6   19 1   
    14    6   20 1   
    15    7    8 1   
    16    7   10 1   
    17    7   29 1   
    18    8    9 1   
    19    9   22 1   
    20    9   23 1   
    21   10   11 1   
    22   10   12 1   
    23   10   30 1   
    24   11   31 1   
    25   12   13 1   
    26   12   14 1   
    27   12   32 1   
    28   14   15 1   
    29   14   33 1   
    30   14   34 1   
@<TRIPOS>SUBSTRUCTURE
     1 SUS         1 TEMP              0 ****  ****    0 ROOT
