@<TRIPOS>MOLECULE
SUV
   55    68     1     0     0
SMALL
bcc


@<TRIPOS>ATOM
      1 C1          0.0000    0.0000    0.0000 c2        1 SUV     -0.064000
      2 N1         -0.7880    0.0040   -1.1290 nx        1 SUV      0.296000
      3 O1          1.3440    0.0000    0.0000 os        1 SUV      0.009000
      4 N2         -0.4500   -0.0000    1.2280 n2        1 SUV     -0.045000
      5 O2         -3.6500   -1.9760   -3.9460 o         1 SUV     -0.283000
      6 C3          0.6100   -0.0050    2.0820 c2        1 SUV     -0.130000
      7 N3         -2.8930   -0.1900   -2.8650 n         1 SUV      0.411000
      8 C4          0.7290   -0.0080    3.4710 c2        1 SUV     -0.150000
      9 N4         -3.7360   -3.7610   -1.6180 n3        1 SUV      0.112000
     10 C5          1.9800   -0.0140    4.0520 c3        1 SUV      0.023000
     11 N5         -2.7740   -3.5720   -2.4490 n2        1 SUV      0.287000
     12 C6          3.1190   -0.0170    3.2610 c3        1 SUV     -0.339000
     13 N6         -3.7180   -4.9650   -1.1650 n2        1 SUV     -0.097000
     14 C7          3.0150   -0.0130    1.8850 c2        1 SUV     -0.241000
     15 C8          1.7670    0.0000    1.2860 c2        1 SUV      0.037000
     16 C11        -1.6910    1.1360   -1.1260 DU        1 SUV     -0.317000
     17 C12        -3.0540    0.7130   -1.7060 c3        1 SUV     -0.546000
     18 C14        -1.8970    0.0190   -3.8920 DU        1 SUV     -0.463000
     19 C15        -0.5800   -0.6940   -3.4870 DU        1 SUV     -0.157000
     20 C16         0.0310    0.0040   -2.3400 c3        1 SUV     -0.794000
     21 C17        -3.7130   -1.2560   -2.9700 c2        1 SUV      0.257000
     22 C19        -4.6870   -1.5460   -1.8980 c2        1 SUV     -0.289000
     23 C20        -4.6730   -2.7900   -1.2510 c3        1 SUV      0.142000
     24 C21        -5.5920   -3.0520   -0.2460 c3        1 SUV     -0.089000
     25 C22        -6.5170   -2.0910    0.1140 c2        1 SUV     -0.570000
     26 C23        -6.5340   -0.8620   -0.5230 c2        1 SUV      0.409000
     27 C24        -5.6220   -0.5820   -1.5210 c2        1 SUV     -0.012000
     28 C27        -2.0850   -4.6850   -2.5590 c3        1 SUV     -0.358000
     29 C28        -2.7120   -5.6070   -1.7140 c2        1 SUV     -0.354000
     30 C29        -7.5480    0.1780   -0.1200 c3        1 SUV     -0.123000
     31 C30        -2.4020   -0.5560   -5.2170 c3        1 SUV     -0.430000
     32 H1          1.3180    0.7260    4.0080 DU        1 SUV      0.182000
     33 H2          2.0690    0.0150    3.5280 hc        1 SUV      0.155000
     34 H3          3.5650   -0.0190    2.8180 DU        1 SUV      0.244000
     35 H4         -0.7130    0.9350   -0.7070 DU        1 SUV      0.295000
     36 H5         -1.2740    1.9300   -1.7320 hx        1 SUV      0.130000
     37 H6         -2.4390    1.1000   -0.9030 DU        1 SUV      0.257000
     38 H7         -3.5920    1.5990   -2.0220 h1        1 SUV      0.107000
     39 H8         -2.4420    0.0760   -2.9580 ha        1 SUV      0.144000
     40 H9         -1.1440    0.1950   -3.7440 DU        1 SUV      0.252000
     41 H10        -0.7970   -1.7190   -3.2100 ha        1 SUV      0.088000
     42 H11         0.0730   -0.3480   -3.3640 DU        1 SUV      0.200000
     43 H12         0.9760   -0.4750   -2.1130 hx        1 SUV      0.129000
     44 H13        -4.7520   -2.4610   -0.5910 DU        1 SUV      0.114000
     45 H14        -6.0450   -3.0640    0.1870 DU        1 SUV      0.230000
     46 H15        -6.1400   -1.1340   -0.7450 ha        1 SUV      0.061000
     47 H16        -2.8040   -3.8800   -2.4580 h1        1 SUV      0.126000
     48 H17        -1.9820   -5.2420   -2.4280 DU        1 SUV      0.250000
     49 H18        -6.9120   -0.6830   -0.2910 hc        1 SUV      0.040667
     50 H19        -7.1570    0.7630    0.7030 hc        1 SUV      0.040667
     51 H20        -8.4640   -0.3110    0.1860 hc        1 SUV      0.040667
     52 H21        -3.2330   -0.3400   -4.5570 hc        1 SUV      0.197667
     53 H22        -1.7850   -0.0980   -5.9820 hc        1 SUV      0.197667
     54 H23        -3.4310   -0.2290   -5.2970 hc        1 SUV      0.197667
     55 Cl1         2.1290   -0.0170    5.7810 cl        1 SUV      0.190000
@<TRIPOS>BOND
     1    1    2 1   
     2    1    3 1   
     3    1    4 1   
     4    2   16 1   
     5    2   20 1   
     6    2   35 1   
     7    3   15 1   
     8    4    6 1   
     9    5   21 1   
    10    6    8 1   
    11    6   15 1   
    12    7   17 1   
    13    7   18 1   
    14    7   21 1   
    15    8   10 1   
    16    8   32 1   
    17    9   11 1   
    18    9   13 1   
    19    9   23 1   
    20   10   12 1   
    21   10   32 1   
    22   10   55 1   
    23   11   28 1   
    24   12   14 1   
    25   12   33 1   
    26   12   34 1   
    27   13   29 1   
    28   14   15 1   
    29   14   34 1   
    30   16   17 1   
    31   16   35 1   
    32   16   36 1   
    33   16   37 1   
    34   17   37 1   
    35   17   38 1   
    36   18   19 1   
    37   18   31 1   
    38   18   39 1   
    39   18   40 1   
    40   19   20 1   
    41   19   40 1   
    42   19   41 1   
    43   19   42 1   
    44   20   42 1   
    45   20   43 1   
    46   21   22 1   
    47   22   23 1   
    48   22   27 1   
    49   23   24 1   
    50   23   44 1   
    51   24   25 1   
    52   24   44 1   
    53   24   45 1   
    54   25   26 1   
    55   25   45 1   
    56   26   27 1   
    57   26   30 1   
    58   27   46 1   
    59   28   29 1   
    60   28   47 1   
    61   28   48 1   
    62   29   48 1   
    63   30   49 1   
    64   30   50 1   
    65   30   51 1   
    66   31   52 1   
    67   31   53 1   
    68   31   54 1   
@<TRIPOS>SUBSTRUCTURE
     1 SUV         1 TEMP              0 ****  ****    0 ROOT
