@<TRIPOS>MOLECULE
SUW
   63    65     1     0     0
SMALL
bcc


@<TRIPOS>ATOM
      1 CX1         1.9190   -0.5870   -1.0730 c         1 SUW      0.895600
      2 O1A         2.1090   -1.7910   -1.4090 o         1 SUW     -0.787300
      3 O1B         2.6950    0.3750   -1.2540 o         1 SUW     -0.787300
      4 CX2         0.4950   -0.2660   -0.4880 c3        1 SUW      0.195600
      5 OX2         0.2610   -0.6060    0.8490 os        1 SUW     -0.393600
      6 CO2         1.0790   -1.6660    1.3440 c3        1 SUW      0.120700
      7 CX3         0.0690    1.1910   -0.6910 c3        1 SUW     -0.119400
      8 CX4        -0.0800    1.4780   -2.1780 c3        1 SUW      0.126100
      9 OX4        -0.6640    2.7490   -2.4390 oh        1 SUW     -0.654800
     10 CX5        -1.0400    0.4390   -2.8220 c3        1 SUW      0.094500
     11 NX5        -1.2360    0.7240   -4.2860 n4        1 SUW     -0.664800
     12 C10        -2.7010    0.7820   -4.6550 c         1 SUW      0.580100
     13 O10        -3.0720   -0.0710   -5.4490 o         1 SUW     -0.447100
     14 C11        -3.5010    1.8680   -4.0240 c3        1 SUW     -0.188100
     15 CX6        -0.4530   -0.9690   -2.5490 c3        1 SUW      0.135100
     16 OX6        -0.4810   -1.1310   -1.1450 os        1 SUW     -0.443600
     17 CX7        -1.2220   -2.1510   -3.1720 c3        1 SUW      0.101100
     18 OX7        -2.5340   -1.7180   -3.4880 oh        1 SUW     -0.620800
     19 CX8        -1.2440   -3.3320   -2.1770 c3        1 SUW      0.134100
     20 OX8         0.0650   -3.7520   -1.8590 oh        1 SUW     -0.664800
     21 CX9        -1.9610   -4.5770   -2.7420 c3        1 SUW      0.102800
     22 NX6        -1.1040   -5.3980   -3.6490 n4        1 SUW     -0.670800
     23 C12        -1.2770   -5.1200   -5.1230 c         1 SUW      0.583700
     24 O12        -1.9300   -4.1190   -5.4120 o         1 SUW     -0.489100
     25 C25        -1.1240   -6.0930   -7.3470 ca        1 SUW      0.015000
     26 C26        -0.6660   -6.0800   -6.0350 ca        1 SUW     -0.221600
     27 C27         0.3750   -6.9660   -5.6340 ca        1 SUW     -0.130000
     28 C28         0.9150   -7.8420   -6.5380 ca        1 SUW     -0.082000
     29 C2B         0.4500   -7.8900   -7.8840 ca        1 SUW      0.007000
     30 C21        -1.0450   -7.0360   -9.6330 ca        1 SUW     -0.100000
     31 C22        -0.4990   -7.9240  -10.5290 ca        1 SUW     -0.109000
     32 C23         0.5270   -8.8110  -10.1240 ca        1 SUW     -0.074000
     33 C24         0.9950   -8.7960   -8.8290 ca        1 SUW     -0.127000
     34 C2A        -0.5810   -6.9990   -8.2890 ca        1 SUW     -0.069000
     35 HO21        0.9290   -2.5870    0.7300 h1        1 SUW      0.048700
     36 HO22        2.1550   -1.3660    1.3230 h1        1 SUW      0.048700
     37 HO23        0.7170   -1.8100    2.3920 h1        1 SUW      0.048700
     38 HX31        0.8820    1.8410   -0.2680 hc        1 SUW      0.092700
     39 HX32       -0.8880    1.3960   -0.1480 hc        1 SUW      0.092700
     40 HX4         0.9410    1.4300   -2.6630 h1        1 SUW      0.101700
     41 HA         -0.2850    3.3780   -1.8090 ho        1 SUW      0.452000
     42 HX5        -2.0470    0.5110   -2.3140 hx        1 SUW      0.126700
     43 HB         -0.7720   -0.0050   -4.8380 hn        1 SUW      0.459800
     44 H111       -2.8800    2.5870   -3.4290 hc        1 SUW      0.116700
     45 H112       -4.2590    1.3960   -3.3440 hc        1 SUW      0.116700
     46 H113       -4.0460    2.4250   -4.8300 hc        1 SUW      0.116700
     47 HX6         0.6110   -1.0210   -2.9360 h1        1 SUW      0.110700
     48 HX7        -0.6860   -2.4670   -4.1130 h1        1 SUW      0.038700
     49 HC         -2.8700   -2.2910   -4.1910 ho        1 SUW      0.429000
     50 HX8        -1.8040   -3.0130   -1.2510 h1        1 SUW      0.115700
     51 HD          0.5600   -3.0130   -1.4310 ho        1 SUW      0.520000
     52 HX91       -2.8940   -4.2630   -3.2880 hx        1 SUW      0.109700
     53 HX92       -2.2420   -5.2370   -1.8710 hx        1 SUW      0.109700
     54 HE         -0.1120   -5.2130   -3.4000 hn        1 SUW      0.479300
     55 H27         0.7820   -6.9400   -4.6130 ha        1 SUW      0.132000
     56 H28         1.7280   -8.5240   -6.2380 ha        1 SUW      0.164000
     57 H21        -1.8440   -6.3430   -9.9410 ha        1 SUW      0.149000
     58 H22        -0.8540   -7.9570  -11.5720 ha        1 SUW      0.159000
     59 H23         0.9490   -9.5140  -10.8620 ha        1 SUW      0.159000
     60 H24         1.7940   -9.4830   -8.5100 ha        1 SUW      0.156000
     61 HX52       -0.8080    1.6360   -4.4980 hn        1 SUW      0.459800
     62 HX62       -1.2900   -6.3940   -3.4890 hn        1 SUW      0.479300
     63 H25        -1.9190   -5.3970   -7.6670 ha        1 SUW      0.162000
@<TRIPOS>BOND
     1    1    2 1   
     2    1    3 1   
     3    1    4 1   
     4    4    5 1   
     5    4    7 1   
     6    4   16 1   
     7    5    6 1   
     8    6   35 1   
     9    6   36 1   
    10    6   37 1   
    11    7    8 1   
    12    7   38 1   
    13    7   39 1   
    14    8    9 1   
    15    8   10 1   
    16    8   40 1   
    17    9   41 1   
    18   10   11 1   
    19   10   15 1   
    20   10   42 1   
    21   11   12 1   
    22   11   43 1   
    23   11   61 1   
    24   12   13 2   
    25   12   14 1   
    26   14   44 1   
    27   14   45 1   
    28   14   46 1   
    29   15   16 1   
    30   15   17 1   
    31   15   47 1   
    32   17   18 1   
    33   17   19 1   
    34   17   48 1   
    35   18   49 1   
    36   19   20 1   
    37   19   21 1   
    38   19   50 1   
    39   20   51 1   
    40   21   22 1   
    41   21   52 1   
    42   21   53 1   
    43   22   23 1   
    44   22   54 1   
    45   22   62 1   
    46   23   24 2   
    47   23   26 1   
    48   25   26 ar  
    49   25   34 ar  
    50   25   63 1   
    51   26   27 ar  
    52   27   28 ar  
    53   27   55 1   
    54   28   29 ar  
    55   28   56 1   
    56   29   33 ar  
    57   29   34 ar  
    58   30   31 ar  
    59   30   34 ar  
    60   30   57 1   
    61   31   32 ar  
    62   31   58 1   
    63   32   33 ar  
    64   32   59 1   
    65   33   60 1   
@<TRIPOS>SUBSTRUCTURE
     1 SUW         1 TEMP              0 ****  ****    0 ROOT
