@<TRIPOS>MOLECULE
SUW
   61    57     1     0     0
SMALL
bcc


@<TRIPOS>ATOM
      1 CX1         1.5580   -1.9800    2.1940 c1        1 SUW      0.341000
      2 O1A         2.6060   -2.5560    1.7270 o         1 SUW     -0.537000
      3 O1B         1.6680   -1.1220    3.1210 os        1 SUW     -0.552000
      4 CX2         0.1430   -2.3890    1.6670 c3        1 SUW      0.116000
      5 OX2        -0.5160   -2.6820    2.8500 os        1 SUW     -0.307000
      6 CO2         0.2180   -3.4870    3.7290 c3        1 SUW     -0.069000
      7 CX3         0.2230   -3.6150    0.7400 c3        1 SUW     -0.188000
      8 CX4        -1.0880   -3.9670    0.1260 c3        1 SUW      0.008000
      9 OX4        -0.8780   -5.0370   -0.8440 oh        1 SUW     -0.338000
     10 CX5        -1.7270   -2.8170   -0.5570 c3        1 SUW     -0.044000
     11 NX5        -3.1120   -3.2160   -0.9810 n         1 SUW     -0.356000
     12 C10        -3.3250   -3.8560   -2.2850 c2        1 SUW      0.308000
     13 O10        -2.3800   -4.0630   -3.0200 o         1 SUW     -0.384000
     14 C11        -4.6850   -4.3790   -2.6490 c3        1 SUW     -0.242000
     15 CX6        -1.8210   -1.6080    0.3050 c3        1 SUW      0.002000
     16 OX6        -0.5340   -1.2360    0.9170 os        1 SUW     -0.289000
     17 CX7        -2.3100   -0.4530   -0.5290 c3        1 SUW      0.048000
     18 OX7        -1.6400   -0.4530   -1.7740 oh        1 SUW     -0.330000
     19 CX8        -2.0270    0.8350    0.1950 c3        1 SUW     -0.016000
     20 OX8        -3.0730    1.1120    1.0720 oh        1 SUW     -0.344000
     21 CX9        -1.8910    1.9870   -0.8280 c3        1 SUW     -0.052000
     22 NX6        -1.0620    3.0330   -0.2710 n         1 SUW     -0.360000
     23 C12        -0.3590    3.9240   -1.1360 c2        1 SUW      0.341000
     24 O12        -0.8920    4.3230   -2.1600 o         1 SUW     -0.432000
     25 C25         1.9450    3.5500   -0.9170 c1        1 SUW     -0.107500
     26 C26         0.9760    4.5290   -0.6850 c1        1 SUW     -0.135000
     27 C27         1.3470    5.7690   -0.1390 c1        1 SUW     -0.082000
     28 C28         2.6920    6.0240    0.1740 c1        1 SUW     -0.107500
     29 C2B         3.6740    5.0320   -0.0620 c1        1 SUW     -0.040000
     30 C21         5.0060    5.2590    0.3210 c1        1 SUW     -0.128000
     31 C22         5.9530    4.2610    0.1610 c1        1 SUW     -0.128000
     32 C23         5.5850    3.0300   -0.3820 c1        1 SUW     -0.128000
     33 C24         4.2640    2.8030   -0.7620 c1        1 SUW     -0.128000
     34 C2A         3.3080    3.8080   -0.6010 c1        1 SUW     -0.040000
     35 HO21        0.2040   -3.0860    4.6310 h1        1 SUW      0.074333
     36 HO22        1.1330   -3.5530    3.4190 h1        1 SUW      0.074333
     37 HO23       -0.1820   -4.3830    3.7630 h1        1 SUW      0.074333
     38 HX31        0.5440   -4.3720    1.2490 hc        1 SUW      0.113000
     39 HX32        0.8520   -3.4260    0.0340 hc        1 SUW      0.113000
     40 HX4        -1.6830   -4.2880    0.8220 h1        1 SUW      0.119000
     41 HA         -0.6610   -5.7740   -0.4220 ho        1 SUW      0.214000
     42 HX5        -1.1960   -2.5920   -1.3680 h1        1 SUW      0.140000
     43 HB         -3.8460   -3.0890   -0.3900 hn        1 SUW      0.213000
     44 H111       -4.7640   -4.4410   -3.6510 hc        1 SUW      0.099000
     45 H112       -4.8090   -5.2700   -2.2560 hc        1 SUW      0.099000
     46 H113       -5.3670   -3.7740   -2.3050 hc        1 SUW      0.099000
     47 HX6        -2.4810   -1.7820    1.0290 h1        1 SUW      0.088000
     48 HX7        -3.3130   -0.5440   -0.6820 h1        1 SUW      0.126000
     49 HC         -0.7640   -0.3610   -1.6400 ho        1 SUW      0.230000
     50 HX8        -1.1770    0.7460    0.7110 h1        1 SUW      0.089000
     51 HD         -2.7820    1.6390    1.7210 ho        1 SUW      0.203000
     52 HX91       -1.4710    1.6410   -1.6670 h1        1 SUW      0.106500
     53 HX92       -2.7960    2.3550   -1.0360 h1        1 SUW      0.106500
     54 HE         -0.9990    3.1320    0.6370 hn        1 SUW      0.287000
     55 H25         1.6880    2.6880   -1.3250 ha        1 SUW      0.160000
     56 H27         0.6780    6.4610   -0.0060 ha        1 SUW      0.147000
     57 H28         2.9540    6.8960    0.5190 ha        1 SUW      0.160000
     58 H21         5.2660    6.1240    0.7030 ha        1 SUW      0.140500
     59 H22         6.8700    4.4170    0.4240 ha        1 SUW      0.140500
     60 H23         6.2500    2.3290   -0.4950 ha        1 SUW      0.140500
     61 H24         4.0080    1.9490   -1.1370 ha        1 SUW      0.140500
@<TRIPOS>BOND
     1    1    2 1   
     2    1    4 1   
     3    4    5 1   
     4    4    7 1   
     5    4   16 1   
     6    5    6 1   
     7    6   35 1   
     8    6   36 1   
     9    6   37 1   
    10    7    8 1   
    11    7   38 1   
    12    7   39 1   
    13    8    9 1   
    14    8   10 1   
    15    8   40 1   
    16    9   41 1   
    17   10   11 1   
    18   10   15 1   
    19   10   42 1   
    20   11   12 1   
    21   11   43 1   
    22   12   13 1   
    23   12   14 1   
    24   14   44 1   
    25   14   45 1   
    26   14   46 1   
    27   15   16 1   
    28   15   17 1   
    29   15   47 1   
    30   17   18 1   
    31   17   19 1   
    32   17   48 1   
    33   18   49 1   
    34   19   20 1   
    35   19   21 1   
    36   19   50 1   
    37   20   51 1   
    38   21   22 1   
    39   21   52 1   
    40   21   53 1   
    41   22   23 1   
    42   22   54 1   
    43   23   24 1   
    44   23   26 1   
    45   25   34 1   
    46   25   55 1   
    47   26   27 1   
    48   27   56 1   
    49   28   29 1   
    50   28   57 1   
    51   29   34 1   
    52   30   31 1   
    53   30   58 1   
    54   31   59 1   
    55   32   33 1   
    56   32   60 1   
    57   33   61 1   
@<TRIPOS>SUBSTRUCTURE
     1 SUW         1 TEMP              0 ****  ****    0 ROOT
