@<TRIPOS>MOLECULE
SUW
   61    63     1     0     0
SMALL
bcc


@<TRIPOS>ATOM
      1 CX1         1.5790    0.2300    0.1090 c         1 SUW      0.894600
      2 O1A         2.6400   -0.4470    0.2370 o         1 SUW     -0.817300
      3 O1B         0.5160   -0.1930   -0.4090 o         1 SUW     -0.817300
      4 CX2         1.5880    1.7010    0.6420 c3        1 SUW      0.212600
      5 OX2         1.6440    2.6750   -0.3890 os        1 SUW     -0.410600
      6 CO2         2.5000    2.3140   -1.4640 c3        1 SUW      0.124700
      7 CX3         0.3680    2.0370    1.5010 c3        1 SUW     -0.112400
      8 CX4         0.4720    1.3760    2.8690 c3        1 SUW      0.122100
      9 OX4        -0.6240    1.7390    3.6910 oh        1 SUW     -0.611800
     10 CX5         1.8270    1.7470    3.5350 c3        1 SUW      0.037700
     11 NX5         1.9890    1.1760    4.8510 n         1 SUW     -0.541900
     12 C10         1.4430    1.7620    5.9720 c         1 SUW      0.665100
     13 O10         0.8800    2.8780    5.9320 o         1 SUW     -0.631100
     14 C11         1.5920    1.0170    7.2800 c3        1 SUW     -0.175100
     15 CX6         2.9460    1.3020    2.5610 c3        1 SUW      0.144100
     16 OX6         2.8060    2.0180    1.3420 os        1 SUW     -0.439600
     17 CX7         4.3660    1.5740    3.0850 c3        1 SUW      0.126100
     18 OX7         4.3960    2.8330    3.7350 oh        1 SUW     -0.590800
     19 CX8         5.3730    1.5640    1.9170 c3        1 SUW      0.101100
     20 OX8         5.3370    0.3320    1.2240 oh        1 SUW     -0.649800
     21 CX9         6.8210    1.7630    2.4090 c3        1 SUW      0.065000
     22 NX6         7.3690    0.6680    3.1690 n         1 SUW     -0.518900
     23 C12         7.2190    0.6090    4.5430 c         1 SUW      0.651700
     24 O12         6.9140    1.6180    5.2180 o         1 SUW     -0.625100
     25 C25         8.3000   -0.6830    6.3590 ca        1 SUW     -0.066000
     26 C26         7.5390   -0.6890    5.2110 ca        1 SUW     -0.133600
     27 C27         7.0400   -1.9100    4.6870 ca        1 SUW     -0.104000
     28 C28         7.3260   -3.0970    5.3150 ca        1 SUW     -0.126000
     29 C2B         8.1230   -3.1220    6.4920 ca        1 SUW     -0.026000
     30 C21         8.4380   -4.3400    7.1570 ca        1 SUW     -0.120000
     31 C22         9.2050   -4.3330    8.2950 ca        1 SUW     -0.127000
     32 C23         9.6930   -3.1130    8.8240 ca        1 SUW     -0.137000
     33 C24         9.4040   -1.9240    8.2030 ca        1 SUW     -0.108000
     34 C2A         8.6130   -1.9010    7.0210 ca        1 SUW     -0.049000
     35 HO21        2.5120    3.2180   -2.1220 h1        1 SUW      0.031700
     36 HO22        2.0840    1.4290   -2.0070 h1        1 SUW      0.031700
     37 HO23        3.5260    2.0820   -1.0860 h1        1 SUW      0.031700
     38 HX31       -0.5430    1.6560    0.9710 hc        1 SUW      0.068200
     39 HX32        0.2800    3.1470    1.6160 hc        1 SUW      0.068200
     40 HX4         0.3790    0.2580    2.7560 h1        1 SUW      0.083700
     41 HA         -0.4690    2.6430    3.9970 ho        1 SUW      0.411000
     42 HX5         1.8790    2.8730    3.6420 h1        1 SUW      0.103700
     43 HB          2.2620    0.2240    4.8960 hn        1 SUW      0.300500
     44 H111        2.6700    0.8470    7.5120 hc        1 SUW      0.057700
     45 H112        1.1360    1.6280    8.0950 hc        1 SUW      0.057700
     46 H113        1.0680    0.0320    7.2270 hc        1 SUW      0.057700
     47 HX6         2.8590    0.1940    2.3550 h1        1 SUW      0.084700
     48 HX7         4.6250    0.7550    3.8150 h1        1 SUW      0.024700
     49 HC          5.1330    2.7980    4.3620 ho        1 SUW      0.410000
     50 HX8         5.1180    2.4140    1.2220 h1        1 SUW      0.076700
     51 HD          4.4580    0.2590    0.7980 ho        1 SUW      0.480000
     52 HX91        7.4800    1.8910    1.5040 h1        1 SUW      0.066700
     53 HX92        6.8580    2.7040    3.0270 h1        1 SUW      0.066700
     54 HE          7.3730   -0.2020    2.6790 hn        1 SUW      0.313500
     55 H27         6.4080   -1.8990    3.7840 ha        1 SUW      0.155000
     56 H28         6.9390   -4.0470    4.9180 ha        1 SUW      0.138000
     57 H21         8.0540   -5.2820    6.7390 ha        1 SUW      0.133000
     58 H22         9.4500   -5.2730    8.8110 ha        1 SUW      0.128000
     59 H23        10.3030   -3.1350    9.7390 ha        1 SUW      0.128000
     60 H24         9.7760   -0.9700    8.6060 ha        1 SUW      0.134000
     61 H25         8.6640    0.2690    6.7780 ha        1 SUW      0.152000
@<TRIPOS>BOND
     1    1    2 1   
     2    1    3 1   
     3    1    4 1   
     4    4    5 1   
     5    4    7 1   
     6    4   16 1   
     7    5    6 1   
     8    6   35 1   
     9    6   36 1   
    10    6   37 1   
    11    7    8 1   
    12    7   38 1   
    13    7   39 1   
    14    8    9 1   
    15    8   10 1   
    16    8   40 1   
    17    9   41 1   
    18   10   11 1   
    19   10   15 1   
    20   10   42 1   
    21   11   12 1   
    22   11   43 1   
    23   12   13 2   
    24   12   14 1   
    25   14   44 1   
    26   14   45 1   
    27   14   46 1   
    28   15   16 1   
    29   15   17 1   
    30   15   47 1   
    31   17   18 1   
    32   17   19 1   
    33   17   48 1   
    34   18   49 1   
    35   19   20 1   
    36   19   21 1   
    37   19   50 1   
    38   20   51 1   
    39   21   22 1   
    40   21   52 1   
    41   21   53 1   
    42   22   23 1   
    43   22   54 1   
    44   23   24 2   
    45   23   26 1   
    46   25   26 ar  
    47   25   34 ar  
    48   25   61 1   
    49   26   27 ar  
    50   27   28 ar  
    51   27   55 1   
    52   28   29 ar  
    53   28   56 1   
    54   29   30 ar  
    55   29   34 ar  
    56   30   31 ar  
    57   30   57 1   
    58   31   32 ar  
    59   31   58 1   
    60   32   33 ar  
    61   32   59 1   
    62   33   34 ar  
    63   33   60 1   
@<TRIPOS>SUBSTRUCTURE
     1 SUW         1 TEMP              0 ****  ****    0 ROOT
