@<TRIPOS>MOLECULE
SUW
   63    65     1     0     0
SMALL
bcc


@<TRIPOS>ATOM
      1 CX1         1.5860   -1.1190   -1.0440 c         1 SUW      0.901600
      2 O1A         1.5140   -2.2870   -1.5370 o         1 SUW     -0.802300
      3 O1B         2.5350   -0.3210   -1.1770 o         1 SUW     -0.802300
      4 CX2         0.2880   -0.6080   -0.3230 c3        1 SUW      0.211600
      5 OX2         0.0070   -1.1410    0.9420 os        1 SUW     -0.394600
      6 CO2         0.5760   -2.4250    1.1920 c3        1 SUW      0.125700
      7 CX3         0.1720    0.9180   -0.2130 c3        1 SUW     -0.122400
      8 CX4        -0.0960    1.5690   -1.5620 c3        1 SUW      0.137100
      9 OX4        -0.4080    2.9420   -1.4840 oh        1 SUW     -0.613800
     10 CX5        -1.2810    0.8390   -2.2930 c3        1 SUW      0.052500
     11 NX5        -1.5940    1.5150   -3.5950 n4        1 SUW     -0.671800
     12 C10        -3.0830    1.6250   -3.8450 c         1 SUW      0.554100
     13 O10        -3.6450    2.5510   -3.2820 o         1 SUW     -0.405100
     14 C11        -3.6890    0.5990   -4.7370 c3        1 SUW     -0.195100
     15 CX6        -0.8170   -0.6300   -2.4110 c3        1 SUW      0.094100
     16 OX6        -0.8540   -1.1110   -1.0780 os        1 SUW     -0.447600
     17 CX7        -1.6050   -1.6580   -3.2360 c3        1 SUW      0.131100
     18 OX7        -2.9150   -1.8540   -2.7550 oh        1 SUW     -0.616800
     19 CX8        -0.7640   -2.9580   -3.1620 c3        1 SUW      0.086100
     20 OX8         0.3630   -2.8390   -4.0100 oh        1 SUW     -0.655800
     21 CX9        -1.5610   -4.1640   -3.6830 c3        1 SUW      0.105800
     22 NX6        -0.7500   -5.4110   -3.5470 n4        1 SUW     -0.670800
     23 C12        -1.2100   -6.4850   -4.5110 c         1 SUW      0.575700
     24 O12        -2.0510   -7.2480   -4.0490 o         1 SUW     -0.451100
     25 C25        -0.8000   -7.6500   -6.5980 ca        1 SUW      0.013000
     26 C26        -0.5890   -6.5110   -5.8290 ca        1 SUW     -0.213600
     27 C27         0.2060   -5.4450   -6.3380 ca        1 SUW     -0.130000
     28 C28         0.7780   -5.5510   -7.5790 ca        1 SUW     -0.093000
     29 C2B         0.5910   -6.7130   -8.3810 ca        1 SUW      0.006000
     30 C21        -0.4120   -8.9340   -8.6780 ca        1 SUW     -0.097000
     31 C22         0.1740   -9.0300   -9.9170 ca        1 SUW     -0.112000
     32 C23         0.9790   -7.9760  -10.4120 ca        1 SUW     -0.076000
     33 C24         1.1840   -6.8400   -9.6630 ca        1 SUW     -0.131000
     34 C2A        -0.2150   -7.7720   -7.8810 ca        1 SUW     -0.070000
     35 HO21        1.6910   -2.3660    1.1650 h1        1 SUW      0.047033
     36 HO22        0.2050   -2.6800    2.2160 h1        1 SUW      0.047033
     37 HO23        0.2170   -3.1590    0.4310 h1        1 SUW      0.047033
     38 HX31       -0.6370    1.1790    0.5170 hc        1 SUW      0.097700
     39 HX32        1.1550    1.3000    0.1770 hc        1 SUW      0.097700
     40 HX4         0.8370    1.5040   -2.1980 h1        1 SUW      0.114700
     41 HA         -0.7520    3.1400   -0.6020 ho        1 SUW      0.438000
     42 HX5        -2.2030    0.8990   -1.6450 hx        1 SUW      0.123700
     43 HB         -1.2030    2.4730   -3.5360 hn        1 SUW      0.464300
     44 H111       -4.6840    0.9780   -5.0900 hc        1 SUW      0.114033
     45 H112       -3.0500    0.3760   -5.6260 hc        1 SUW      0.114033
     46 H113       -3.8540   -0.3470   -4.1500 hc        1 SUW      0.114033
     47 HX6         0.2360   -0.6260   -2.8320 h1        1 SUW      0.097700
     48 HX7        -1.7230   -1.3300   -4.3040 h1        1 SUW      0.063700
     49 HC         -2.8620   -1.9800   -1.7940 ho        1 SUW      0.447000
     50 HX8        -0.4390   -3.1110   -2.0840 h1        1 SUW      0.140700
     51 HD          1.1240   -2.5560   -3.4600 ho        1 SUW      0.491000
     52 HX91       -2.5190   -4.2760   -3.1030 hx        1 SUW      0.111700
     53 HX92       -1.7980   -4.0170   -4.7750 hx        1 SUW      0.111700
     54 HE         -0.8260   -5.7610   -2.5840 hn        1 SUW      0.469800
     55 H27         0.3630   -4.5190   -5.7580 ha        1 SUW      0.151000
     56 H28         1.3990   -4.7320   -7.9790 ha        1 SUW      0.158000
     57 H21        -1.0390   -9.7490   -8.2840 ha        1 SUW      0.150000
     58 H22         0.0270   -9.9280  -10.5380 ha        1 SUW      0.157000
     59 H23         1.4410   -8.0790  -11.4080 ha        1 SUW      0.156000
     60 H24         1.8110   -6.0190  -10.0430 ha        1 SUW      0.152000
     61 HX52       -1.1390    1.0140   -4.3610 hn        1 SUW      0.464300
     62 HX62        0.2380   -5.1760   -3.7340 hn        1 SUW      0.469800
     63 H25        -1.4250   -8.4760   -6.2120 ha        1 SUW      0.166000
@<TRIPOS>BOND
     1    1    2 1   
     2    1    3 1   
     3    1    4 1   
     4    4    5 1   
     5    4    7 1   
     6    4   16 1   
     7    5    6 1   
     8    6   35 1   
     9    6   36 1   
    10    6   37 1   
    11    7    8 1   
    12    7   38 1   
    13    7   39 1   
    14    8    9 1   
    15    8   10 1   
    16    8   40 1   
    17    9   41 1   
    18   10   11 1   
    19   10   15 1   
    20   10   42 1   
    21   11   12 1   
    22   11   43 1   
    23   11   61 1   
    24   12   13 2   
    25   12   14 1   
    26   14   44 1   
    27   14   45 1   
    28   14   46 1   
    29   15   16 1   
    30   15   17 1   
    31   15   47 1   
    32   17   18 1   
    33   17   19 1   
    34   17   48 1   
    35   18   49 1   
    36   19   20 1   
    37   19   21 1   
    38   19   50 1   
    39   20   51 1   
    40   21   22 1   
    41   21   52 1   
    42   21   53 1   
    43   22   23 1   
    44   22   54 1   
    45   22   62 1   
    46   23   24 2   
    47   23   26 1   
    48   25   26 ar  
    49   25   34 ar  
    50   25   63 1   
    51   26   27 ar  
    52   27   28 ar  
    53   27   55 1   
    54   28   29 ar  
    55   28   56 1   
    56   29   33 ar  
    57   29   34 ar  
    58   30   31 ar  
    59   30   34 ar  
    60   30   57 1   
    61   31   32 ar  
    62   31   58 1   
    63   32   33 ar  
    64   32   59 1   
    65   33   60 1   
@<TRIPOS>SUBSTRUCTURE
     1 SUW         1 TEMP              0 ****  ****    0 ROOT
