@<TRIPOS>MOLECULE
SUW
   63    65     1     0     0
SMALL
bcc


@<TRIPOS>ATOM
      1 CX1         1.5540   -1.7700   -3.0620 c         1 SUW      0.902600
      2 O1A         0.9130   -2.7470   -3.5660 o         1 SUW     -0.806300
      3 O1B         2.5360   -1.2010   -3.5740 o         1 SUW     -0.806300
      4 CX2         0.9830   -1.2010   -1.7160 c3        1 SUW      0.213600
      5 OX2         1.3450   -1.8910   -0.5490 os        1 SUW     -0.393600
      6 CO2         1.7070   -3.2550   -0.7510 c3        1 SUW      0.123700
      7 CX3         1.2740    0.2850   -1.4700 c3        1 SUW     -0.126400
      8 CX4         0.4130    1.2070   -2.3190 c3        1 SUW      0.139100
      9 OX4         0.4880    2.5650   -1.9480 oh        1 SUW     -0.612800
     10 CX5        -1.0930    0.7630   -2.2530 c3        1 SUW      0.051500
     11 NX5        -1.9580    1.6980   -3.0430 ny        1 SUW     -0.672800
     12 C10        -3.2640    2.0070   -2.3410 c         1 SUW      0.556100
     13 O10        -3.2040    2.8590   -1.4670 o         1 SUW     -0.405100
     14 C11        -4.4600    1.2420   -2.7870 c3        1 SUW     -0.195100
     15 CX6        -1.0840   -0.6990   -2.7490 c3        1 SUW      0.095100
     16 OX6        -0.4560   -1.4180   -1.7020 os        1 SUW     -0.445600
     17 CX7        -2.3910   -1.4540   -3.0350 c3        1 SUW      0.131100
     18 OX7        -3.1850   -1.6270   -1.8840 oh        1 SUW     -0.616800
     19 CX8        -1.9310   -2.8070   -3.6410 c3        1 SUW      0.084100
     20 OX8        -1.5110   -2.5780   -4.9710 oh        1 SUW     -0.631800
     21 CX9        -3.0740   -3.8280   -3.6990 c3        1 SUW      0.100800
     22 NX6        -2.5620   -5.1960   -4.0070 ny        1 SUW     -0.675800
     23 C12        -2.4190   -5.4660   -5.5070 c         1 SUW      0.597700
     24 O12        -3.4540   -5.3390   -6.1470 o         1 SUW     -0.445100
     25 C25        -1.0490   -6.8350   -6.9790 ca        1 SUW     -0.008000
     26 C26        -1.1000   -5.9080   -5.9470 ca        1 SUW     -0.211600
     27 C27         0.0980   -5.3830   -5.3890 ca        1 SUW     -0.129000
     28 C28         1.3140   -5.8150   -5.8580 ca        1 SUW     -0.082000
     29 C2B         1.3970   -6.7890   -6.8910 ca        1 SUW      0.003000
     30 C21         0.2780   -8.2640   -8.5040 ca        1 SUW     -0.105000
     31 C22         1.5010   -8.6950   -8.9560 ca        1 SUW     -0.113000
     32 C23         2.6950   -8.1860   -8.3890 ca        1 SUW     -0.085000
     33 C24         2.6470   -7.2540   -7.3790 ca        1 SUW     -0.126000
     34 C2A         0.1990   -7.3010   -7.4590 ca        1 SUW     -0.066000
     35 HO21        1.9000   -3.6340    0.2830 h1        1 SUW      0.046033
     36 HO22        0.8690   -3.8080   -1.2390 h1        1 SUW      0.046033
     37 HO23        2.6260   -3.3200   -1.3840 h1        1 SUW      0.046033
     38 HX31        2.3540    0.4580   -1.7360 hc        1 SUW      0.100200
     39 HX32        1.1300    0.5120   -0.3810 hc        1 SUW      0.100200
     40 HX4         0.7650    1.1710   -3.3930 h1        1 SUW      0.105700
     41 HA          0.7580    2.6260   -1.0210 ho        1 SUW      0.438000
     42 HX5        -1.4370    0.8020   -1.1780 hx        1 SUW      0.124700
     43 HB         -1.4280    2.5830   -3.1460 hn        1 SUW      0.465300
     44 H111       -5.3800    1.7860   -2.4420 hc        1 SUW      0.115033
     45 H112       -4.5030    1.1270   -3.8980 hc        1 SUW      0.115033
     46 H113       -4.4450    0.2240   -2.3080 hc        1 SUW      0.115033
     47 HX6        -0.4730   -0.7360   -3.7040 h1        1 SUW      0.097700
     48 HX7        -3.0400   -0.9040   -3.7690 h1        1 SUW      0.067700
     49 HC         -2.6080   -1.9420   -1.1700 ho        1 SUW      0.445000
     50 HX8        -1.0720   -3.1940   -3.0030 h1        1 SUW      0.132700
     51 HD         -0.5350   -2.5150   -4.9700 ho        1 SUW      0.478000
     52 HX91       -3.5960   -3.8510   -2.7000 hx        1 SUW      0.115200
     53 HX92       -3.8110   -3.5420   -4.5030 hx        1 SUW      0.115200
     54 HE         -1.6470   -5.3300   -3.5580 hn        1 SUW      0.457800
     55 H27         0.0790   -4.5840   -4.6250 ha        1 SUW      0.175000
     56 H28         2.2460   -5.3930   -5.4420 ha        1 SUW      0.174000
     57 H21        -0.6550   -8.6530   -8.9400 ha        1 SUW      0.145000
     58 H22         1.5690   -9.4400   -9.7640 ha        1 SUW      0.153000
     59 H23         3.6640   -8.5470   -8.7700 ha        1 SUW      0.154000
     60 H24         3.5720   -6.8510   -6.9360 ha        1 SUW      0.155000
     61 HX52       -2.1360    1.3050   -3.9690 hn        1 SUW      0.465300
     62 HX62       -3.2210   -5.8840   -3.6300 hn        1 SUW      0.457800
     63 H25        -1.9770   -7.2200   -7.4360 ha        1 SUW      0.155000
@<TRIPOS>BOND
     1    1    2 1   
     2    1    3 1   
     3    1    4 1   
     4    4    5 1   
     5    4    7 1   
     6    4   16 1   
     7    5    6 1   
     8    6   35 1   
     9    6   36 1   
    10    6   37 1   
    11    7    8 1   
    12    7   38 1   
    13    7   39 1   
    14    8    9 1   
    15    8   10 1   
    16    8   40 1   
    17    9   41 1   
    18   10   11 1   
    19   10   15 1   
    20   10   42 1   
    21   11   12 1   
    22   11   43 1   
    23   11   61 1   
    24   12   13 2   
    25   12   14 1   
    26   14   44 1   
    27   14   45 1   
    28   14   46 1   
    29   15   16 1   
    30   15   17 1   
    31   15   47 1   
    32   17   18 1   
    33   17   19 1   
    34   17   48 1   
    35   18   49 1   
    36   19   20 1   
    37   19   21 1   
    38   19   50 1   
    39   20   51 1   
    40   21   22 1   
    41   21   52 1   
    42   21   53 1   
    43   22   23 1   
    44   22   54 1   
    45   22   62 1   
    46   23   24 2   
    47   23   26 1   
    48   25   26 ar  
    49   25   34 ar  
    50   25   63 1   
    51   26   27 ar  
    52   27   28 ar  
    53   27   55 1   
    54   28   29 ar  
    55   28   56 1   
    56   29   33 ar  
    57   29   34 ar  
    58   30   31 ar  
    59   30   34 ar  
    60   30   57 1   
    61   31   32 ar  
    62   31   58 1   
    63   32   33 ar  
    64   32   59 1   
    65   33   60 1   
@<TRIPOS>SUBSTRUCTURE
     1 SUW         1 TEMP              0 ****  ****    0 ROOT
