@<TRIPOS>MOLECULE
SUY
   45    49     1     0     0
SMALL
bcc


@<TRIPOS>ATOM
      1 CL1        -0.3690   -0.1080    0.2150 cl        1 SUY     -0.029400
      2 C9          1.2930   -0.1830    0.1460 cc        1 SUY     -0.032800
      3 C8          2.1590   -0.2920    1.2470 cd        1 SUY     -0.017300
      4 C10         1.7660   -0.3580    2.6740 c3        1 SUY     -0.036200
      5 C11         2.9110   -0.5180    3.6400 c3        1 SUY     -0.106100
      6 N7          3.4880   -0.3270    0.7980 na        1 SUY     -0.263100
      7 C6          3.4930   -0.2440   -0.5940 ca        1 SUY      0.471800
      8 N1          4.5580   -0.2410   -1.4450 nb        1 SUY     -0.699000
      9 C5          2.1000   -0.1490   -1.0420 ca        1 SUY     -0.271400
     10 C4          1.8980   -0.0540   -2.4380 ca        1 SUY      0.643200
     11 N13         0.5400    0.0440   -2.9220 nh        1 SUY     -0.688300
     12 C17         0.2570    1.3020   -3.6370 c3        1 SUY      0.175800
     13 C16        -0.1770    0.9660   -5.0620 cx        1 SUY     -0.109700
     14 C18         0.8490    0.2010   -5.8830 cx        1 SUY     -0.017500
     15 N19         0.8360    0.2880   -7.3510 n4        1 SUY     -0.798600
     16 C15        -0.2560   -0.5440   -5.1500 cx        1 SUY     -0.109700
     17 C14         0.1330   -1.0860   -3.7770 c3        1 SUY      0.175800
     18 N3          2.9560   -0.0590   -3.2910 nb        1 SUY     -0.791000
     19 C2          4.2210   -0.1520   -2.7580 ca        1 SUY      0.735300
     20 S20         5.4760   -0.1350   -3.9570 ss        1 SUY     -0.136200
     21 C21         6.9230   -0.3940   -3.1380 ca        1 SUY     -0.316700
     22 C26         7.7030   -1.5350   -3.4470 ca        1 SUY      0.493200
     23 N25         8.9200   -1.7470   -2.9150 nb        1 SUY     -0.694000
     24 C24         9.3600   -0.8070   -2.0330 ca        1 SUY      0.670900
     25 N23         8.6950    0.3170   -1.6470 nb        1 SUY     -0.694000
     26 C22         7.4850    0.5100   -2.2050 ca        1 SUY      0.493200
     27 H1          1.0490   -1.2190    2.7930 hc        1 SUY      0.078700
     28 H2          1.1940    0.5810    2.9170 hc        1 SUY      0.078700
     29 H3          3.4810   -1.4580    3.4420 hc        1 SUY      0.048033
     30 H4          2.5110   -0.5700    4.6830 hc        1 SUY      0.048033
     31 H5          3.6140    0.3490    3.5840 hc        1 SUY      0.048033
     32 H6          4.2860   -0.4060    1.3780 hn        1 SUY      0.328700
     33 H7         -0.6080    1.7880   -3.1020 h1        1 SUY      0.092450
     34 H8          1.1250    2.0140   -3.6330 h1        1 SUY      0.092450
     35 H9         -0.8950    1.6570   -5.5270 hc        1 SUY      0.120700
     36 H10         1.9040    0.1250   -5.5190 hx        1 SUY      0.181700
     37 H11        -0.1230    0.3590   -7.7060 hn        1 SUY      0.459800
     38 H12         1.2770   -0.5510   -7.7440 hn        1 SUY      0.459800
     39 H14        -1.0380   -1.0980   -5.6880 hc        1 SUY      0.120700
     40 H15        -0.7800   -1.5390   -3.2960 h1        1 SUY      0.092450
     41 H16         0.9230   -1.8790   -3.8610 h1        1 SUY      0.092450
     42 H17         7.3350   -2.3000   -4.1570 h4        1 SUY      0.040600
     43 H18        10.3620   -0.9760   -1.5820 h5        1 SUY      0.069100
     44 H19         6.9390    1.4190   -1.8900 h4        1 SUY      0.040600
     45 H193        1.3640    1.1170   -7.6460 hn        1 SUY      0.459800
@<TRIPOS>BOND
     1    1    2 1   
     2    2    3 2   
     3    2    9 1   
     4    3    4 1   
     5    3    6 1   
     6    4    5 1   
     7    4   27 1   
     8    4   28 1   
     9    5   29 1   
    10    5   30 1   
    11    5   31 1   
    12    6    7 1   
    13    6   32 1   
    14    7    8 ar  
    15    7    9 ar  
    16    8   19 ar  
    17    9   10 ar  
    18   10   11 1   
    19   10   18 ar  
    20   11   12 1   
    21   11   17 1   
    22   12   13 1   
    23   12   33 1   
    24   12   34 1   
    25   13   14 1   
    26   13   16 1   
    27   13   35 1   
    28   14   15 1   
    29   14   16 1   
    30   14   36 1   
    31   15   37 1   
    32   15   38 1   
    33   15   45 1   
    34   16   17 1   
    35   16   39 1   
    36   17   40 1   
    37   17   41 1   
    38   18   19 ar  
    39   19   20 1   
    40   20   21 1   
    41   21   22 ar  
    42   21   26 ar  
    43   22   23 ar  
    44   22   42 1   
    45   23   24 ar  
    46   24   25 ar  
    47   24   43 1   
    48   25   26 ar  
    49   26   44 1   
@<TRIPOS>SUBSTRUCTURE
     1 SUY         1 TEMP              0 ****  ****    0 ROOT
