@<TRIPOS>MOLECULE
SUY
   45    49     1     0     0
SMALL
bcc


@<TRIPOS>ATOM
      1 CL1        -0.3840   -0.1500    0.2110 cl        1 SUY     -0.029400
      2 C9          1.2800   -0.2000    0.1450 cc        1 SUY     -0.032800
      3 C8          2.1450   -0.2920    1.2490 cd        1 SUY     -0.017300
      4 C10         1.7500   -0.3590    2.6750 c3        1 SUY     -0.036200
      5 C11         2.8950   -0.5110    3.6430 c3        1 SUY     -0.106100
      6 N7          3.4750   -0.3080    0.8020 na        1 SUY     -0.263100
      7 C6          3.4820   -0.2300   -0.5900 ca        1 SUY      0.471800
      8 N1          4.5480   -0.2140   -1.4390 nb        1 SUY     -0.699000
      9 C5          2.0890   -0.1580   -1.0420 ca        1 SUY     -0.271400
     10 C4          1.8880   -0.0720   -2.4380 ca        1 SUY      0.643200
     11 N13         0.5290    0.0040   -2.9250 nh        1 SUY     -0.688300
     12 C17         0.2280    1.2550   -3.6450 c3        1 SUY      0.175800
     13 C16        -0.1990    0.9060   -5.0690 cx        1 SUY     -0.109700
     14 C18         0.8410    0.1540   -5.8860 cx        1 SUY     -0.017500
     15 N19         0.8290    0.2340   -7.3540 n4        1 SUY     -0.798600
     16 C15        -0.2540   -0.6050   -5.1520 cx        1 SUY     -0.109700
     17 C14         0.1410   -1.1350   -3.7750 c3        1 SUY      0.175800
     18 N3          2.9470   -0.0620   -3.2890 nb        1 SUY     -0.791000
     19 C2          4.2130   -0.1340   -2.7530 ca        1 SUY      0.735300
     20 S20         5.4690   -0.1020   -3.9500 ss        1 SUY     -0.136200
     21 C21         6.9190   -0.3370   -3.1270 ca        1 SUY     -0.316700
     22 C26         7.7160   -1.4670   -3.4320 ca        1 SUY      0.493200
     23 N25         8.9350   -1.6590   -2.8970 nb        1 SUY     -0.694000
     24 C24         9.3590   -0.7090   -2.0170 ca        1 SUY      0.670900
     25 N23         8.6770    0.4060   -1.6360 nb        1 SUY     -0.694000
     26 C22         7.4650    0.5790   -2.1970 ca        1 SUY      0.493200
     27 H1          1.0380   -1.2240    2.7930 hc        1 SUY      0.078700
     28 H2          1.1730    0.5780    2.9170 hc        1 SUY      0.078700
     29 H3          3.5910    0.3610    3.5890 hc        1 SUY      0.048033
     30 H4          2.4940   -0.5680    4.6850 hc        1 SUY      0.048033
     31 H5          3.4730   -1.4460    3.4440 hc        1 SUY      0.048033
     32 H6          4.2740   -0.3730    1.3840 hn        1 SUY      0.328700
     33 H7         -0.6450    1.7300   -3.1140 h1        1 SUY      0.092450
     34 H8          1.0850    1.9800   -3.6430 h1        1 SUY      0.092450
     35 H9         -0.9260    1.5840   -5.5390 hc        1 SUY      0.120700
     36 H10         1.8970    0.0950   -5.5190 hx        1 SUY      0.181700
     37 H11         1.2840   -0.5990   -7.7430 hn        1 SUY      0.459800
     38 H12        -0.1300    0.2890   -7.7110 hn        1 SUY      0.459800
     39 H14        -1.0270   -1.1730   -5.6890 hc        1 SUY      0.120700
     40 H15         0.9430   -1.9170   -3.8550 h1        1 SUY      0.092450
     41 H16        -0.7660   -1.6010   -3.2950 h1        1 SUY      0.092450
     42 H17         7.3610   -2.2400   -4.1390 h4        1 SUY      0.040600
     43 H18        10.3620   -0.8620   -1.5630 h5        1 SUY      0.069100
     44 H19         6.9040    1.4810   -1.8860 h4        1 SUY      0.040600
     45 H193        1.3450    1.0700   -7.6520 hn        1 SUY      0.459800
@<TRIPOS>BOND
     1    1    2 1   
     2    2    3 2   
     3    2    9 1   
     4    3    4 1   
     5    3    6 1   
     6    4    5 1   
     7    4   27 1   
     8    4   28 1   
     9    5   29 1   
    10    5   30 1   
    11    5   31 1   
    12    6    7 1   
    13    6   32 1   
    14    7    8 ar  
    15    7    9 ar  
    16    8   19 ar  
    17    9   10 ar  
    18   10   11 1   
    19   10   18 ar  
    20   11   12 1   
    21   11   17 1   
    22   12   13 1   
    23   12   33 1   
    24   12   34 1   
    25   13   14 1   
    26   13   16 1   
    27   13   35 1   
    28   14   15 1   
    29   14   16 1   
    30   14   36 1   
    31   15   37 1   
    32   15   38 1   
    33   15   45 1   
    34   16   17 1   
    35   16   39 1   
    36   17   40 1   
    37   17   41 1   
    38   18   19 ar  
    39   19   20 1   
    40   20   21 1   
    41   21   22 ar  
    42   21   26 ar  
    43   22   23 ar  
    44   22   42 1   
    45   23   24 ar  
    46   24   25 ar  
    47   24   43 1   
    48   25   26 ar  
    49   26   44 1   
@<TRIPOS>SUBSTRUCTURE
     1 SUY         1 TEMP              0 ****  ****    0 ROOT
