@<TRIPOS>MOLECULE
SUY
   45    49     1     0     0
SMALL
bcc


@<TRIPOS>ATOM
      1 Cl1        -0.3780   -0.1180    0.2180 cl        1 SUY     -0.029400
      2 C9          1.2840   -0.1820    0.1490 cc        1 SUY     -0.032800
      3 C8          2.1520   -0.2800    1.2510 cd        1 SUY     -0.017300
      4 C10         1.7590   -0.3410    2.6780 c3        1 SUY     -0.036200
      5 C11         2.9040   -0.5190    3.6420 c3        1 SUY     -0.106100
      6 N7          3.4810   -0.3090    0.8010 na        1 SUY     -0.263100
      7 C6          3.4850   -0.2320   -0.5910 ca        1 SUY      0.471800
      8 N1          4.5490   -0.2270   -1.4430 nb        1 SUY     -0.699000
      9 C5          2.0910   -0.1490   -1.0400 ca        1 SUY     -0.271400
     10 C4          1.8880   -0.0620   -2.4360 ca        1 SUY      0.643200
     11 N13         0.5290    0.0260   -2.9200 nh        1 SUY     -0.688300
     12 C17         0.2380    1.2780   -3.6410 c3        1 SUY      0.175800
     13 C16        -0.1950    0.9320   -5.0640 cx        1 SUY     -0.109700
     14 C18         0.8360    0.1700   -5.8820 cx        1 SUY     -0.017500
     15 N19         0.8210    0.2500   -7.3500 nz        1 SUY     -0.798600
     16 C15        -0.2640   -0.5780   -5.1440 cx        1 SUY     -0.109700
     17 C14         0.1290   -1.1110   -3.7690 c3        1 SUY      0.175800
     18 N3          2.9460   -0.0630   -3.2890 nb        1 SUY     -0.791000
     19 C2          4.2120   -0.1460   -2.7560 ca        1 SUY      0.735300
     20 S20         5.4650   -0.1260   -3.9560 ss        1 SUY     -0.137200
     21 C21         6.9150   -0.3720   -3.1360 ca        1 SUY     -0.316700
     22 C26         7.7020   -1.5090   -3.4400 ca        1 SUY      0.493200
     23 N25         8.9210   -1.7120   -2.9080 nb        1 SUY     -0.694000
     24 C24         9.3550   -0.7640   -2.0300 ca        1 SUY      0.670900
     25 N23         8.6830    0.3570   -1.6490 nb        1 SUY     -0.694000
     26 C22         7.4710    0.5400   -2.2080 ca        1 SUY      0.493200
     27 H1          1.2030    0.6070    2.9230 hc        1 SUY      0.078700
     28 H2          1.0300   -1.1910    2.7970 hc        1 SUY      0.078700
     29 H3          3.4640   -1.4640    3.4370 hc        1 SUY      0.048033
     30 H4          3.6150    0.3400    3.5910 hc        1 SUY      0.048033
     31 H5          2.5040   -0.5740    4.6850 hc        1 SUY      0.048033
     32 H6          4.2790   -0.3820    1.3810 hn        1 SUY      0.328700
     33 H7          1.1010    1.9950   -3.6410 h1        1 SUY      0.092450
     34 H8         -0.6300    1.7610   -3.1070 h1        1 SUY      0.092450
     35 H9         -0.9180    1.6160   -5.5320 hc        1 SUY      0.120700
     36 H10         1.8920    0.1020   -5.5170 hx        1 SUY      0.181700
     37 H11        -0.1380    0.3130   -7.7050 hn        1 SUY      0.459800
     38 H12         1.2670   -0.5890   -7.7390 hn        1 SUY      0.459800
     39 H14        -1.0430   -1.1400   -5.6790 hc        1 SUY      0.120700
     40 H15         0.9240   -1.9000   -3.8490 h1        1 SUY      0.092450
     41 H16        -0.7810   -1.5680   -3.2850 h1        1 SUY      0.092450
     42 H17         7.3390   -2.2810   -4.1460 h4        1 SUY      0.040600
     43 H18        10.3580   -0.9240   -1.5780 h5        1 SUY      0.069100
     44 H19         6.9190    1.4470   -1.8970 h4        1 SUY      0.040600
     45 H193        1.3450    1.0800   -7.6490 hn        1 SUY      0.459800
@<TRIPOS>BOND
     1    1    2 1   
     2    2    3 2   
     3    2    9 1   
     4    3    4 1   
     5    3    6 1   
     6    4    5 1   
     7    4   27 1   
     8    4   28 1   
     9    5   29 1   
    10    5   30 1   
    11    5   31 1   
    12    6    7 1   
    13    6   32 1   
    14    7    8 ar  
    15    7    9 ar  
    16    8   19 ar  
    17    9   10 ar  
    18   10   11 1   
    19   10   18 ar  
    20   11   12 1   
    21   11   17 1   
    22   12   13 1   
    23   12   33 1   
    24   12   34 1   
    25   13   14 1   
    26   13   16 1   
    27   13   35 1   
    28   14   15 1   
    29   14   16 1   
    30   14   36 1   
    31   15   37 1   
    32   15   38 1   
    33   15   45 1   
    34   16   17 1   
    35   16   39 1   
    36   17   40 1   
    37   17   41 1   
    38   18   19 ar  
    39   19   20 1   
    40   20   21 1   
    41   21   22 ar  
    42   21   26 ar  
    43   22   23 ar  
    44   22   42 1   
    45   23   24 ar  
    46   24   25 ar  
    47   24   43 1   
    48   25   26 ar  
    49   26   44 1   
@<TRIPOS>SUBSTRUCTURE
     1 SUY         1 TEMP              0 ****  ****    0 ROOT
