@<TRIPOS>MOLECULE
SUY
   44    48     1     0     0
SMALL
bcc


@<TRIPOS>ATOM
      1 CL1         3.1820    2.8420   -0.1600 cl        1 SUY     -0.044400
      2 C9          1.5590    2.4700   -0.0740 cc        1 SUY     -0.011800
      3 C8          0.5240    3.3940    0.1430 cd        1 SUY     -0.056300
      4 C10         0.6670    4.8500    0.3680 c3        1 SUY     -0.027200
      5 C11        -0.6010    5.6410    0.1680 c3        1 SUY     -0.101100
      6 N7         -0.7080    2.7220    0.1390 na        1 SUY     -0.269100
      7 C6         -0.4760    1.3670   -0.1000 ca        1 SUY      0.467800
      8 N1         -1.3930    0.3590   -0.2120 nb        1 SUY     -0.732000
      9 C5          0.9630    1.1690   -0.2270 ca        1 SUY     -0.304400
     10 C4          1.4060   -0.1640   -0.4760 ca        1 SUY      0.697200
     11 N13         2.8100   -0.3850   -0.6400 nh        1 SUY     -0.714300
     12 C17         3.5340   -0.4930    0.6460 c3        1 SUY      0.191300
     13 C16         4.3440   -1.7790    0.6340 cx        1 SUY     -0.169700
     14 C18         3.5480   -3.0660    0.5140 cx        1 SUY      0.141500
     15 N19         4.0300   -4.2770    1.0810 n3        1 SUY     -0.882800
     16 C15         4.1450   -2.4150   -0.7300 cx        1 SUY     -0.169700
     17 C14         3.2220   -1.4980   -1.5160 c3        1 SUY      0.191300
     18 N3          0.4930   -1.1640   -0.5840 nb        1 SUY     -0.755000
     19 C2         -0.8420   -0.8550   -0.4610 ca        1 SUY      0.740300
     20 S20        -1.8710   -2.2390   -0.6520 ss        1 SUY     -0.102200
     21 C21        -3.4570   -1.6900   -0.5070 ca        1 SUY     -0.300700
     22 C26        -4.3760   -2.0170   -1.5340 ca        1 SUY      0.479700
     23 N25        -5.6880   -1.7240   -1.4560 nb        1 SUY     -0.700000
     24 C24        -6.0860   -1.0670   -0.3320 ca        1 SUY      0.648900
     25 N23        -5.2970   -0.6880    0.7100 nb        1 SUY     -0.700000
     26 C22        -3.9910   -1.0080    0.6110 ca        1 SUY      0.479700
     27 H1          1.0480    5.0090    1.4160 hc        1 SUY      0.069200
     28 H2          1.4610    5.2300   -0.3330 hc        1 SUY      0.069200
     29 H3         -1.0360    5.4540   -0.8440 hc        1 SUY      0.041700
     30 H4         -1.3660    5.3830    0.9400 hc        1 SUY      0.041700
     31 H5         -0.3780    6.7330    0.2550 hc        1 SUY      0.041700
     32 H6         -1.5930    3.1510    0.2300 hn        1 SUY      0.316700
     33 H7          4.2250    0.3930    0.7030 h1        1 SUY      0.066200
     34 H8          2.8410   -0.4650    1.5290 h1        1 SUY      0.066200
     35 H9          5.3080   -1.7460    1.1600 hc        1 SUY      0.097700
     36 H10         2.4400   -2.9970    0.6360 h1        1 SUY      0.107700
     37 H11         3.5860   -5.0660    0.6520 hn        1 SUY      0.356800
     38 H12         5.0230   -4.3620    0.9960 hn        1 SUY      0.356800
     39 H14         4.9520   -2.8930   -1.2990 hc        1 SUY      0.097700
     40 H15         2.3650   -2.0760   -1.9510 h1        1 SUY      0.066200
     41 H16         3.7930   -1.0250   -2.3630 h1        1 SUY      0.066200
     42 H17        -4.0410   -2.5410   -2.4490 h4        1 SUY      0.041600
     43 H18        -7.1640   -0.8120   -0.2600 h5        1 SUY      0.057100
     44 H19        -3.3470   -0.7000    1.4560 h4        1 SUY      0.041600
@<TRIPOS>BOND
     1    1    2 1   
     2    2    3 2   
     3    2    9 1   
     4    3    4 1   
     5    3    6 1   
     6    4    5 1   
     7    4   27 1   
     8    4   28 1   
     9    5   29 1   
    10    5   30 1   
    11    5   31 1   
    12    6    7 1   
    13    6   32 1   
    14    7    8 ar  
    15    7    9 ar  
    16    8   19 ar  
    17    9   10 ar  
    18   10   11 1   
    19   10   18 ar  
    20   11   12 1   
    21   11   17 1   
    22   12   13 1   
    23   12   33 1   
    24   12   34 1   
    25   13   14 1   
    26   13   16 1   
    27   13   35 1   
    28   14   15 1   
    29   14   16 1   
    30   14   36 1   
    31   15   37 1   
    32   15   38 1   
    33   16   17 1   
    34   16   39 1   
    35   17   40 1   
    36   17   41 1   
    37   18   19 ar  
    38   19   20 1   
    39   20   21 1   
    40   21   22 ar  
    41   21   26 ar  
    42   22   23 ar  
    43   22   42 1   
    44   23   24 ar  
    45   24   25 ar  
    46   24   43 1   
    47   25   26 ar  
    48   26   44 1   
@<TRIPOS>SUBSTRUCTURE
     1 SUY         1 TEMP              0 ****  ****    0 ROOT
