@<TRIPOS>MOLECULE
SUZ
   41    43     1     0     0
SMALL
bcc


@<TRIPOS>ATOM
      1 C20        -0.3370   -0.1690   -0.0470 ca        1 SUZ     -0.058000
      2 C19         1.0440   -0.1020   -0.2160 ca        1 SUZ     -0.147000
      3 C5          1.8860    0.0610    0.8920 ca        1 SUZ      0.019200
      4 C6          3.3330    0.0690    0.7610 ce        1 SUZ     -0.154200
      5 C7          4.0970    0.9120    0.0510 cd        1 SUZ      0.041800
      6 C18         3.7280    2.0940   -0.7520 ca        1 SUZ     -0.100800
      7 C17         2.5110    2.6840   -1.0280 ca        1 SUZ     -0.088000
      8 C16         2.4670    3.8230   -1.8430 ca        1 SUZ     -0.194000
      9 C15         3.6500    4.3530   -2.3770 ca        1 SUZ      0.119900
     10 F           3.5910    5.4520   -3.1710 f         1 SUZ     -0.155900
     11 C14         4.9090    3.7660   -2.1010 ca        1 SUZ     -0.136000
     12 C13         4.9390    2.6540   -1.2860 ca        1 SUZ     -0.012800
     13 C10         6.0760    1.8450   -0.8010 cc        1 SUZ      0.027600
     14 C11         7.4740    2.1560   -1.0970 c3        1 SUZ     -0.183200
     15 C12         8.1180    1.1650   -2.1140 c         1 SUZ      0.927600
     16 O3          8.6160    0.1030   -1.6480 o         1 SUZ     -0.826800
     17 O2          8.1390    1.5100   -3.3240 o         1 SUZ     -0.826800
     18 C8          5.5790    0.8210   -0.0330 cd        1 SUZ     -0.137200
     19 C9          6.3560   -0.2470    0.6040 c3        1 SUZ     -0.057900
     20 C4          1.3120    0.1510    2.1730 ca        1 SUZ     -0.147000
     21 C3         -0.0660    0.0890    2.3300 ca        1 SUZ     -0.058000
     22 C2         -0.9090   -0.0780    1.2250 ca        1 SUZ     -0.154500
     23 S          -2.5820   -0.2660    1.4850 sx        1 SUZ      0.316400
     24 O1         -3.2210   -0.4500    0.1460 o         1 SUZ     -0.520200
     25 C1         -3.0300    1.3430    1.9850 c3        1 SUZ     -0.122800
     26 H20        -0.9980   -0.3000   -0.9220 ha        1 SUZ      0.138000
     27 H19         1.4830   -0.1780   -1.2240 ha        1 SUZ      0.146000
     28 H6          3.8330   -0.7330    1.3380 ha        1 SUZ      0.140000
     29 H17         1.5750    2.2740   -0.6200 ha        1 SUZ      0.135000
     30 H16         1.5050    4.3000   -2.0720 ha        1 SUZ      0.133000
     31 H14         5.8270    4.1810   -2.5440 ha        1 SUZ      0.169000
     32 H11         7.5640    3.1890   -1.5200 hc        1 SUZ      0.043700
     33 H11A        8.0790    2.0990   -0.1550 hc        1 SUZ      0.043700
     34 H9          5.8530   -1.2370    0.4730 hc        1 SUZ      0.053033
     35 H9A         7.3780   -0.3040    0.1320 hc        1 SUZ      0.053033
     36 H9B         6.4680   -0.0540    1.7010 hc        1 SUZ      0.053033
     37 H4          1.9660    0.2770    3.0490 ha        1 SUZ      0.146000
     38 H3         -0.5000    0.1710    3.3400 ha        1 SUZ      0.138000
     39 H1         -3.0780    2.0720    1.1450 h1        1 SUZ      0.079700
     40 H1A        -2.3180    1.7400    2.7430 h1        1 SUZ      0.079700
     41 H1B        -4.0450    1.2970    2.4440 h1        1 SUZ      0.079700
@<TRIPOS>BOND
     1    1    2 ar  
     2    1   22 ar  
     3    1   26 1   
     4    2    3 ar  
     5    2   27 1   
     6    3    4 1   
     7    3   20 ar  
     8    4    5 2   
     9    4   28 1   
    10    5    6 1   
    11    5   18 1   
    12    6    7 ar  
    13    6   12 ar  
    14    7    8 ar  
    15    7   29 1   
    16    8    9 ar  
    17    8   30 1   
    18    9   10 1   
    19    9   11 ar  
    20   11   12 ar  
    21   11   31 1   
    22   12   13 1   
    23   13   14 1   
    24   13   18 2   
    25   14   15 1   
    26   14   32 1   
    27   14   33 1   
    28   15   16 1   
    29   15   17 1   
    30   18   19 1   
    31   19   34 1   
    32   19   35 1   
    33   19   36 1   
    34   20   21 ar  
    35   20   37 1   
    36   21   22 ar  
    37   21   38 1   
    38   22   23 1   
    39   23   24 2   
    40   23   25 1   
    41   25   39 1   
    42   25   40 1   
    43   25   41 1   
@<TRIPOS>SUBSTRUCTURE
     1 SUZ         1 TEMP              0 ****  ****    0 ROOT
