@<TRIPOS>MOLECULE
SUZ
   41    43     1     0     0
SMALL
bcc


@<TRIPOS>ATOM
      1 C20        -3.2450    0.2220    1.1490 ca        1 SUZ     -0.058000
      2 C19        -1.9000    0.5600    1.0160 ca        1 SUZ     -0.147000
      3 C5         -1.4690    1.3270   -0.0760 ca        1 SUZ      0.019200
      4 C6         -0.0870    1.7550   -0.2140 ce        1 SUZ     -0.154200
      5 C7          1.0120    0.9920   -0.3110 cd        1 SUZ      0.041800
      6 C18         1.1570   -0.4760   -0.3610 ca        1 SUZ     -0.100800
      7 C17         0.2330   -1.5010   -0.3160 ca        1 SUZ     -0.088000
      8 C16         0.6760   -2.8290   -0.3840 ca        1 SUZ     -0.194000
      9 C15         2.0450   -3.1110   -0.4910 ca        1 SUZ      0.119900
     10 F           2.4590   -4.4020   -0.5480 f         1 SUZ     -0.155900
     11 C14         3.0080   -2.0730   -0.5450 ca        1 SUZ     -0.136000
     12 C13         2.5570   -0.7710   -0.4920 ca        1 SUZ     -0.012800
     13 C10         3.2960    0.5070   -0.5500 cc        1 SUZ      0.027600
     14 C11         4.7440    0.5960   -0.7400 c3        1 SUZ     -0.183200
     15 C12         5.5030    1.0300    0.5500 c         1 SUZ      0.927600
     16 O3          5.6130    2.2690    0.7660 o         1 SUZ     -0.826800
     17 O2          5.9950    0.1190    1.2660 o         1 SUZ     -0.826800
     18 C8          2.3910    1.5330   -0.4290 cd        1 SUZ     -0.137200
     19 C9          2.7000    2.9660   -0.3870 c3        1 SUZ     -0.057900
     20 C4         -2.4160    1.7500   -1.0250 ca        1 SUZ     -0.147000
     21 C3         -3.7530    1.4030   -0.8850 ca        1 SUZ     -0.058000
     22 C2         -4.1870    0.6390    0.2060 ca        1 SUZ     -0.154500
     23 S          -5.8540    0.3410    0.3930 sx        1 SUZ      0.316400
     24 O1         -6.0230   -0.4650    1.6400 o         1 SUZ     -0.520200
     25 C1         -6.1460   -0.7780   -0.9130 c3        1 SUZ     -0.122800
     26 H20        -3.5820   -0.3820    2.0110 ha        1 SUZ      0.138000
     27 H19        -1.1670    0.2270    1.7670 ha        1 SUZ      0.146000
     28 H6          0.0340    2.8550   -0.2440 ha        1 SUZ      0.140000
     29 H17        -0.8430   -1.2920   -0.2260 ha        1 SUZ      0.135000
     30 H16        -0.0480   -3.6540   -0.3460 ha        1 SUZ      0.133000
     31 H14         4.0800   -2.3110   -0.6080 ha        1 SUZ      0.169000
     32 H11         5.1570   -0.3930   -1.0660 hc        1 SUZ      0.043700
     33 H11A        4.9730    1.3600   -1.5290 hc        1 SUZ      0.043700
     34 H9          3.7920    3.1100   -0.1530 hc        1 SUZ      0.053033
     35 H9A         2.4660    3.4500   -1.3690 hc        1 SUZ      0.053033
     36 H9B         2.1000    3.4780    0.4060 hc        1 SUZ      0.053033
     37 H4         -2.0880    2.3550   -1.8830 ha        1 SUZ      0.146000
     38 H3         -4.4810    1.7330   -1.6430 ha        1 SUZ      0.138000
     39 H1         -5.7730   -1.8070   -0.7070 h1        1 SUZ      0.079700
     40 H1A        -7.2470   -0.8490   -1.0730 h1        1 SUZ      0.079700
     41 H1B        -5.6730   -0.4250   -1.8570 h1        1 SUZ      0.079700
@<TRIPOS>BOND
     1    1    2 ar  
     2    1   22 ar  
     3    1   26 1   
     4    2    3 ar  
     5    2   27 1   
     6    3    4 1   
     7    3   20 ar  
     8    4    5 2   
     9    4   28 1   
    10    5    6 1   
    11    5   18 1   
    12    6    7 ar  
    13    6   12 ar  
    14    7    8 ar  
    15    7   29 1   
    16    8    9 ar  
    17    8   30 1   
    18    9   10 1   
    19    9   11 ar  
    20   11   12 ar  
    21   11   31 1   
    22   12   13 1   
    23   13   14 1   
    24   13   18 2   
    25   14   15 1   
    26   14   32 1   
    27   14   33 1   
    28   15   16 1   
    29   15   17 1   
    30   18   19 1   
    31   19   34 1   
    32   19   35 1   
    33   19   36 1   
    34   20   21 ar  
    35   20   37 1   
    36   21   22 ar  
    37   21   38 1   
    38   22   23 1   
    39   23   24 2   
    40   23   25 1   
    41   25   39 1   
    42   25   40 1   
    43   25   41 1   
@<TRIPOS>SUBSTRUCTURE
     1 SUZ         1 TEMP              0 ****  ****    0 ROOT
