@<TRIPOS>MOLECULE
SUZ
   41    43     1     0     0
SMALL
bcc


@<TRIPOS>ATOM
      1 C20        -0.3390   -0.1640   -0.0490 ca        1 SUZ     -0.058000
      2 C19         1.0420   -0.0990   -0.2190 ca        1 SUZ     -0.147000
      3 C5          1.8840    0.0610    0.8900 ca        1 SUZ      0.019200
      4 C6          3.3310    0.0670    0.7590 ce        1 SUZ     -0.154200
      5 C7          4.0970    0.9100    0.0500 cd        1 SUZ      0.041800
      6 C18         3.7290    2.0940   -0.7510 ca        1 SUZ     -0.100800
      7 C17         2.5130    2.6860   -1.0250 ca        1 SUZ     -0.088000
      8 C16         2.4700    3.8270   -1.8390 ca        1 SUZ     -0.194000
      9 C15         3.6540    4.3560   -2.3710 ca        1 SUZ      0.119900
     10 F           3.5970    5.4570   -3.1630 f         1 SUZ     -0.155900
     11 C14         4.9130    3.7670   -2.0960 ca        1 SUZ     -0.136000
     12 C13         4.9410    2.6540   -1.2830 ca        1 SUZ     -0.012800
     13 C10         6.0770    1.8410   -0.8010 cc        1 SUZ      0.027600
     14 C11         7.4750    2.1510   -1.0970 c3        1 SUZ     -0.183200
     15 C12         8.1180    1.1610   -2.1150 c         1 SUZ      0.927600
     16 O3          8.6140    0.0980   -1.6510 o         1 SUZ     -0.826800
     17 O2          8.1390    1.5080   -3.3240 o         1 SUZ     -0.826800
     18 C8          5.5780    0.8170   -0.0340 cd        1 SUZ     -0.137200
     19 C9          6.3540   -0.2530    0.6010 c3        1 SUZ     -0.057900
     20 C4          1.3110    0.1490    2.1710 ca        1 SUZ     -0.147000
     21 C3         -0.0670    0.0890    2.3290 ca        1 SUZ     -0.058000
     22 C2         -0.9110   -0.0740    1.2230 ca        1 SUZ     -0.154500
     23 S          -2.5840   -0.2610    1.4830 sx        1 SUZ      0.316400
     24 O1         -3.2230   -0.4410    0.1440 o         1 SUZ     -0.520200
     25 C1         -3.0300    1.3480    1.9870 c3        1 SUZ     -0.122800
     26 H20        -1.0010   -0.2920   -0.9240 ha        1 SUZ      0.138000
     27 H19         1.4800   -0.1740   -1.2260 ha        1 SUZ      0.146000
     28 H6          3.8300   -0.7370    1.3350 ha        1 SUZ      0.140000
     29 H17         1.5760    2.2770   -0.6180 ha        1 SUZ      0.135000
     30 H16         1.5090    4.3060   -2.0670 ha        1 SUZ      0.133000
     31 H14         5.8310    4.1810   -2.5390 ha        1 SUZ      0.169000
     32 H11         7.5660    3.1850   -1.5180 hc        1 SUZ      0.043700
     33 H11A        8.0810    2.0920   -0.1540 hc        1 SUZ      0.043700
     34 H9          5.8490   -1.2420    0.4680 hc        1 SUZ      0.053033
     35 H9A         7.3750   -0.3110    0.1280 hc        1 SUZ      0.053033
     36 H9B         6.4660   -0.0620    1.6980 hc        1 SUZ      0.053033
     37 H4          1.9650    0.2730    3.0480 ha        1 SUZ      0.146000
     38 H3         -0.5010    0.1700    3.3380 ha        1 SUZ      0.138000
     39 H1         -3.0760    2.0790    1.1470 h1        1 SUZ      0.079700
     40 H1A        -2.3170    1.7430    2.7450 h1        1 SUZ      0.079700
     41 H1B        -4.0450    1.3020    2.4450 h1        1 SUZ      0.079700
@<TRIPOS>BOND
     1    1    2 ar  
     2    1   22 ar  
     3    1   26 1   
     4    2    3 ar  
     5    2   27 1   
     6    3    4 1   
     7    3   20 ar  
     8    4    5 2   
     9    4   28 1   
    10    5    6 1   
    11    5   18 1   
    12    6    7 ar  
    13    6   12 ar  
    14    7    8 ar  
    15    7   29 1   
    16    8    9 ar  
    17    8   30 1   
    18    9   10 1   
    19    9   11 ar  
    20   11   12 ar  
    21   11   31 1   
    22   12   13 1   
    23   13   14 1   
    24   13   18 2   
    25   14   15 1   
    26   14   32 1   
    27   14   33 1   
    28   15   16 1   
    29   15   17 1   
    30   18   19 1   
    31   19   34 1   
    32   19   35 1   
    33   19   36 1   
    34   20   21 ar  
    35   20   37 1   
    36   21   22 ar  
    37   21   38 1   
    38   22   23 1   
    39   23   24 2   
    40   23   25 1   
    41   25   39 1   
    42   25   40 1   
    43   25   41 1   
@<TRIPOS>SUBSTRUCTURE
     1 SUZ         1 TEMP              0 ****  ****    0 ROOT
