@<TRIPOS>MOLECULE
SUZ
   41    37     1     0     0
SMALL
bcc


@<TRIPOS>ATOM
      1 C20        -0.8790   -3.4550    1.1310 c1        1 SUZ     -0.067000
      2 C19        -1.4090   -2.2460    0.6820 c2        1 SUZ     -0.135000
      3 C5         -0.9400   -1.0710    1.1720 c1        1 SUZ      0.034000
      4 C6         -1.6500    0.1800    0.8640 c1        1 SUZ     -0.161000
      5 C7         -1.0220    1.1720    0.0740 c1        1 SUZ      0.037000
      6 C18        -1.7720    2.3910   -0.7610 c2        1 SUZ     -0.093000
      7 C17        -2.8830    3.1680   -0.4970 c2        1 SUZ     -0.090000
      8 C16        -3.0300    4.4090   -1.1130 c1        1 SUZ     -0.193000
      9 C15        -2.0020    4.8970   -2.0490 c2        1 SUZ      0.083000
     10 F          -2.1580    6.1300   -2.5830 f         1 SUZ     -0.121000
     11 C14        -0.8450    4.0950   -2.3290 c1        1 SUZ     -0.129000
     12 C13        -0.6990    2.8960   -1.7350 c2        1 SUZ     -0.003000
     13 C10         0.4790    2.0300   -1.4510 c2        1 SUZ      0.022000
     14 C11         1.5170    1.7420   -2.5670 c3        1 SUZ     -0.219000
     15 C12         2.7560    2.5410   -2.3270 c2        1 SUZ      0.348000
     16 O3          3.1940    2.6990   -1.1520 o         1 SUZ     -0.559500
     17 O2          3.3430    2.9870   -3.2360 o         1 SUZ     -0.559500
     18 C8          0.2630    1.1190   -0.4890 c1        1 SUZ     -0.134000
     19 C9          1.0910   -0.1570   -0.4360 c3        1 SUZ     -0.182000
     20 C4          0.0730   -1.0740    2.1250 c2        1 SUZ     -0.151000
     21 C3          0.6040   -2.2900    2.5760 c1        1 SUZ     -0.047000
     22 C2          0.1270   -3.4640    2.0780 c1        1 SUZ     -0.580000
     23 S           0.7280   -5.0610    2.7540 s4        1 SUZ      1.437000
     24 O1         -0.0230   -5.7410    3.7370 o         1 SUZ     -0.797000
     25 C1          2.2990   -5.6420    2.3120 c3        1 SUZ     -0.666000
     26 H20        -1.2140   -4.2820    0.7810 DU        1 SUZ      0.142000
     27 H19        -2.1400   -2.2450   -0.0100 ha        1 SUZ      0.152000
     28 H6         -2.5810    0.2640    1.0860 ha        1 SUZ      0.122000
     29 H17        -3.5180    2.8680    0.0650 ha        1 SUZ      0.125000
     30 H16        -3.7740    5.0070   -0.8370 DU        1 SUZ      0.142000
     31 H14        -0.1650    4.4210   -2.9480 DU        1 SUZ      0.142000
     32 H11         1.7350    0.7950   -2.5660 hc        1 SUZ      0.083500
     33 H11A        1.1290    1.9950   -3.4620 hc        1 SUZ      0.083500
     34 H9          1.8860    0.0230   -0.0520 hc        1 SUZ      0.094000
     35 H9A         1.2390   -0.5020   -1.3660 hc        1 SUZ      0.094000
     36 H9B         0.6300   -0.8200    0.0800 hc        1 SUZ      0.094000
     37 H4          0.4170   -0.2150    2.4860 ha        1 SUZ      0.137000
     38 H3          1.3560   -2.2960    3.2820 ha        1 SUZ      0.154000
     39 H1          2.4770   -6.5470    2.7810 h1        1 SUZ      0.121667
     40 H1A         2.3460   -5.7680    1.2920 h1        1 SUZ      0.121667
     41 H1B         3.0150   -4.9530    2.6080 h1        1 SUZ      0.121667
@<TRIPOS>BOND
     1    1    2 1   
     2    1   22 1   
     3    2    3 1   
     4    2   27 1   
     5    3   20 1   
     6    4    5 1   
     7    4   28 1   
     8    5    6 1   
     9    6    7 1   
    10    6   12 1   
    11    7    8 1   
    12    7   29 1   
    13    8    9 1   
    14    9   10 1   
    15    9   11 1   
    16   11   12 1   
    17   12   13 1   
    18   13   14 1   
    19   13   18 1   
    20   14   15 1   
    21   14   32 1   
    22   14   33 1   
    23   15   16 1   
    24   15   17 1   
    25   18   19 1   
    26   19   34 1   
    27   19   35 1   
    28   19   36 1   
    29   20   21 1   
    30   20   37 1   
    31   21   38 1   
    32   22   23 1   
    33   23   24 1   
    34   23   25 1   
    35   25   39 1   
    36   25   40 1   
    37   25   41 1   
@<TRIPOS>SUBSTRUCTURE
     1 SUZ         1 TEMP              0 ****  ****    0 ROOT
